USER    Run = 1
USER    DPF = ligand_517_receptor.dpf
USER  
USER    Estimated Free Energy of Binding    =  +4.26e+006 kcal/mol  [=(1)+(2)+(3)-(4)]
USER    
USER    (1) Final Intermolecular Energy     =  +4.26e+006 kcal/mol
USER        vdW + Hbond + desolv Energy     =  +2.25e+006 kcal/mol
USER        Electrostatic Energy            =  +2.01e+006 kcal/mol
USER    (2) Final Total Internal Energy     =   +0.00 kcal/mol
USER    (3) Torsional Free Energy           =   +1.19 kcal/mol
USER    (4) Unbound System's Energy  [=(2)] =   +0.00 kcal/mol
USER    
USER    
USER    NEWDPF move ligand_517.pdbqt
USER    NEWDPF about 0.000000 0.000000 0.000000
USER    NEWDPF tran0 17.705276 5.998985 1.424020
USER    NEWDPF quaternion0 0.056617 -0.934099 0.318567 0.150890
USER    NEWDPF axisangle0 0.057273 -0.944918 0.322257 162.643003
USER    NEWDPF quat0 0.057273 -0.944918 0.322257 162.643003
USER  keepresnum = 1 
USER  
REMARK  0 active torsions:
REMARK  status: ('A' for Active; 'I' for Inactive)
REMARK       I    between atoms: C2_2  and  N1_87 
REMARK       I    between atoms: C3_3  and  N1_87 
REMARK       I    between atoms: C4_4  and  O19_86 
REMARK       I    between atoms: C6_6  and  C24_24 
REMARK       I    between atoms: C6_6  and  O7_74 
REMARK       I    between atoms: C7_7  and  C8_8 
REMARK       I    between atoms: C8_8  and  C9_9 
REMARK       I    between atoms: C8_8  and  O5_72 
REMARK       I    between atoms: C9_9  and  C10_10 
REMARK       I    between atoms: C9_9  and  O4_71 
REMARK       I    between atoms: C10_10  and  N2_88 
REMARK       I    between atoms: C11_11  and  C12_12 
REMARK       I    between atoms: C11_11  and  N2_88 
REMARK       I    between atoms: C15_15  and  C18_18 
REMARK       I    between atoms: C25_25  and  C26_26 
REMARK       I    between atoms: C25_25  and  O7_74 
REMARK       I    between atoms: C26_26  and  C27_27 
REMARK       I    between atoms: C27_27  and  S1_92 
REMARK       I    between atoms: C28_28  and  C29_29 
REMARK       I    between atoms: C28_28  and  S1_92 
REMARK       I    between atoms: C29_29  and  N3_89 
REMARK       I    between atoms: C30_30  and  C31_31 
REMARK       I    between atoms: C30_30  and  N3_89 
REMARK       I    between atoms: C34_34  and  C37_37 
REMARK       I    between atoms: C37_37  and  C38_38 
REMARK       I    between atoms: C38_38  and  C39_39 
REMARK       I    between atoms: C39_39  and  C40_40 
REMARK       I    between atoms: C40_40  and  S2_93 
REMARK       I    between atoms: C41_41  and  C42_42 
REMARK       I    between atoms: C41_41  and  S2_93 
REMARK       I    between atoms: C42_42  and  C43_43 
REMARK       I    between atoms: C43_43  and  O10_77 
REMARK       I    between atoms: C44_44  and  C67_67 
REMARK       I    between atoms: C44_44  and  O10_77 
REMARK       I    between atoms: C46_46  and  O16_83 
REMARK       I    between atoms: C47_47  and  N5_91 
REMARK       I    between atoms: C48_48  and  C49_49 
REMARK       I    between atoms: C49_49  and  C50_50 
REMARK       I    between atoms: C49_49  and  O14_81 
REMARK       I    between atoms: C50_50  and  C51_51 
REMARK       I    between atoms: C50_50  and  O13_80 
REMARK       I    between atoms: C51_51  and  N4_90 
REMARK       I    between atoms: C52_52  and  C53_53 
REMARK       I    between atoms: C52_52  and  N4_90 
REMARK       I    between atoms: C56_56  and  C59_59 
REMARK       I    between atoms: C65_65  and  N5_91 
REMARK       I    between atoms: C67_67  and  O18_85 
USER                              x       y       z     vdW  Elec       q    Type
USER                           _______ _______ _______ _____ _____    ______ ____
ROOT
ATOM      1  C1  UNL     1       9.810   8.939  -2.669 -0.30 +0.00    +0.117 C 
ATOM      2  C2  UNL     1       9.906   7.494  -3.075 -0.28 +0.00    +0.214 C 
ATOM      3  C3  UNL     1      10.496   5.211  -2.266 -0.18 +0.00    +0.145 C 
ATOM      4  C4  UNL     1      11.446   4.779  -3.408 +3.09 +0.00    +0.149 C 
ATOM      5  C5  UNL     1      11.137   3.373  -3.920+18.59 +0.00    +0.110 C 
ATOM      6  C6  UNL     1      10.474   2.515  -2.836 +1.69 +0.00    +0.222 C 
ATOM      7  C7  UNL     1       9.122   4.528  -2.471 -0.14 +0.00    +0.182 C 
ATOM      8  C8  UNL     1       8.071   4.964  -1.419 +0.05 +0.00    +0.179 C 
ATOM      9  C9  UNL     1       6.764   4.136  -1.429 +0.07 +0.00    +0.167 C 
ATOM     10  C10 UNL     1       6.096   4.068  -2.809 +1.09 +0.00    +0.157 C 
ATOM     11  C11 UNL     1       3.669   4.241  -2.407 +0.66 +0.00    +0.251 C 
ATOM     12  C12 UNL     1       2.401   3.506  -2.152 -0.10 +0.00    +0.032 A 
ATOM     13  C13 UNL     1       2.381   2.230  -1.582 -0.05 +0.00    +0.018 A 
ATOM     14  C14 UNL     1       1.160   1.583  -1.357+99.99+99.99    +0.013 A 
ATOM     15  C15 UNL     1      -0.061   2.196  -1.687+99.99+99.99    -0.026 A 
ATOM     16  C16 UNL     1      -0.023   3.486  -2.243+99.99+99.99    +0.013 A 
ATOM     17  C17 UNL     1       1.194   4.138  -2.469+99.99+99.99    +0.018 A 
ATOM     18  C18 UNL     1      -1.343   1.512  -1.446+99.99+99.99    -0.026 A 
ATOM     19  C19 UNL     1      -2.362   2.125  -0.699+99.99+99.99    +0.012 A 
ATOM     20  C20 UNL     1      -3.577   1.475  -0.470+99.99+99.99    +0.001 A 
ATOM     21  C21 UNL     1      -3.796   0.200  -0.985+99.99+99.99    +0.000 A 
ATOM     22  C22 UNL     1      -2.799  -0.425  -1.729+99.99+99.99    +0.001 A 
ATOM     23  C23 UNL     1      -1.583   0.225  -1.957+99.99+99.99    +0.012 A 
ATOM     24  C24 UNL     1      10.119   1.145  -3.459+97.97 +0.00    +0.299 C 
ATOM     25  C25 UNL     1      12.501   1.716  -1.754+14.25 +0.00    +0.172 C 
ATOM     26  C26 UNL     1      13.253   1.937  -0.444+99.99 +0.00    +0.036 C 
ATOM     27  C27 UNL     1      14.580   1.189  -0.442 +5.28 +0.00    +0.076 C 
ATOM     28  C28 UNL     1      14.628   0.964   2.365+12.60 +0.00    +0.093 C 
ATOM     29  C29 UNL     1      13.896   2.082   3.108+99.99 +0.00    +0.133 C 
ATOM     30  C30 UNL     1      14.380   4.018   4.547+99.99 +0.00    +0.251 C 
ATOM     31  C31 UNL     1      15.324   5.129   4.856+99.99 +0.00    +0.032 A 
ATOM     32  C32 UNL     1      16.709   4.995   4.699+99.99 +0.00    +0.018 A 
ATOM     33  C33 UNL     1      17.562   6.064   5.003+99.99 +0.00    +0.016 A 
ATOM     34  C34 UNL     1      17.038   7.277   5.470 +6.66 +0.00    +0.010 A 
ATOM     35  C35 UNL     1      15.652   7.399   5.645 +4.81 +0.00    +0.016 A 
ATOM     36  C36 UNL     1      14.801   6.332   5.343 +0.74 +0.00    +0.018 A 
ATOM     37  C37 UNL     1      17.898   8.453   5.811+99.99 +0.00    +0.159 C 
ATOM     38  C38 UNL     1      19.375   8.432   5.472+49.01 +0.00    +0.084 C 
ATOM     39  C39 UNL     1      20.183   7.879   6.645+99.99 +0.00    +0.018 C 
ATOM     40  C40 UNL     1      21.680   7.776   6.352+99.99 +0.00    +0.074 C 
ATOM     41  C41 UNL     1      23.849   6.435   5.220+99.99 +0.00    +0.076 C 
ATOM     42  C42 UNL     1      24.533   7.694   4.695 +3.99 +0.00    +0.036 C 
ATOM     43  C43 UNL     1      24.246   7.985   3.224 +0.74 +0.00    +0.172 C 
ATOM     44  C44 UNL     1      26.160   8.831   2.002 -0.38 +0.00    +0.255 C 
ATOM     45  C45 UNL     1      25.695   8.507   0.568 -0.28 +0.00    +0.114 C 
ATOM     46  C46 UNL     1      26.357   7.257  -0.012 -0.33 +0.00    +0.149 C 
ATOM     47  C47 UNL     1      27.849   7.133   0.351 -0.30 +0.00    +0.145 C 
ATOM     48  C48 UNL     1      28.106   7.436   1.845 -0.19 +0.00    +0.182 C 
ATOM     49  C49 UNL     1      28.831   6.303   2.588+58.15 +0.00    +0.179 C 
ATOM     50  C50 UNL     1      30.272   6.022   2.105 +0.13 +0.00    +0.167 C 
ATOM     51  C51 UNL     1      31.199   7.242   1.904 -0.27 +0.00    +0.157 C 
ATOM     52  C52 UNL     1      30.938   9.399   3.141+24.19 +0.00    +0.251 C 
ATOM     53  C53 UNL     1      31.130  10.074   4.453+89.14 +0.00    +0.032 A 
ATOM     54  C54 UNL     1      30.199  11.034   4.858+99.99 +0.00    +0.018 A 
ATOM     55  C55 UNL     1      30.352  11.684   6.088+22.69 +0.00    +0.013 A 
ATOM     56  C56 UNL     1      31.438  11.398   6.931+12.62 -0.00    -0.026 A 
ATOM     57  C57 UNL     1      32.372  10.441   6.500+48.92 +0.00    +0.013 A 
ATOM     58  C58 UNL     1      32.225   9.785   5.273+15.88 +0.00    +0.018 A 
ATOM     59  C59 UNL     1      31.597  12.085   8.224+32.11 -0.00    -0.026 A 
ATOM     60  C60 UNL     1      31.767  11.358   9.414+99.99 +0.00    +0.012 A 
ATOM     61  C61 UNL     1      31.917  12.009  10.641 +1.48 +0.00    +0.001 A 
ATOM     62  C62 UNL     1      31.902  13.401  10.698 -0.16 +0.00    +0.000 A 
ATOM     63  C63 UNL     1      31.736  14.140   9.531 -0.14 +0.00    +0.001 A 
ATOM     64  C64 UNL     1      31.584  13.488   8.304 -0.23 +0.00    +0.012 A 
ATOM     65  C65 UNL     1      28.968   7.665  -1.792 -0.18 +0.00    +0.214 C 
ATOM     66  C66 UNL     1      29.698   8.732  -2.562 +0.35 +0.00    +0.117 C 
ATOM     67  C67 UNL     1      27.009  10.158   2.057+44.35 +0.00    +0.205 C 
ATOM     68  O1  UNL     1       9.516   7.087  -4.165 -0.20 -0.00    -0.274 OA
ATOM     69  O2  UNL     1       9.219   3.090  -2.434 -0.21 -0.00    -0.339 OA
ATOM     70  O3  UNL     1       3.696   5.466  -2.350+63.77 -0.00    -0.268 OA
ATOM     71  O4  UNL     1       7.038   2.802  -0.949 -0.00 -0.00    -0.391 OA
ATOM     72  O5  UNL     1       8.646   4.866  -0.103 -0.03 -0.00    -0.390 OA
ATOM     73  O6  UNL     1       8.986   0.676  -3.555 +0.39 -0.00    -0.301 OA
ATOM     74  O7  UNL     1      11.253   2.395  -1.654 +0.27 -0.00    -0.349 OA
ATOM     75  O8  UNL     1      13.279   3.975   5.083 +2.78 -0.00    -0.268 OA
ATOM     76  O9  UNL     1      17.400   9.425   6.377+99.99 -0.00    -0.292 OA
ATOM     77  O10 UNL     1      25.008   9.121   2.816 -0.40 -0.00    -0.346 OA
ATOM     78  O11 UNL     1      26.907   7.748   2.574 -0.31 -0.00    -0.336 OA
ATOM     79  O12 UNL     1      30.416  10.005   2.208+99.99 -0.00    -0.268 OA
ATOM     80  O13 UNL     1      30.890   5.141   3.064 +6.08 -0.00    -0.391 OA
ATOM     81  O14 UNL     1      28.894   6.620   4.001+99.99 -0.00    -0.390 OA
ATOM     82  O15 UNL     1      28.663   6.584  -2.286 -0.44 -0.00    -0.274 OA
ATOM     83  O16 UNL     1      25.653   6.098   0.450 -0.15 -0.00    -0.393 OA
ATOM     84  O17 UNL     1      27.032  10.986   2.958+99.99 -0.00    -0.646 OA
ATOM     85  O18 UNL     1      27.890  10.284   1.028+99.99 -0.00    -0.772 OA
ATOM     86  O19 UNL     1      12.807   4.829  -2.960+99.99 -0.00    -0.393 OA
ATOM     87  N1  UNL     1      10.445   6.669  -2.116 -0.10 -0.00    -0.352 N 
ATOM     88  N2  UNL     1       4.772   3.477  -2.720 -0.04 -0.00    -0.354 N 
ATOM     89  N3  UNL     1      14.807   3.093   3.617+99.99 -0.00    -0.356 N 
ATOM     90  N4  UNL     1      31.338   8.080   3.084+10.50 -0.00    -0.354 N 
ATOM     91  N5  UNL     1      28.660   8.008  -0.497 -0.10 -0.00    -0.352 N 
ATOM     92  S1  UNL     1      15.644   1.606   0.980+99.99 -0.00    -0.167 SA
ATOM     93  S2  UNL     1      22.026   6.453   5.142+99.99 -0.00    -0.169 SA
ATOM     94  H70 UNL     1       7.718   2.425  -1.549 +0.08 +0.00    +0.210 HD
ATOM     95  H71 UNL     1       8.469   3.946   0.189 +0.09 +0.00    +0.210 HD
ATOM     96  H72 UNL     1      30.482   5.385   3.922+32.89 +0.00    +0.210 HD
ATOM     97  H73 UNL     1      28.024   7.022   4.207 +0.71 +0.00    +0.210 HD
ATOM     98  H74 UNL     1      25.872   5.368  -0.160 +0.14 +0.00    +0.210 HD
ATOM     99  H75 UNL     1      28.559  10.921   1.384+99.99 +0.00    +0.167 HD
ATOM    100  H76 UNL     1      12.956   5.743  -2.652 +0.14 +0.00    +0.210 HD
ATOM    101  H77 UNL     1      10.446   7.011  -1.159 +0.09 +0.00    +0.163 HD
ATOM    102  H78 UNL     1       4.720   2.468  -2.696 +0.03 +0.00    +0.162 HD
ATOM    103  H79 UNL     1      15.566   3.353   2.997+99.99 +0.00    +0.162 HD
ATOM    104  H80 UNL     1      31.620   7.611   3.935+99.99 +0.00    +0.162 HD
ATOM    105  H81 UNL     1      28.717   8.993  -0.236 +0.09 +0.00    +0.163 HD
ENDROOT
TORSDOF 42
TER
