USER    Run = 1
USER    DPF = ligand_289_receptor.dpf
USER  
USER    Estimated Free Energy of Binding    =  +2.35e+003 kcal/mol  [=(1)+(2)+(3)-(4)]
USER    
USER    (1) Final Intermolecular Energy     =  +2.35e+003 kcal/mol
USER        vdW + Hbond + desolv Energy     =  +2.35e+003 kcal/mol
USER        Electrostatic Energy            =   +0.00 kcal/mol
USER    (2) Final Total Internal Energy     =   +8.16 kcal/mol
USER    (3) Torsional Free Energy           =   +1.19 kcal/mol
USER    (4) Unbound System's Energy  [=(2)] =   +8.16 kcal/mol
USER    
USER    
USER    NEWDPF move ligand_289.pdbqt
USER    NEWDPF about 0.000000 0.000000 0.000000
USER    NEWDPF tran0 17.323821 6.505268 4.320535
USER    NEWDPF quaternion0 -0.978190 0.045650 0.000405 0.202632
USER    NEWDPF axisangle0 -0.998913 0.046617 0.000414 156.618220
USER    NEWDPF quat0 -0.998913 0.046617 0.000414 156.618220
USER    NEWDPF dihe0 0.06 -25.88 -65.05 -133.21 -179.83 -179.99 168.25 -179.64 -26.56 -180.00 -162.99 26.48 68.82 -103.73 -97.06 169.32 -16.83 168.29 -91.20 111.85 180.00 -32.90 -180.00 -141.89 -162.08 -35.85 -180.00 -117.81 
USER  keepresnum = 1 
USER  
REMARK  28 active torsions:
REMARK  status: ('A' for Active; 'I' for Inactive)
REMARK    1  A    between atoms: C2_2  and  C3_3 
REMARK    2  A    between atoms: C2_2  and  N4_91 
REMARK    3  A    between atoms: C3_3  and  C4_4 
REMARK    4  A    between atoms: C4_4  and  C5_5 
REMARK    5  A    between atoms: C5_5  and  N1_88 
REMARK    6  A    between atoms: C7_7  and  C9_9 
REMARK    7  A    between atoms: C7_7  and  N2_89 
REMARK       I    between atoms: C9_9  and  N3_90 
REMARK    8  A    between atoms: C10_10  and  C11_11 
REMARK       I    between atoms: C10_10  and  N4_91 
REMARK    9  A    between atoms: C11_11  and  N5_92 
REMARK   10  A    between atoms: C13_13  and  C14_14 
REMARK       I    between atoms: C13_13  and  N5_92 
REMARK   11  A    between atoms: C14_14  and  N6_93 
REMARK   12  A    between atoms: C16_16  and  C17_17 
REMARK       I    between atoms: C16_16  and  N6_93 
REMARK   13  A    between atoms: C17_17  and  N7_94 
REMARK   14  A    between atoms: C19_19  and  C20_20 
REMARK       I    between atoms: C19_19  and  N7_94 
REMARK   15  A    between atoms: C32_32  and  C68_68 
REMARK   16  A    between atoms: C34_34  and  C64_64 
REMARK   17  A    between atoms: C36_36  and  C57_57 
REMARK   18  A    between atoms: C38_38  and  C48_48 
REMARK   19  A    between atoms: C42_42  and  C44_44 
REMARK   20  A    between atoms: C44_44  and  C45_45 
REMARK   21  A    between atoms: C48_48  and  C49_49 
REMARK   22  A    between atoms: C57_57  and  C58_58 
REMARK   23  A    between atoms: C61_61  and  O13_84 
REMARK   24  A    between atoms: C64_64  and  C65_65 
REMARK   25  A    between atoms: C65_65  and  C66_66 
REMARK   26  A    between atoms: C66_66  and  O15_86 
REMARK   27  A    between atoms: C68_68  and  C69_69 
REMARK   28  A    between atoms: N1_88  and  N2_89 
USER                              x       y       z     vdW  Elec       q    Type
USER                           _______ _______ _______ _____ _____    ______ ____
ROOT
ATOM      1  C20 UNL     1      19.590   6.334   6.099+60.09 +0.00    +0.110 C 
ATOM      2  C21 UNL     1      18.888   5.552   7.260+31.25 +0.00    +0.041 C 
ATOM      3  C22 UNL     1      18.548   6.317   8.552+34.53 +0.00    +0.015 C 
ATOM      4  C23 UNL     1      17.375   7.291   8.445+99.99 +0.00    +0.095 C 
ATOM      5  C24 UNL     1      16.088   6.611   8.655+99.99 -0.00    -0.092 C 
ATOM      6  C25 UNL     1      15.045   6.070   8.904 +0.76 -0.00    -0.015 C 
ATOM      7  C26 UNL     1      13.710   5.406   9.290+11.71 -0.00    -0.015 C 
ATOM      8  C27 UNL     1      12.653   4.925   9.595 +4.44 -0.00    -0.092 C 
ATOM      9  C28 UNL     1      11.338   4.364   9.946+22.81 +0.00    +0.095 C 
ATOM     10  C29 UNL     1      10.202   5.132   9.260 +3.82 +0.00    +0.012 C 
ATOM     11  C30 UNL     1      10.156   4.870   7.750 -0.48 +0.00    +0.002 C 
ATOM     12  C31 UNL     1       9.243   5.847   6.992 -0.24 +0.00    +0.019 C 
ATOM     13  C32 UNL     1       7.869   5.291   6.533 -0.35 +0.00    +0.044 C 
ATOM     14  C33 UNL     1       8.006   3.995   5.703 -0.26 +0.00    +0.227 C 
ATOM     15  C34 UNL     1       9.113   2.984   3.714 +0.10 +0.00    +0.177 C 
ATOM     16  C35 UNL     1      10.488   3.213   3.058+35.86 +0.00    +0.241 C 
ATOM     17  C36 UNL     1      11.989   4.853   1.968+99.99 +0.00    +0.180 C 
ATOM     18  C37 UNL     1      12.162   6.373   2.106 -0.16 +0.00    +0.241 C 
ATOM     19  C38 UNL     1      13.304   8.165   3.363 -0.22 +0.00    +0.158 C 
ATOM     20  C39 UNL     1      14.666   8.218   4.066 -0.44 +0.00    +0.149 C 
ATOM     21  C40 UNL     1      15.452   9.514   3.932 +0.19 +0.00    +0.081 C 
ATOM     22  C41 UNL     1      16.925   9.350   4.319 -0.48 +0.00    +0.021 C 
ATOM     23  C42 UNL     1      17.689   8.342   3.424 -0.57 +0.00    +0.078 C 
ATOM     24  C43 UNL     1      18.912   7.820   4.187 +0.05 +0.00    +0.222 C 
ATOM     25  C67 UNL     1       7.016   4.963   7.781 -0.07 +0.00    +0.026 C 
ATOM     26  C71 UNL     1      20.660   7.278   6.670+99.99 +0.00    +0.049 C 
ATOM     27  O8  UNL     1       7.370   2.973   5.946 +5.66 -0.00    -0.273 OA
ATOM     28  O9  UNL     1      11.264   2.289   2.825+48.97 -0.00    -0.271 OA
ATOM     29  O10 UNL     1      11.598   7.184   1.371 -0.20 -0.00    -0.271 OA
ATOM     30  O11 UNL     1      15.117   7.249   4.688 -0.49 -0.00    -0.296 OA
ATOM     31  O12 UNL     1      20.068   8.027   3.827 +0.15 -0.00    -0.273 OA
ATOM     32  N8  UNL     1       8.882   4.073   4.656 -0.13 -0.00    -0.347 N 
ATOM     33  N9  UNL     1      10.740   4.505   2.642+13.79 -0.00    -0.346 N 
ATOM     34  N10 UNL     1      12.920   6.771   3.183 -0.18 -0.00    -0.348 N 
ATOM     35  N11 UNL     1      18.583   7.067   5.302+25.56 -0.00    -0.343 N 
ATOM     36  H94 UNL     1       9.211   4.999   4.393 +0.10 +0.00    +0.163 HD
ATOM     37  H95 UNL     1       9.999   5.203   2.650 -0.04 +0.00    +0.163 HD
ATOM     38  H96 UNL     1      13.369   6.081   3.781 +0.05 +0.00    +0.163 HD
ATOM     39  H97 UNL     1      17.653   6.652   5.277 +2.80 +0.00    +0.163 HD
ENDROOT
BRANCH   1  40
ATOM     40  C19 UNL     1      20.133   5.234   5.120+97.43 +0.00    +0.246 C 
ATOM     41  O7  UNL     1      21.072   4.501   5.437+45.16 -0.00    -0.271 OA
ATOM     42  N7  UNL     1      19.425   5.023   3.962+76.54 -0.00    -0.346 N 
ATOM     43  H93 UNL     1      18.632   5.616   3.725 +4.43 +0.00    +0.163 HD
BRANCH  42  44
ATOM     44  C17 UNL     1      19.643   3.851   3.118+99.99 +0.00    +0.172 C 
ATOM     45  C18 UNL     1      18.699   2.719   3.495+36.39 +0.00    +0.042 C 
BRANCH  44  46
ATOM     46  C16 UNL     1      21.124   3.446   3.271 +6.25 +0.00    +0.240 C 
ATOM     47  O6  UNL     1      21.511   2.527   3.990 +1.52 -0.00    -0.271 OA
ATOM     48  N6  UNL     1      21.978   4.196   2.478 +9.66 -0.00    -0.346 N 
ATOM     49  H92 UNL     1      21.575   5.039   2.057+11.52 +0.00    +0.163 HD
BRANCH  48  50
ATOM     50  C14 UNL     1      23.386   4.296   2.828+47.57 +0.00    +0.172 C 
ATOM     51  C15 UNL     1      23.671   3.541   4.119+20.44 +0.00    +0.042 C 
BRANCH  50  52
ATOM     52  C13 UNL     1      24.206   3.722   1.645 +6.28 +0.00    +0.240 C 
ATOM     53  O5  UNL     1      25.246   3.078   1.803+99.99 -0.00    -0.271 OA
ATOM     54  N5  UNL     1      23.664   3.969   0.401 +0.10 -0.00    -0.346 N 
ATOM     55  H91 UNL     1      22.678   4.219   0.390 +0.18 +0.00    +0.163 HD
BRANCH  54  56
ATOM     56  C11 UNL     1      24.080   3.189  -0.763+11.74 +0.00    +0.172 C 
ATOM     57  C12 UNL     1      24.149   1.709  -0.421+60.44 +0.00    +0.042 C 
BRANCH  56  58
ATOM     58  C10 UNL     1      25.474   3.707  -1.161 -0.03 +0.00    +0.240 C 
ATOM     59  O4  UNL     1      25.919   4.770  -0.727 -0.42 -0.00    -0.271 OA
ATOM     60  N4  UNL     1      26.196   2.878  -1.984 -0.07 -0.00    -0.348 N 
ATOM     61  H90 UNL     1      25.763   2.063  -2.409 +0.07 +0.00    +0.163 HD
BRANCH  60  62
ATOM     62  C2  UNL     1      27.542   3.230  -2.444 -0.25 +0.00    +0.158 C 
ATOM     63  C1  UNL     1      27.470   3.916  -3.803 +8.17 +0.00    +0.041 C 
BRANCH  62  64
ATOM     64  C3  UNL     1      28.177   4.149  -1.412 -0.17 +0.00    +0.218 C 
ATOM     65  O1  UNL     1      28.842   3.769  -0.453 -0.16 -0.00    -0.287 OA
BRANCH  64  66
ATOM     66  C4  UNL     1      27.887   5.620  -1.587 -0.19 +0.00    +0.215 C 
ATOM     67  O2  UNL     1      27.365   5.977  -2.638 +0.89 -0.00    -0.287 OA
BRANCH  66  68
ATOM     68  C5  UNL     1      28.224   6.524  -0.411 -0.24 +0.00    +0.145 C 
ATOM     69  C6  UNL     1      28.387   5.689   0.862 +0.26 +0.00    +0.036 C 
BRANCH  68  70
ATOM     70  N1  UNL     1      27.136   7.506  -0.207 -0.20 -0.00    -0.249 NA
ATOM     71  H86 UNL     1      26.815   7.854  -1.124 +0.08 +0.00    +0.141 HD
BRANCH  70  72
ATOM     72  N2  UNL     1      26.024   6.849   0.478 -0.19 -0.00    -0.247 NA
ATOM     73  H87 UNL     1      26.207   5.840   0.584 +0.10 +0.00    +0.141 HD
BRANCH  72  74
ATOM     74  C7  UNL     1      24.781   6.961  -0.336 -0.40 +0.00    +0.159 C 
ATOM     75  C8  UNL     1      25.202   7.031  -1.801 -0.15 +0.00    +0.037 C 
BRANCH  74  76
ATOM     76  C9  UNL     1      24.003   8.236   0.042 -0.34 +0.00    +0.234 C 
ATOM     77  O3  UNL     1      22.861   8.477  -0.351 -0.35 -0.00    -0.272 OA
ATOM     78  N3  UNL     1      24.654   9.123   0.847 -0.02 -0.00    -0.369 N 
ATOM     79  H88 UNL     1      24.141   9.934   1.166 +0.13 +0.00    +0.159 HD
ATOM     80  H89 UNL     1      25.499   8.888   1.372 +0.13 +0.00    +0.159 HD
ENDBRANCH  74  76
ENDBRANCH  72  74
ENDBRANCH  70  72
ENDBRANCH  68  70
ENDBRANCH  66  68
ENDBRANCH  64  66
ENDBRANCH  62  64
ENDBRANCH  60  62
ENDBRANCH  56  58
ENDBRANCH  54  56
ENDBRANCH  50  52
ENDBRANCH  48  50
ENDBRANCH  44  46
ENDBRANCH  42  44
ENDBRANCH   1  40
BRANCH  23  81
ATOM     81  C44 UNL     1      18.057   8.969   2.059 -0.41 +0.00    +0.018 C 
BRANCH  81  82
ATOM     82  C45 UNL     1      18.457  10.460   2.153 -0.52 -0.00    -0.022 C 
ATOM     83  C46 UNL     1      17.676  11.354   1.191 -0.63 +0.00    +0.009 C 
ATOM     84  C47 UNL     1      19.958  10.611   1.892 -0.56 +0.00    +0.009 C 
ENDBRANCH  81  82
ENDBRANCH  23  81
BRANCH  19  85
ATOM     85  C48 UNL     1      12.226   9.034   4.020 +1.96 +0.00    +0.073 C 
BRANCH  85  86
ATOM     86  C49 UNL     1      11.661   8.599   5.344 +0.86 -0.00    -0.028 A 
ATOM     87  C50 UNL     1      10.466   7.969   5.625 +0.23 +0.00    +0.096 A 
ATOM     88  N12 UNL     1      10.406   7.718   6.970 +1.67 -0.00    -0.365 N 
ATOM     89  C51 UNL     1      11.513   8.231   7.599 +6.05 +0.00    +0.042 A 
ATOM     90  H98 UNL     1       9.645   7.244   7.437 +0.42 +0.00    +0.165 HD
ATOM     91  C52 UNL     1      11.857   8.241   8.955+60.90 +0.00    +0.030 A 
ATOM     92  C56 UNL     1      12.322   8.785   6.607 +0.18 -0.00    -0.002 A 
ATOM     93  C53 UNL     1      13.070   8.837   9.310 +3.33 +0.00    +0.002 A 
ATOM     94  C54 UNL     1      13.904   9.395   8.346 +1.79 +0.00    +0.001 A 
ATOM     95  C55 UNL     1      13.544   9.375   6.994 +0.51 +0.00    +0.014 A 
ENDBRANCH  85  86
ENDBRANCH  19  85
BRANCH  17  96
ATOM     96  C57 UNL     1      11.975   4.440   0.489+67.29 +0.00    +0.073 C 
BRANCH  96  97
ATOM     97  C58 UNL     1      11.283   5.465  -0.385 -0.27 -0.00    -0.056 A 
ATOM     98  C59 UNL     1       9.885   5.573  -0.385 -0.21 +0.00    +0.010 A 
ATOM     99  C60 UNL     1       9.247   6.535  -1.172 -0.25 +0.00    +0.037 A 
ATOM    100  C61 UNL     1      10.012   7.391  -1.957 -0.32 +0.00    +0.065 A 
ATOM    101  C62 UNL     1      11.399   7.305  -1.963 -0.19 +0.00    +0.037 A 
ATOM    102  C63 UNL     1      12.036   6.341  -1.179 -0.41 +0.00    +0.010 A 
BRANCH 100 103
ATOM    103  O13 UNL     1       9.431   8.340  -2.744 -0.28 -0.00    -0.361 OA
ATOM    104  H84 UNL     1       8.467   8.241  -2.687 +0.01 +0.00    +0.217 HD
ENDBRANCH 100 103
ENDBRANCH  96  97
ENDBRANCH  17  96
BRANCH  13 105
ATOM    105  C68 UNL     1       7.082   6.353   5.713 +4.32 +0.00    +0.096 C 
BRANCH 105 106
ATOM    106  C69 UNL     1       5.612   6.564   6.073 +1.78 +0.00    +0.124 C 
ATOM    107  C70 UNL     1       5.333   7.404   7.293 +0.48 +0.00    +0.091 C 
ATOM    108  O16 UNL     1       4.691   6.024   5.455 -0.12 -0.00    -0.298 OA
ENDBRANCH 105 106
ENDBRANCH  13 105
BRANCH  15 109
ATOM    109  C64 UNL     1       8.003   2.934   2.660 -0.27 +0.00    +0.045 C 
BRANCH 109 110
ATOM    110  C65 UNL     1       7.081   4.150   2.733 -0.14 +0.00    +0.112 C 
BRANCH 110 111
ATOM    111  C66 UNL     1       6.493   4.469   1.386 -0.10 +0.00    +0.139 C 
ATOM    112  O14 UNL     1       5.726   5.375   1.109 +0.00 -0.00    -0.650 OA
BRANCH 111 113
ATOM    113  O15 UNL     1       6.934   3.628   0.431 +0.13 -0.00    -0.776 OA
ATOM    114  H85 UNL     1       6.227   3.641  -0.247 +0.05 +0.00    +0.167 HD
ENDBRANCH 111 113
ENDBRANCH 110 111
ENDBRANCH 109 110
ENDBRANCH  15 109
TORSDOF 28
TER
