USER    Run = 1
USER    DPF = ligand_371_receptor.dpf
USER  
USER    Estimated Free Energy of Binding    =  +1.01e+006 kcal/mol  [=(1)+(2)+(3)-(4)]
USER    
USER    (1) Final Intermolecular Energy     =  +1.01e+006 kcal/mol
USER        vdW + Hbond + desolv Energy     =  +5.75e+005 kcal/mol
USER        Electrostatic Energy            =  +4.31e+005 kcal/mol
USER    (2) Final Total Internal Energy     =   +0.00 kcal/mol
USER    (3) Torsional Free Energy           =   +1.19 kcal/mol
USER    (4) Unbound System's Energy  [=(2)] =   +0.00 kcal/mol
USER    
USER    
USER    NEWDPF move ligand_371.pdbqt
USER    NEWDPF about 0.000000 0.000000 0.000000
USER    NEWDPF tran0 19.492356 7.638865 1.546928
USER    NEWDPF quaternion0 0.079403 0.422697 -0.873639 -0.227548
USER    NEWDPF axisangle0 0.081542 0.434084 -0.897174 -153.694438
USER    NEWDPF quat0 0.081542 0.434084 -0.897174 -153.694438
USER  keepresnum = 1 
USER  
REMARK  0 active torsions:
REMARK  status: ('A' for Active; 'I' for Inactive)
REMARK       I    between atoms: C2_2  and  O1_57 
REMARK       I    between atoms: C5_5  and  N5_73 
REMARK       I    between atoms: C7_7  and  C8_8 
REMARK       I    between atoms: C8_8  and  N1_69 
REMARK       I    between atoms: C9_9  and  C10_10 
REMARK       I    between atoms: C9_9  and  C14_14 
REMARK       I    between atoms: C9_9  and  N1_69 
REMARK       I    between atoms: C10_10  and  C11_11 
REMARK       I    between atoms: C11_11  and  C12_12 
REMARK       I    between atoms: C12_12  and  C13_13 
REMARK       I    between atoms: C13_13  and  N2_70 
REMARK       I    between atoms: C14_14  and  N3_71 
REMARK       I    between atoms: C15_15  and  N3_71 
REMARK       I    between atoms: C17_17  and  C22_22 
REMARK       I    between atoms: C18_18  and  O4_60 
REMARK       I    between atoms: C22_22  and  N4_72 
REMARK       I    between atoms: C23_23  and  C24_24 
REMARK       I    between atoms: C23_23  and  N5_73 
REMARK       I    between atoms: C24_24  and  C25_25 
REMARK       I    between atoms: C24_24  and  N9_78 
REMARK       I    between atoms: C25_25  and  C26_26 
REMARK       I    between atoms: C26_26  and  C27_27 
REMARK       I    between atoms: C27_27  and  N6_74 
REMARK       I    between atoms: C28_28  and  N7_76 
REMARK       I    between atoms: C28_28  and  N8_77 
REMARK       I    between atoms: C29_29  and  C30_30 
REMARK       I    between atoms: C29_29  and  N9_78 
REMARK       I    between atoms: C31_31  and  O12_68 
REMARK       I    between atoms: C34_34  and  N10_79 
REMARK       I    between atoms: C36_36  and  C37_37 
REMARK       I    between atoms: C36_36  and  N10_79 
REMARK       I    between atoms: C37_37  and  C38_38 
REMARK       I    between atoms: C37_37  and  N12_81 
REMARK       I    between atoms: C38_38  and  C39_39 
REMARK       I    between atoms: C39_39  and  C40_40 
REMARK       I    between atoms: C40_40  and  C41_41 
REMARK       I    between atoms: C41_41  and  N11_80 
REMARK       I    between atoms: C42_42  and  C43_43 
REMARK       I    between atoms: C42_42  and  N12_81 
REMARK       I    between atoms: C44_44  and  O11_67 
REMARK       I    between atoms: C47_47  and  N13_82 
REMARK       I    between atoms: C49_49  and  C50_50 
REMARK       I    between atoms: C49_49  and  N13_82 
REMARK       I    between atoms: C50_50  and  C51_51 
REMARK       I    between atoms: C50_50  and  N15_84 
REMARK       I    between atoms: C51_51  and  C52_52 
REMARK       I    between atoms: C52_52  and  C53_53 
REMARK       I    between atoms: C53_53  and  C54_54 
REMARK       I    between atoms: C54_54  and  N14_83 
USER                              x       y       z     vdW  Elec       q    Type
USER                           _______ _______ _______ _____ _____    ______ ____
ROOT
ATOM      1  C1  UNL     1      30.457   8.503   4.405+99.99 +0.00    +0.202 C 
ATOM      2  C2  UNL     1      28.481   7.380   3.716+24.31 +0.00    +0.163 C 
ATOM      3  C3  UNL     1      28.794   6.518   2.467+20.62 +0.00    +0.066 C 
ATOM      4  C4  UNL     1      27.889   6.772   1.282 -0.03 +0.00    +0.006 C 
ATOM      5  C5  UNL     1      26.695   7.375   1.405 -0.44 +0.00    +0.031 C 
ATOM      6  C6  UNL     1      26.212   7.715   2.725 -0.54 +0.00    +0.044 C 
ATOM      7  C7  UNL     1      27.035   7.776   3.785+10.20 +0.00    +0.041 C 
ATOM      8  C8  UNL     1      26.522   8.200   5.107+99.99 +0.00    +0.251 C 
ATOM      9  C9  UNL     1      25.082   9.901   6.239+99.99 +0.00    +0.177 C 
ATOM     10  C10 UNL     1      24.252   8.889   7.050+99.99 +0.00    +0.035 C 
ATOM     11  C11 UNL     1      22.995   9.501   7.690+99.99 +0.00    +0.004 C 
ATOM     12  C12 UNL     1      21.702   9.209   6.916 +1.88 +0.00    +0.030 C 
ATOM     13  C13 UNL     1      21.625   9.780   5.499+55.08 +0.00    +0.267 C 
ATOM     14  C14 UNL     1      26.092  10.679   7.129+99.99 +0.00    +0.245 C 
ATOM     15  C15 UNL     1      28.365  11.735   6.927+80.72 +0.00    +0.035 A 
ATOM     16  C16 UNL     1      28.478  12.229   8.229+52.71 +0.00    +0.049 A 
ATOM     17  C17 UNL     1      29.618  12.950   8.624 -0.37 +0.00    +0.067 A 
ATOM     18  C18 UNL     1      30.660  13.151   7.710 -0.34 +0.00    +0.084 A 
ATOM     19  C19 UNL     1      30.547  12.667   6.406 +1.62 +0.00    +0.040 A 
ATOM     20  C20 UNL     1      29.410  11.956   6.021+99.99 +0.00    +0.032 A 
ATOM     21  C21 UNL     1      32.861  13.074   8.365+99.99+99.99    +0.210 C 
ATOM     22  C22 UNL     1      29.710  13.460  10.016 -0.18 +0.00    +0.252 C 
ATOM     23  C23 UNL     1      24.811   8.442   0.185 -0.17 +0.00    +0.245 C 
ATOM     24  C24 UNL     1      24.234   8.499  -1.247 +0.81 +0.00    +0.177 C 
ATOM     25  C25 UNL     1      25.115   9.386  -2.130+99.99 +0.00    +0.036 C 
ATOM     26  C26 UNL     1      24.653   9.527  -3.586+99.99 +0.00    +0.022 C 
ATOM     27  C27 UNL     1      24.235   8.229  -4.277+99.99 +0.00    +0.121 C 
ATOM     28  C28 UNL     1      24.940   6.022  -3.777+45.66 +0.00    +0.121 C 
ATOM     29  C29 UNL     1      21.787   8.151  -1.329 +4.60 +0.00    +0.255 C 
ATOM     30  C30 UNL     1      20.450   8.646  -0.870+10.76 +0.00    +0.067 A 
ATOM     31  C31 UNL     1      20.259   9.754  -0.029 +0.49 +0.00    +0.084 A 
ATOM     32  C32 UNL     1      18.960  10.134   0.324 -0.39 +0.00    +0.040 A 
ATOM     33  C33 UNL     1      17.855   9.398  -0.118 -0.36 +0.00    +0.032 A 
ATOM     34  C34 UNL     1      18.028   8.278  -0.927 +8.55 +0.00    +0.035 A 
ATOM     35  C35 UNL     1      19.328   7.913  -1.301+92.51 +0.00    +0.049 A 
ATOM     36  C36 UNL     1      15.616   7.624  -1.157 +3.88 +0.00    +0.245 C 
ATOM     37  C37 UNL     1      14.753   6.587  -1.912+18.14 +0.00    +0.177 C 
ATOM     38  C38 UNL     1      14.756   6.816  -3.435+20.85 +0.00    +0.035 C 
ATOM     39  C39 UNL     1      14.496   8.250  -3.926+99.99 +0.00    +0.004 C 
ATOM     40  C40 UNL     1      13.152   8.878  -3.550+99.99 +0.00    +0.030 C 
ATOM     41  C41 UNL     1      11.948   8.143  -4.139 +3.65 +0.00    +0.267 C 
ATOM     42  C42 UNL     1      12.567   5.500  -1.453 +3.05 +0.00    +0.255 C 
ATOM     43  C43 UNL     1      11.207   5.615  -0.824 -0.28 +0.00    +0.067 A 
ATOM     44  C44 UNL     1      10.678   6.806  -0.284 -0.26 +0.00    +0.084 A 
ATOM     45  C45 UNL     1       9.390   6.789   0.260 -0.26 +0.00    +0.040 A 
ATOM     46  C46 UNL     1       8.639   5.609   0.285 -0.16 +0.00    +0.032 A 
ATOM     47  C47 UNL     1       9.155   4.421  -0.235 -0.13 +0.00    +0.035 A 
ATOM     48  C48 UNL     1      10.435   4.433  -0.789 -0.15 +0.00    +0.049 A 
ATOM     49  C49 UNL     1       8.612   1.995  -0.595 -0.07 +0.00    +0.255 C 
ATOM     50  C50 UNL     1       7.441   1.008  -0.344 -0.08 +0.00    +0.309 C 
ATOM     51  C51 UNL     1       7.368   0.652   1.149 +0.71 +0.00    +0.045 C 
ATOM     52  C52 UNL     1       6.203  -0.268   1.538+99.99 +0.00    +0.004 C 
ATOM     53  C53 UNL     1       4.835   0.400   1.386 +2.74 +0.00    +0.030 C 
ATOM     54  C54 UNL     1       3.712  -0.534   1.835+19.62 +0.00    +0.267 C 
ATOM     55  C55 UNL     1      11.074   9.040   0.483+99.99 +0.00    +0.210 C 
ATOM     56  C56 UNL     1      21.338  10.781   1.787 +0.93 +0.00    +0.210 C 
ATOM     57  O1  UNL     1      29.242   8.601   3.671 +3.03 -0.00    -0.386 OA
ATOM     58  O2  UNL     1      26.881   7.657   6.141+99.99 -0.00    -0.268 OA
ATOM     59  O3  UNL     1      25.790  11.054   8.260+42.56 -0.00    -0.271 OA
ATOM     60  O4  UNL     1      31.754  13.911   8.023 -0.08 -0.00    -0.355 OA
ATOM     61  O5  UNL     1      30.748  13.436  10.665 -0.11 -0.00    -0.268 OA
ATOM     62  O6  UNL     1      24.315   9.096   1.105 -0.26 -0.00    -0.271 OA
ATOM     63  O7  UNL     1      21.893   7.035  -1.836 -0.07 -0.00    -0.268 OA
ATOM     64  O8  UNL     1      15.101   8.477  -0.436 -0.21 -0.00    -0.271 OA
ATOM     65  O9  UNL     1      12.907   4.473  -2.033+99.99 -0.00    -0.268 OA
ATOM     66  O10 UNL     1       9.657   1.617  -1.120 -0.14 -0.00    -0.271 OA
ATOM     67  O11 UNL     1      11.438   7.945  -0.352 +5.66 -0.00    -0.355 OA
ATOM     68  O12 UNL     1      21.343  10.483   0.388 -0.29 -0.00    -0.355 OA
ATOM     69  N1  UNL     1      25.705   9.305   5.056+99.99 -0.00    -0.344 N 
ATOM     70  N2  UNL     1      21.556  11.237   5.473+99.99 +0.00    +0.078 N 
ATOM     71  N3  UNL     1      27.254  11.016   6.454+99.99 -0.00    -0.325 N 
ATOM     72  N4  UNL     1      28.558  13.962  10.558 +0.22 -0.00    -0.366 N 
ATOM     73  N5  UNL     1      25.943   7.638   0.283 -0.15 -0.00    -0.326 N 
ATOM     74  N6  UNL     1      25.268   7.213  -4.101+99.99 -0.00    -0.372 N 
ATOM     75  H6  UNL     1      26.250   7.454  -4.238+99.99 +0.00    +0.161 HD
ATOM     76  N7  UNL     1      25.909   5.083  -3.678+99.99 -0.00    -0.279 NA
ATOM     77  N8  UNL     1      23.742   5.468  -3.489+13.00 -0.00    -0.279 NA
ATOM     78  N9  UNL     1      22.865   8.993  -1.175 +2.10 -0.00    -0.344 N 
ATOM     79  N10 UNL     1      16.972   7.481  -1.413 +0.22 -0.00    -0.325 N 
ATOM     80  N11 UNL     1      10.702   8.768  -3.700 -0.41 +0.00    +0.078 N 
ATOM     81  N12 UNL     1      13.413   6.574  -1.348 +0.03 -0.00    -0.344 N 
ATOM     82  N13 UNL     1       8.327   3.281  -0.164 -0.00 -0.00    -0.325 N 
ATOM     83  N14 UNL     1       2.423   0.140   1.724 -0.19 +0.00    +0.078 N 
ATOM     84  N15 UNL     1       7.628  -0.205  -1.165 -0.19 +0.00    +0.092 N 
ATOM     85  H61 UNL     1      25.460   9.695   4.152 +0.19 +0.00    +0.163 HD
ATOM     86  H62 UNL     1      22.316  11.638   6.020 +8.11 +0.00    +0.312 HD
ATOM     87  H63 UNL     1      20.704  11.537   5.951+99.99 +0.00    +0.312 HD
ATOM     88  H64 UNL     1      27.326  10.634   5.516+38.55 +0.00    +0.169 HD
ATOM     89  H65 UNL     1      27.718  14.117  10.019 -0.34 +0.00    +0.159 HD
ATOM     90  H66 UNL     1      28.624  14.374  11.479+99.99+99.99    +0.159 HD
ATOM     91  H67 UNL     1      26.305   7.272  -0.593 +0.11 +0.00    +0.169 HD
ATOM     92  H68 UNL     1      25.641   4.223  -4.144 +1.97 +0.00    +0.126 HD
ATOM     93  H69 UNL     1      26.764   5.444  -4.091+99.99 +0.00    +0.126 HD
ATOM     94  H70 UNL     1      23.803   4.733  -2.795 +0.75 +0.00    +0.126 HD
ATOM     95  H71 UNL     1      23.017   6.125  -3.186 +2.47 +0.00    +0.126 HD
ATOM     96  H72 UNL     1      22.720   9.810  -0.583 +0.12 +0.00    +0.163 HD
ATOM     97  H73 UNL     1      17.242   6.693  -1.992 -0.01 +0.00    +0.169 HD
ATOM     98  H74 UNL     1      10.727   9.765  -3.912 +0.22 +0.00    +0.312 HD
ATOM     99  H75 UNL     1      10.643   8.696  -2.683 +0.05 +0.00    +0.312 HD
ATOM    100  H76 UNL     1      13.112   7.396  -0.829 -0.02 +0.00    +0.163 HD
ATOM    101  H77 UNL     1       7.411   3.425   0.242 +0.07 +0.00    +0.169 HD
ATOM    102  H78 UNL     1       2.389   0.924   2.373 +0.09 +0.00    +0.312 HD
ATOM    103  H79 UNL     1       1.685  -0.500   2.014+99.99+99.99    +0.312 HD
ATOM    104  H80 UNL     1       8.561  -0.573  -0.953 +0.17 +0.00    +0.313 HD
ATOM    105  H81 UNL     1       7.716   0.087  -2.142 +0.13 +0.00    +0.313 HD
ENDROOT
TORSDOF 39
TER
