USER    Run = 1
USER    DPF = ligand_394_receptor.dpf
USER  
USER    Estimated Free Energy of Binding    =  +6.10e+004 kcal/mol  [=(1)+(2)+(3)-(4)]
USER    
USER    (1) Final Intermolecular Energy     =  +6.10e+004 kcal/mol
USER        vdW + Hbond + desolv Energy     =  +6.10e+004 kcal/mol
USER        Electrostatic Energy            =   +0.00 kcal/mol
USER    (2) Final Total Internal Energy     =   +0.00 kcal/mol
USER    (3) Torsional Free Energy           =   +1.19 kcal/mol
USER    (4) Unbound System's Energy  [=(2)] =   +0.00 kcal/mol
USER    
USER    
USER    NEWDPF move ligand_394.pdbqt
USER    NEWDPF about 0.000000 0.000000 0.000000
USER    NEWDPF tran0 15.414597 5.814646 1.178455
USER    NEWDPF quaternion0 0.188213 0.089984 0.924583 0.318787
USER    NEWDPF axisangle0 0.198573 0.094938 0.975477 142.820864
USER    NEWDPF quat0 0.198573 0.094938 0.975477 142.820864
USER  keepresnum = 1 
USER  
REMARK  0 active torsions:
REMARK  status: ('A' for Active; 'I' for Inactive)
REMARK       I    between atoms: C2_2  and  C3_3 
REMARK       I    between atoms: C3_3  and  C4_4 
REMARK       I    between atoms: C3_3  and  N12_110 
REMARK       I    between atoms: C4_4  and  N1_99 
REMARK       I    between atoms: C5_5  and  N1_99 
REMARK       I    between atoms: C6_6  and  C81_81 
REMARK       I    between atoms: C12_12  and  C14_14 
REMARK       I    between atoms: C14_14  and  N3_101 
REMARK       I    between atoms: C15_15  and  C16_16 
REMARK       I    between atoms: C15_15  and  C22_22 
REMARK       I    between atoms: C15_15  and  C28_28 
REMARK       I    between atoms: C15_15  and  N3_101 
REMARK       I    between atoms: C28_28  and  N4_102 
REMARK       I    between atoms: C29_29  and  C30_30 
REMARK       I    between atoms: C29_29  and  N4_102 
REMARK       I    between atoms: C30_30  and  C31_31 
REMARK       I    between atoms: C31_31  and  C32_32 
REMARK       I    between atoms: C32_32  and  C33_33 
REMARK       I    between atoms: C36_36  and  C39_39 
REMARK       I    between atoms: C39_39  and  C40_40 
REMARK       I    between atoms: C40_40  and  C41_41 
REMARK       I    between atoms: C41_41  and  C42_42 
REMARK       I    between atoms: C42_42  and  N5_103 
REMARK       I    between atoms: C43_43  and  C44_44 
REMARK       I    between atoms: C43_43  and  N5_103 
REMARK       I    between atoms: C44_44  and  C45_45 
REMARK       I    between atoms: C44_44  and  C51_51 
REMARK       I    between atoms: C44_44  and  N6_104 
REMARK       I    between atoms: C57_57  and  C58_58 
REMARK       I    between atoms: C57_57  and  N6_104 
REMARK       I    between atoms: C63_63  and  N9_107 
REMARK       I    between atoms: C64_64  and  C67_67 
REMARK       I    between atoms: C67_67  and  C68_68 
REMARK       I    between atoms: C68_68  and  N8_106 
REMARK       I    between atoms: C69_69  and  C70_70 
REMARK       I    between atoms: C69_69  and  N8_106 
REMARK       I    between atoms: C76_76  and  C77_77 
REMARK       I    between atoms: C76_76  and  N9_107 
REMARK       I    between atoms: C77_77  and  C78_78 
REMARK       I    between atoms: C77_77  and  N10_108 
REMARK       I    between atoms: C81_81  and  C82_82 
REMARK       I    between atoms: C82_82  and  N11_109 
REMARK       I    between atoms: C83_83  and  C84_84 
REMARK       I    between atoms: C83_83  and  N11_109 
USER                              x       y       z     vdW  Elec       q    Type
USER                           _______ _______ _______ _____ _____    ______ ____
ROOT
ATOM      1  C1  UNL     1       5.493   0.267   6.447+99.99 +0.00    +0.007 C 
ATOM      2  C2  UNL     1       4.664   1.230   7.288+99.99 +0.00    +0.041 C 
ATOM      3  C3  UNL     1       4.448   2.623   6.672 +6.22 +0.00    +0.310 C 
ATOM      4  C4  UNL     1       5.775   3.420   6.677 +0.52 +0.00    +0.251 C 
ATOM      5  C5  UNL     1       7.447   4.311   5.103 -0.25 +0.00    +0.181 C 
ATOM      6  C6  UNL     1       8.599   3.697   4.271 -0.35 +0.00    +0.019 C 
ATOM      7  C7  UNL     1       9.851   4.603   4.254 -0.33 +0.00    +0.009 C 
ATOM      8  C8  UNL     1       9.708   5.994   3.625 -0.29 +0.00    +0.026 C 
ATOM      9  C9  UNL     1       8.657   6.850   4.331 +0.25 +0.00    +0.088 C 
ATOM     10  C10 UNL     1       8.773   8.352   4.056 +4.40 +0.00    +0.028 C 
ATOM     11  C11 UNL     1       7.726   8.636   2.993 +2.08 +0.00    +0.037 C 
ATOM     12  C12 UNL     1       6.605   7.638   3.297+12.93 +0.00    +0.179 C 
ATOM     13  C13 UNL     1       6.627   5.396   4.348 -0.14 +0.00    +0.244 C 
ATOM     14  C14 UNL     1       5.835   7.349   1.992 -0.19 +0.00    +0.242 C 
ATOM     15  C15 UNL     1       6.125   6.207  -0.273 +0.53 +0.00    +0.169 C 
ATOM     16  C16 UNL     1       6.210   7.512  -1.104+18.86 -0.00    -0.016 A 
ATOM     17  C17 UNL     1       5.094   8.357  -1.264+13.68 +0.00    +0.010 A 
ATOM     18  C18 UNL     1       5.176   9.549  -1.989+33.06 +0.00    +0.001 A 
ATOM     19  C19 UNL     1       6.387   9.942  -2.549+99.99 +0.00    +0.000 A 
ATOM     20  C20 UNL     1       7.519   9.154  -2.364+99.99 +0.00    +0.001 A 
ATOM     21  C21 UNL     1       7.434   7.962  -1.638 +3.69 +0.00    +0.010 A 
ATOM     22  C22 UNL     1       4.799   5.404  -0.351 -0.08 -0.00    -0.016 A 
ATOM     23  C23 UNL     1       4.014   5.369  -1.521 +5.13 +0.00    +0.010 A 
ATOM     24  C24 UNL     1       2.857   4.587  -1.598 +0.32 +0.00    +0.001 A 
ATOM     25  C25 UNL     1       2.466   3.810  -0.512 +0.48 +0.00    +0.000 A 
ATOM     26  C26 UNL     1       3.234   3.809   0.647 +0.16 +0.00    +0.001 A 
ATOM     27  C27 UNL     1       4.390   4.590   0.724 -0.15 +0.00    +0.010 A 
ATOM     28  C28 UNL     1       7.287   5.190  -0.708 +0.18 +0.00    +0.255 C 
ATOM     29  C29 UNL     1       8.068   3.528  -2.382 -0.13 +0.00    +0.122 C 
ATOM     30  C30 UNL     1       9.162   3.987  -3.348 +0.05 +0.00    +0.020 C 
ATOM     31  C31 UNL     1      10.183   4.973  -2.772 -0.26 +0.00    +0.002 C 
ATOM     32  C32 UNL     1      11.030   4.397  -1.630 +0.38 +0.00    +0.005 C 
ATOM     33  C33 UNL     1      11.890   5.473  -0.932 -0.24 -0.00    -0.014 C 
ATOM     34  C34 UNL     1      12.305   4.973   0.465 +7.49 +0.00    +0.005 C 
ATOM     35  C35 UNL     1      13.554   5.682   0.970+37.32 +0.00    +0.005 C 
ATOM     36  C36 UNL     1      14.772   5.367   0.083+99.99 -0.00    -0.014 C 
ATOM     37  C37 UNL     1      14.374   5.144  -1.392+99.99 +0.00    +0.005 C 
ATOM     38  C38 UNL     1      13.106   5.903  -1.776 +2.75 +0.00    +0.005 C 
ATOM     39  C39 UNL     1      15.858   6.455   0.200+99.99 +0.00    +0.005 C 
ATOM     40  C40 UNL     1      16.378   6.716   1.620+99.99 +0.00    +0.002 C 
ATOM     41  C41 UNL     1      16.960   5.501   2.353+81.13 +0.00    +0.020 C 
ATOM     42  C42 UNL     1      18.078   4.777   1.606+99.99 +0.00    +0.122 C 
ATOM     43  C43 UNL     1      20.000   5.518   0.211+99.99 +0.00    +0.255 C 
ATOM     44  C44 UNL     1      21.166   6.620   0.072+99.99 +0.00    +0.169 C 
ATOM     45  C45 UNL     1      20.512   8.010  -0.168+99.99 -0.00    -0.016 A 
ATOM     46  C46 UNL     1      19.386   8.130  -1.011+68.96 +0.00    +0.010 A 
ATOM     47  C47 UNL     1      18.808   9.374  -1.275+43.74 +0.00    +0.001 A 
ATOM     48  C48 UNL     1      19.350  10.528  -0.719+10.57 +0.00    +0.000 A 
ATOM     49  C49 UNL     1      20.474  10.441   0.096 -0.29 +0.00    +0.001 A 
ATOM     50  C50 UNL     1      21.052   9.197   0.363 +2.23 +0.00    +0.010 A 
ATOM     51  C51 UNL     1      22.135   6.232  -1.095 +2.50 -0.00    -0.016 A 
ATOM     52  C52 UNL     1      22.675   4.929  -1.157+99.99 +0.00    +0.010 A 
ATOM     53  C53 UNL     1      23.600   4.566  -2.139+99.99 +0.00    +0.001 A 
ATOM     54  C54 UNL     1      24.017   5.500  -3.080 +7.68 +0.00    +0.000 A 
ATOM     55  C55 UNL     1      23.508   6.793  -3.041 +3.06 +0.00    +0.001 A 
ATOM     56  C56 UNL     1      22.578   7.155  -2.062 +2.19 +0.00    +0.010 A 
ATOM     57  C57 UNL     1      21.684   6.939   2.574+99.99 +0.00    +0.242 C 
ATOM     58  C58 UNL     1      22.742   6.640   3.670+99.99 +0.00    +0.179 C 
ATOM     59  C59 UNL     1      22.584   7.694   4.773+99.99 +0.00    +0.037 C 
ATOM     60  C60 UNL     1      23.925   7.691   5.479+13.25 +0.00    +0.028 C 
ATOM     61  C61 UNL     1      24.936   7.417   4.365 +3.64 +0.00    +0.088 C 
ATOM     62  C62 UNL     1      24.777   5.832   2.457 +8.48 +0.00    +0.244 C 
ATOM     63  C63 UNL     1      26.301   5.980   2.234+11.61 +0.00    +0.181 C 
ATOM     64  C64 UNL     1      26.741   7.405   1.803 -0.43 +0.00    +0.019 C 
ATOM     65  C65 UNL     1      26.863   8.365   3.009 -0.34 +0.00    +0.009 C 
ATOM     66  C66 UNL     1      25.580   8.675   3.787 -0.49 +0.00    +0.026 C 
ATOM     67  C67 UNL     1      25.893   7.973   0.638 -0.44 +0.00    +0.037 C 
ATOM     68  C68 UNL     1      26.533   9.219   0.002 +6.20 +0.00    +0.270 C 
ATOM     69  C69 UNL     1      24.529  10.199  -1.041+99.99 +0.00    +0.308 C 
ATOM     70  C70 UNL     1      24.512  11.554  -0.371+99.99 -0.00    -0.030 A 
ATOM     71  C71 UNL     1      24.870  12.705  -1.088+99.99 +0.00    +0.009 A 
ATOM     72  C72 UNL     1      24.861  13.957  -0.469+99.99 +0.00    +0.001 A 
ATOM     73  C73 UNL     1      24.497  14.070   0.872+99.99 +0.00    +0.000 A 
ATOM     74  C74 UNL     1      24.141  12.934   1.594+99.99 +0.00    +0.001 A 
ATOM     75  C75 UNL     1      24.149  11.682   0.977+99.99 +0.00    +0.009 A 
ATOM     76  C76 UNL     1      28.016   4.530   1.155 +5.43 +0.00    +0.251 C 
ATOM     77  C77 UNL     1      28.218   3.501   0.005 -0.15 +0.00    +0.310 C 
ATOM     78  C78 UNL     1      29.712   3.280  -0.288 -0.25 +0.00    +0.041 C 
ATOM     79  C79 UNL     1      30.390   2.391   0.750 -0.39 +0.00    +0.007 C 
ATOM     80  C80 UNL     1      27.201   2.975  -2.157 -0.15 +0.00    +0.307 C 
ATOM     81  C81 UNL     1       8.134   3.244   2.868 -0.28 +0.00    +0.037 C 
ATOM     82  C82 UNL     1       9.169   2.464   2.044 +0.11 +0.00    +0.270 C 
ATOM     83  C83 UNL     1      10.464   0.406   1.942 +0.94 +0.00    +0.308 C 
ATOM     84  C84 UNL     1      11.883   0.924   1.891 +6.47 -0.00    -0.030 A 
ATOM     85  C85 UNL     1      12.623   0.830   0.702+42.06 +0.00    +0.009 A 
ATOM     86  C86 UNL     1      13.957   1.245   0.660+99.99 +0.00    +0.001 A 
ATOM     87  C87 UNL     1      14.567   1.751   1.805+99.99 +0.00    +0.000 A 
ATOM     88  C88 UNL     1      13.847   1.845   2.993+99.99 +0.00    +0.001 A 
ATOM     89  C89 UNL     1      12.516   1.427   3.038+39.83 +0.00    +0.009 A 
ATOM     90  C90 UNL     1       2.537   2.125   5.233 -0.13 +0.00    +0.307 C 
ATOM     91  O1  UNL     1       6.142   4.103   7.627 -0.29 -0.00    -0.271 OA
ATOM     92  O2  UNL     1       5.415   5.267   4.144 -0.11 -0.00    -0.271 OA
ATOM     93  O3  UNL     1       4.792   7.937   1.721 +8.13 -0.00    -0.271 OA
ATOM     94  O4  UNL     1       8.249   4.966   0.036 -0.08 -0.00    -0.270 OA
ATOM     95  O5  UNL     1      19.750   4.670  -0.647+99.99 -0.00    -0.270 OA
ATOM     96  O6  UNL     1      20.563   7.357   2.867+79.34 -0.00    -0.271 OA
ATOM     97  O7  UNL     1      24.101   4.996   1.848 +0.20 -0.00    -0.271 OA
ATOM     98  O8  UNL     1      28.896   4.883   1.933+22.15 -0.00    -0.271 OA
ATOM     99  N1  UNL     1       6.497   3.275   5.505 +0.68 -0.00    -0.346 N 
ATOM    100  N2  UNL     1       7.319   6.493   3.878 +0.01 -0.00    -0.332 N 
ATOM    101  N3  UNL     1       6.505   6.528   1.119 -0.15 -0.00    -0.334 N 
ATOM    102  N4  UNL     1       7.187   4.598  -1.953 +0.76 -0.00    -0.358 N 
ATOM    103  N5  UNL     1      19.193   5.649   1.329+99.99 -0.00    -0.358 N 
ATOM    104  N6  UNL     1      22.015   6.576   1.297+99.99 -0.00    -0.334 N 
ATOM    105  N7  UNL     1      24.178   6.708   3.338+99.99 -0.00    -0.332 N 
ATOM    106  N8  UNL     1      25.873   9.652  -1.230+99.99 +0.00    +0.087 N 
ATOM    107  N9  UNL     1      26.719   4.983   1.254 +1.27 -0.00    -0.346 N 
ATOM    108  N10 UNL     1      27.485   4.016  -1.181 -0.26 +0.00    +0.092 N 
ATOM    109  N11 UNL     1       9.542   1.227   2.733+70.42 +0.00    +0.087 N 
ATOM    110  N12 UNL     1       3.913   2.607   5.279 -0.26 +0.00    +0.092 N 
ATOM    111  HB1 UNL     1       5.918   2.884   4.764 -0.26 +0.00    +0.163 HD
ATOM    112  HB2 UNL     1       7.379   6.119   1.432 +0.08 +0.00    +0.164 HD
ATOM    113  HB3 UNL     1       6.386   4.812  -2.531 -0.16 +0.00    +0.162 HD
ATOM    114  HB4 UNL     1      19.432   6.378   2.003+99.99 +0.00    +0.162 HD
ATOM    115  HB5 UNL     1      22.784   5.912   1.239 +0.14 +0.00    +0.164 HD
ATOM    116  HB6 UNL     1      26.447  10.365  -1.676+99.99 +0.00    +0.316 HD
ATOM    117  HB7 UNL     1      26.100   4.760   0.474 +0.09 +0.00    +0.163 HD
ATOM    118  HB8 UNL     1      28.033   4.760  -1.614 +0.15 +0.00    +0.316 HD
ATOM    119  HB9 UNL     1       8.698   0.682   2.907+16.67 +0.00    +0.316 HD
ATOM    120  HC0 UNL     1       3.913   3.582   4.944 +0.12 +0.00    +0.316 HD
ENDROOT
TORSDOF 38
TER
