USER    Run = 1
USER    DPF = ligand_309_receptor.dpf
USER  
USER    Estimated Free Energy of Binding    =  +3.62e+004 kcal/mol  [=(1)+(2)+(3)-(4)]
USER    
USER    (1) Final Intermolecular Energy     =  +3.62e+004 kcal/mol
USER        vdW + Hbond + desolv Energy     =  +3.62e+004 kcal/mol
USER        Electrostatic Energy            =   +0.00 kcal/mol
USER    (2) Final Total Internal Energy     =   +0.00 kcal/mol
USER    (3) Torsional Free Energy           =   +1.19 kcal/mol
USER    (4) Unbound System's Energy  [=(2)] =   +0.00 kcal/mol
USER    
USER    
USER    NEWDPF move ligand_309.pdbqt
USER    NEWDPF about 0.000000 0.000000 0.000000
USER    NEWDPF tran0 17.889445 8.318710 2.229463
USER    NEWDPF quaternion0 -0.089983 -0.648569 -0.743122 -0.137954
USER    NEWDPF axisangle0 -0.090851 -0.654830 -0.750296 -164.141087
USER    NEWDPF quat0 -0.090851 -0.654830 -0.750296 -164.141087
USER  keepresnum = 1 
USER  
REMARK  0 active torsions:
REMARK  status: ('A' for Active; 'I' for Inactive)
REMARK       I    between atoms: C2_2  and  C4_4 
REMARK       I    between atoms: C4_4  and  C5_5 
REMARK       I    between atoms: C4_4  and  N10_95 
REMARK       I    between atoms: C5_5  and  N1_86 
REMARK       I    between atoms: C6_6  and  C7_7 
REMARK       I    between atoms: C6_6  and  C11_11 
REMARK       I    between atoms: C6_6  and  N1_86 
REMARK       I    between atoms: C7_7  and  C8_8 
REMARK       I    between atoms: C8_8  and  C9_9 
REMARK       I    between atoms: C9_9  and  N2_87 
REMARK       I    between atoms: C10_10  and  N2_87 
REMARK       I    between atoms: C10_10  and  N3_88 
REMARK       I    between atoms: C11_11  and  N4_89 
REMARK       I    between atoms: C12_12  and  N4_89 
REMARK       I    between atoms: C15_15  and  C18_18 
REMARK       I    between atoms: C18_18  and  O4_72 
REMARK       I    between atoms: C19_19  and  O4_72 
REMARK       I    between atoms: C19_19  and  N5_90 
REMARK       I    between atoms: C21_21  and  C24_24 
REMARK       I    between atoms: C21_21  and  N5_90 
REMARK       I    between atoms: C24_24  and  N6_91 
REMARK       I    between atoms: C25_25  and  C26_26 
REMARK       I    between atoms: C25_25  and  C29_29 
REMARK       I    between atoms: C25_25  and  N6_91 
REMARK       I    between atoms: C29_29  and  N7_92 
REMARK       I    between atoms: C31_31  and  C32_32 
REMARK       I    between atoms: C31_31  and  C38_38 
REMARK       I    between atoms: C31_31  and  N7_92 
REMARK       I    between atoms: C38_38  and  C39_39 
REMARK       I    between atoms: C38_38  and  O12_80 
REMARK       I    between atoms: C39_39  and  C40_40 
REMARK       I    between atoms: C40_40  and  N8_93 
REMARK       I    between atoms: C44_44  and  C45_45 
REMARK       I    between atoms: C45_45  and  C46_46 
REMARK       I    between atoms: C45_45  and  O11_79 
REMARK       I    between atoms: C46_46  and  C48_48 
REMARK       I    between atoms: C48_48  and  N9_94 
REMARK       I    between atoms: C49_49  and  C51_51 
REMARK       I    between atoms: C49_49  and  N9_94 
REMARK       I    between atoms: C51_51  and  C52_52 
REMARK       I    between atoms: C51_51  and  O10_78 
REMARK       I    between atoms: C60_60  and  O14_82 
REMARK       I    between atoms: C60_60  and  N10_95 
REMARK       I    between atoms: C61_61  and  C62_62 
REMARK       I    between atoms: C61_61  and  O14_82 
REMARK       I    between atoms: C62_62  and  O15_83 
REMARK       I    between atoms: C63_63  and  C64_64 
REMARK       I    between atoms: C63_63  and  O15_83 
REMARK       I    between atoms: C64_64  and  N11_96 
USER                              x       y       z     vdW  Elec       q    Type
USER                           _______ _______ _______ _____ _____    ______ ____
ROOT
ATOM      1  C1  UNL     1      12.235   7.424   4.278 -0.45 +0.00    +0.012 C 
ATOM      2  C2  UNL     1      12.096   8.881   3.829 +0.27 +0.00    +0.009 C 
ATOM      3  C3  UNL     1      13.111   9.752   4.577+99.99 +0.00    +0.012 C 
ATOM      4  C4  UNL     1      12.179   9.095   2.299+99.99 +0.00    +0.182 C 
ATOM      5  C5  UNL     1      13.550   8.703   1.699+99.99 +0.00    +0.241 C 
ATOM      6  C6  UNL     1      14.849   7.001   0.467+99.99 +0.00    +0.177 C 
ATOM      7  C7  UNL     1      14.574   5.710  -0.333+77.48 +0.00    +0.036 C 
ATOM      8  C8  UNL     1      14.748   4.373   0.407+99.99 +0.00    +0.022 C 
ATOM      9  C9  UNL     1      13.705   4.044   1.473+99.99 +0.00    +0.124 C 
ATOM     10  C10 UNL     1      11.394   4.621   0.823+99.99 +0.00    +0.313 C 
ATOM     11  C11 UNL     1      16.206   6.873   1.216+99.99 +0.00    +0.245 C 
ATOM     12  C12 UNL     1      17.043   6.694   3.577 +8.88 +0.00    +0.034 A 
ATOM     13  C13 UNL     1      18.342   6.264   3.313+10.60 +0.00    +0.030 A 
ATOM     14  C14 UNL     1      19.247   6.055   4.361+99.99 +0.00    +0.011 A 
ATOM     15  C15 UNL     1      18.859   6.265   5.691+99.99 -0.00    -0.034 A 
ATOM     16  C16 UNL     1      17.557   6.704   5.951+99.99 +0.00    +0.011 A 
ATOM     17  C17 UNL     1      16.657   6.912   4.904 +5.65 +0.00    +0.030 A 
ATOM     18  C18 UNL     1      19.833   6.059   6.820+12.10 +0.00    +0.219 C 
ATOM     19  C19 UNL     1      20.489   8.202   7.582+56.06 +0.00    +0.363 C 
ATOM     20  C20 UNL     1      22.476   9.150   6.496 +5.11 +0.00    +0.156 C 
ATOM     21  C21 UNL     1      21.423  10.396   8.439 -0.61 +0.00    +0.110 C 
ATOM     22  C22 UNL     1      20.821  10.141   9.839 +3.67 +0.00    +0.049 C 
ATOM     23  C23 UNL     1      22.843  10.965   8.697 +0.29 +0.00    +0.049 C 
ATOM     24  C24 UNL     1      20.583  11.482   7.696 +8.29 +0.00    +0.246 C 
ATOM     25  C25 UNL     1      18.527  11.866   6.404+99.99 +0.00    +0.180 C 
ATOM     26  C26 UNL     1      17.007  11.907   6.678+65.62 +0.00    +0.009 C 
ATOM     27  C27 UNL     1      16.372  10.522   6.851+99.99 +0.00    +0.012 C 
ATOM     28  C28 UNL     1      16.703  12.771   7.905+77.81 +0.00    +0.012 C 
ATOM     29  C29 UNL     1      18.833  11.168   5.051+99.99 +0.00    +0.243 C 
ATOM     30  C30 UNL     1      18.715  13.376   3.897+72.81 +0.00    +0.153 C 
ATOM     31  C31 UNL     1      19.276  11.262   2.631 -0.08 +0.00    +0.120 C 
ATOM     32  C32 UNL     1      18.340  11.557   1.403 -0.67 +0.00    +0.011 C 
ATOM     33  C33 UNL     1      18.912  12.533   0.357 -0.30 +0.00    +0.007 C 
ATOM     34  C34 UNL     1      17.927  12.786  -0.783+99.99 +0.00    +0.000 C 
ATOM     35  C35 UNL     1      17.504  11.483  -1.451+99.99 +0.00    +0.000 C 
ATOM     36  C36 UNL     1      16.920  10.508  -0.437 +2.19 +0.00    +0.000 C 
ATOM     37  C37 UNL     1      17.879  10.249   0.724 -0.55 +0.00    +0.007 C 
ATOM     38  C38 UNL     1      20.814  11.534   2.432 +1.22 +0.00    +0.152 C 
ATOM     39  C39 UNL     1      21.435  10.446   1.544 -0.01 +0.00    +0.137 C 
ATOM     40  C40 UNL     1      22.738  10.883   0.909+17.67 +0.00    +0.222 C 
ATOM     41  C41 UNL     1      25.035  10.313   0.290+99.99 +0.00    +0.126 C 
ATOM     42  C42 UNL     1      25.905   9.211   0.864 +0.43 +0.00    +0.022 C 
ATOM     43  C43 UNL     1      25.051   7.972   0.649 -0.45 +0.00    +0.029 C 
ATOM     44  C44 UNL     1      23.616   8.456   0.929 -0.43 +0.00    +0.117 C 
ATOM     45  C45 UNL     1      22.514   7.679   0.137 +0.81 +0.00    +0.156 C 
ATOM     46  C46 UNL     1      22.052   6.410   0.888+99.99 +0.00    +0.105 C 
ATOM     47  C47 UNL     1      20.884   5.720   0.175+99.99 +0.00    +0.022 C 
ATOM     48  C48 UNL     1      23.179   5.412   1.109 +0.17 +0.00    +0.224 C 
ATOM     49  C49 UNL     1      24.908   4.017  -0.005 -0.42 +0.00    +0.113 C 
ATOM     50  C50 UNL     1      24.536   2.641   0.564+59.57 +0.00    +0.035 C 
ATOM     51  C51 UNL     1      25.521   3.850  -1.428 -0.30 +0.00    +0.173 C 
ATOM     52  C52 UNL     1      26.222   5.104  -1.922 -0.28 -0.00    -0.028 A 
ATOM     53  C53 UNL     1      27.434   5.501  -1.330 -0.28 +0.00    +0.010 A 
ATOM     54  C54 UNL     1      28.092   6.658  -1.752 -0.26 +0.00    +0.001 A 
ATOM     55  C55 UNL     1      27.551   7.435  -2.774+12.49 +0.00    +0.000 A 
ATOM     56  C56 UNL     1      26.356   7.053  -3.377+99.99 +0.00    +0.001 A 
ATOM     57  C57 UNL     1      25.697   5.896  -2.955+15.41 +0.00    +0.010 A 
ATOM     58  C58 UNL     1      22.751   8.340  -2.151+99.99 +0.00    +0.202 C 
ATOM     59  C59 UNL     1      22.501  12.413   3.899+21.56 +0.00    +0.202 C 
ATOM     60  C60 UNL     1      10.534   8.885   0.473+99.99 +0.00    +0.361 C 
ATOM     61  C61 UNL     1       9.055   8.259  -1.265 -0.06 +0.00    +0.207 C 
ATOM     62  C62 UNL     1       7.806   9.095  -0.990+35.52 +0.00    +0.194 C 
ATOM     63  C63 UNL     1       6.909   8.546   1.172 +1.52 +0.00    +0.188 C 
ATOM     64  C64 UNL     1       7.192   7.228   1.903 -0.34 +0.00    +0.162 C 
ATOM     65  C65 UNL     1       4.952   6.159   1.898 -0.07 +0.00    +0.250 A 
ATOM     66  C66 UNL     1       4.347   4.993   1.244 -0.11 +0.00    +0.080 A 
ATOM     67  C67 UNL     1       5.297   4.391   0.528 -0.14 +0.00    +0.080 A 
ATOM     68  C68 UNL     1       6.541   5.150   0.707 -0.08 +0.00    +0.250 A 
ATOM     69  O1  UNL     1      14.510   9.471   1.723+99.99 -0.00    -0.271 OA
ATOM     70  O2  UNL     1      11.425   5.750   1.291 -0.14 -0.00    -0.248 OA
ATOM     71  O3  UNL     1      17.247   6.668   0.595 +8.96 -0.00    -0.271 OA
ATOM     72  O4  UNL     1      20.809   7.104   6.849+99.99 -0.00    -0.299 OA
ATOM     73  O5  UNL     1      19.436   8.321   8.199+99.99 -0.00    -0.238 OA
ATOM     74  O6  UNL     1      21.045  12.581   7.387 +3.03 -0.00    -0.271 OA
ATOM     75  O7  UNL     1      19.087   9.957   5.046+99.99 -0.00    -0.271 OA
ATOM     76  O8  UNL     1      22.929  12.064   0.611+99.99 -0.00    -0.273 OA
ATOM     77  O9  UNL     1      23.558   5.115   2.237+10.31 -0.00    -0.273 OA
ATOM     78  O10 UNL     1      24.518   3.432  -2.366 +9.13 -0.00    -0.389 OA
ATOM     79  O11 UNL     1      22.912   7.298  -1.194 -0.31 -0.00    -0.388 OA
ATOM     80  O12 UNL     1      21.471  11.452   3.719 +5.85 -0.00    -0.388 OA
ATOM     81  O13 UNL     1      10.706   9.995   0.001+99.99 -0.00    -0.238 OA
ATOM     82  O14 UNL     1       9.745   7.924  -0.053 +0.06 -0.00    -0.302 OA
ATOM     83  O15 UNL     1       6.840   8.347  -0.244 -0.34 -0.00    -0.387 OA
ATOM     84  O16 UNL     1       4.345   6.923   2.624 -0.17 -0.00    -0.268 OA
ATOM     85  O17 UNL     1       7.604   4.835   0.200 -0.07 -0.00    -0.268 OA
ATOM     86  N1  UNL     1      13.700   7.385   1.300 +1.81 -0.00    -0.346 N 
ATOM     87  N2  UNL     1      12.417   3.729   0.892+99.99 -0.00    -0.343 N 
ATOM     88  N3  UNL     1      10.331   4.137   0.141 +0.82 -0.00    -0.352 N 
ATOM     89  N4  UNL     1      16.069   6.908   2.589+27.90 -0.00    -0.325 N 
ATOM     90  N5  UNL     1      21.500   9.158   7.586 -0.15 -0.00    -0.315 N 
ATOM     91  N6  UNL     1      19.267  11.143   7.437+16.59 -0.00    -0.345 N 
ATOM     92  N7  UNL     1      18.753  11.921   3.868+17.75 -0.00    -0.347 N 
ATOM     93  N8  UNL     1      23.679   9.908   0.632 -0.01 -0.00    -0.345 N 
ATOM     94  N9  UNL     1      23.727   4.889  -0.043 -0.19 -0.00    -0.354 N 
ATOM     95  N10 UNL     1      11.094   8.403   1.615+30.34 -0.00    -0.323 N 
ATOM     96  N11 UNL     1       6.257   6.183   1.536 -0.14 -0.00    -0.279 N 
ATOM     97  H95 UNL     1      23.664   3.451  -1.899 +1.98 +0.00    +0.210 HD
ATOM     98  H96 UNL     1      12.829   6.878   1.141 +0.00 +0.00    +0.163 HD
ATOM     99  H97 UNL     1      12.360   2.933   0.272 +4.16 +0.00    +0.164 HD
ATOM    100  H98 UNL     1       9.490   4.718   0.150 +0.05 +0.00    +0.160 HD
ATOM    101  H99 UNL     1      10.108   3.159   0.256 -0.43 +0.00    +0.160 HD
ATOM    102  HA0 UNL     1      15.165   7.233   2.907 -0.45 +0.00    +0.169 HD
ATOM    103  HA1 UNL     1      19.068  10.144   7.480 +1.85 +0.00    +0.163 HD
ATOM    104  HA2 UNL     1      23.627   5.500  -0.857 +0.11 +0.00    +0.163 HD
ATOM    105  HA3 UNL     1      10.990   7.393   1.714 +0.09 +0.00    +0.165 HD
ENDROOT
TORSDOF 39
TER
