USER    Run = 1
USER    DPF = ligand_41_receptor.dpf
USER  
USER    Estimated Free Energy of Binding    =  +8.26e+003 kcal/mol  [=(1)+(2)+(3)-(4)]
USER    
USER    (1) Final Intermolecular Energy     =  +8.26e+003 kcal/mol
USER        vdW + Hbond + desolv Energy     =  +8.26e+003 kcal/mol
USER        Electrostatic Energy            =   +0.00 kcal/mol
USER    (2) Final Total Internal Energy     =   +0.00 kcal/mol
USER    (3) Torsional Free Energy           =   +1.19 kcal/mol
USER    (4) Unbound System's Energy  [=(2)] =   +0.00 kcal/mol
USER    
USER    
USER    NEWDPF move ligand_41.pdbqt
USER    NEWDPF about 0.000000 0.000000 0.000000
USER    NEWDPF tran0 12.706862 7.060240 3.146522
USER    NEWDPF quaternion0 -0.108315 -0.658112 0.737671 -0.104870
USER    NEWDPF axisangle0 -0.108916 -0.661761 0.741762 -167.960669
USER    NEWDPF quat0 -0.108916 -0.661761 0.741762 -167.960669
USER  keepresnum = 1 
USER  
REMARK  0 active torsions:
REMARK  status: ('A' for Active; 'I' for Inactive)
REMARK       I    between atoms: C2_2  and  C4_4 
REMARK       I    between atoms: C4_4  and  C5_5 
REMARK       I    between atoms: C5_5  and  C6_6 
REMARK       I    between atoms: C8_8  and  N8_63 
REMARK       I    between atoms: C9_9  and  S1_75 
REMARK       I    between atoms: C10_10  and  N1_54 
REMARK       I    between atoms: C12_12  and  C13_13 
REMARK       I    between atoms: C12_12  and  N1_54 
REMARK       I    between atoms: C12_12  and  N2_55 
REMARK       I    between atoms: C13_13  and  C14_14 
REMARK       I    between atoms: C13_13  and  N6_61 
REMARK       I    between atoms: C14_14  and  C15_15 
REMARK       I    between atoms: C15_15  and  C16_16 
REMARK       I    between atoms: C16_16  and  N3_57 
REMARK       I    between atoms: C17_17  and  N3_57 
REMARK       I    between atoms: C17_17  and  N5_60 
REMARK       I    between atoms: C18_18  and  C19_19 
REMARK       I    between atoms: C18_18  and  S1_75 
REMARK       I    between atoms: C19_19  and  N7_62 
REMARK       I    between atoms: C20_20  and  C21_21 
REMARK       I    between atoms: C20_20  and  N8_63 
REMARK       I    between atoms: C23_23  and  C29_29 
REMARK       I    between atoms: C25_25  and  O3_50 
REMARK       I    between atoms: C27_27  and  C28_28 
REMARK       I    between atoms: C27_27  and  O3_50 
REMARK       I    between atoms: C28_28  and  N9_64 
REMARK       I    between atoms: C29_29  and  N10_65 
REMARK       I    between atoms: C30_30  and  N10_65 
REMARK       I    between atoms: C31_31  and  S2_76 
REMARK       I    between atoms: C32_32  and  N11_66 
REMARK       I    between atoms: C34_34  and  C36_36 
REMARK       I    between atoms: C36_36  and  O6_53 
REMARK       I    between atoms: C37_37  and  O6_53 
REMARK       I    between atoms: C40_40  and  C41_41 
REMARK       I    between atoms: C40_40  and  N11_66 
REMARK       I    between atoms: C41_41  and  C42_42 
REMARK       I    between atoms: C41_41  and  N16_73 
REMARK       I    between atoms: C42_42  and  C43_43 
REMARK       I    between atoms: C43_43  and  C44_44 
REMARK       I    between atoms: C44_44  and  N13_69 
REMARK       I    between atoms: C45_45  and  N13_69 
REMARK       I    between atoms: C45_45  and  N15_72 
REMARK       I    between atoms: C46_46  and  C47_47 
REMARK       I    between atoms: C46_46  and  S2_76 
REMARK       I    between atoms: C47_47  and  N17_74 
USER                              x       y       z     vdW  Elec       q    Type
USER                           _______ _______ _______ _____ _____    ______ ____
ROOT
ATOM      1  C1  UNL     1      23.146   7.617   7.328+81.82 +0.00    +0.010 C 
ATOM      2  C2  UNL     1      22.117   8.310   8.220 +2.42 -0.00    -0.015 C 
ATOM      3  C3  UNL     1      22.655   9.634   8.762+10.84 +0.00    +0.010 C 
ATOM      4  C4  UNL     1      20.744   8.453   7.538+10.13 +0.00    +0.087 C 
ATOM      5  C5  UNL     1      20.714   9.235   6.230+51.87 +0.00    +0.160 C 
ATOM      6  C6  UNL     1      19.527   9.076   5.335+63.48 +0.00    +0.014 A 
ATOM      7  C7  UNL     1      18.301   8.604   5.820+99.99 +0.00    +0.046 A 
ATOM      8  C8  UNL     1      17.204   8.465   4.965 +1.94 +0.00    +0.055 A 
ATOM      9  C9  UNL     1      17.340   8.838   3.606 -0.50 +0.00    +0.054 A 
ATOM     10  C10 UNL     1      18.570   9.339   3.109 -0.41 +0.00    +0.053 A 
ATOM     11  C11 UNL     1      19.655   9.430   3.986 +8.66 +0.00    +0.046 A 
ATOM     12  C12 UNL     1      19.745   9.524   0.900 +1.53 +0.00    +0.108 C 
ATOM     13  C13 UNL     1      19.568   9.904  -0.604 +9.76 +0.00    +0.284 C 
ATOM     14  C14 UNL     1      18.127   9.789  -1.116 +3.53 +0.00    +0.045 C 
ATOM     15  C15 UNL     1      18.048   9.801  -2.647+99.99 +0.00    +0.022 C 
ATOM     16  C16 UNL     1      16.615   9.886  -3.178+80.39 +0.00    +0.122 C 
ATOM     17  C17 UNL     1      15.849   7.536  -2.868+99.99 +0.00    +0.143 C 
ATOM     18  C18 UNL     1      16.242   7.084   1.735+97.89 +0.00    +0.109 C 
ATOM     19  C19 UNL     1      16.019   5.895   2.682+99.99 +0.00    +0.277 C 
ATOM     20  C20 UNL     1      15.608   7.484   6.647+99.99 +0.00    +0.256 C 
ATOM     21  C21 UNL     1      14.201   7.002   6.787 -0.01 +0.00    +0.035 A 
ATOM     22  C22 UNL     1      13.154   7.523   6.019 -0.40 +0.00    +0.034 A 
ATOM     23  C23 UNL     1      11.859   7.017   6.171 -0.35 +0.00    +0.035 A 
ATOM     24  C24 UNL     1      11.608   6.027   7.129 -0.30 +0.00    +0.053 A 
ATOM     25  C25 UNL     1      12.645   5.518   7.915 -0.46 +0.00    +0.070 A 
ATOM     26  C26 UNL     1      13.938   6.005   7.741 -0.57 +0.00    +0.053 A 
ATOM     27  C27 UNL     1      13.212   3.997   9.697+61.70 +0.00    +0.205 C 
ATOM     28  C28 UNL     1      14.006   2.840   9.067+65.61 +0.00    +0.293 C 
ATOM     29  C29 UNL     1      10.774   7.577   5.313 -0.23 +0.00    +0.256 C 
ATOM     30  C30 UNL     1       8.597   6.938   4.222 +0.30 +0.00    +0.055 A 
ATOM     31  C31 UNL     1       7.741   5.842   3.946 -0.19 +0.00    +0.054 A 
ATOM     32  C32 UNL     1       6.583   6.007   3.143 -0.18 +0.00    +0.053 A 
ATOM     33  C33 UNL     1       6.282   7.290   2.672 +0.20 +0.00    +0.048 A 
ATOM     34  C34 UNL     1       7.108   8.385   2.964 +4.69 +0.00    +0.043 A 
ATOM     35  C35 UNL     1       8.262   8.203   3.736 +4.39 +0.00    +0.048 A 
ATOM     36  C36 UNL     1       6.725   9.713   2.410+99.99 +0.00    +0.293 C 
ATOM     37  C37 UNL     1       7.253  12.028   2.455+99.99 +0.00    +0.124 C 
ATOM     38  C38 UNL     1       7.958  12.265   1.125+99.99 +0.00    +0.040 C 
ATOM     39  C39 UNL     1       7.782  12.977   3.523+99.99 +0.00    +0.040 C 
ATOM     40  C40 UNL     1       4.535   4.843   2.254 -0.15 +0.00    +0.108 C 
ATOM     41  C41 UNL     1       4.293   3.617   1.339 -0.06 +0.00    +0.284 C 
ATOM     42  C42 UNL     1       3.810   3.990  -0.069 -0.13 +0.00    +0.044 C 
ATOM     43  C43 UNL     1       4.524   5.135  -0.805 -0.07 +0.00    +0.017 C 
ATOM     44  C44 UNL     1       6.048   5.094  -0.909 +1.15 +0.00    +0.095 C 
ATOM     45  C45 UNL     1       6.407   3.297  -2.543 -0.11 +0.00    +0.122 C 
ATOM     46  C46 UNL     1       6.901   4.040   5.908 -0.31 +0.00    +0.109 C 
ATOM     47  C47 UNL     1       7.212   4.920   7.125 -0.34 +0.00    +0.277 C 
ATOM     48  O1  UNL     1      21.612   9.999   5.886+30.10 -0.00    -0.292 OA
ATOM     49  O2  UNL     1      16.346   7.400   7.622+99.99 -0.00    -0.267 OA
ATOM     50  O3  UNL     1      12.251   4.555   8.799 -0.29 -0.00    -0.349 OA
ATOM     51  O4  UNL     1      10.881   8.734   4.927 -0.22 -0.00    -0.267 OA
ATOM     52  O5  UNL     1       5.806   9.868   1.622+99.99 -0.00    -0.259 OA
ATOM     53  O6  UNL     1       7.521  10.687   2.909+99.99 -0.00    -0.313 OA
ATOM     54  N1  UNL     1      18.671   9.691   1.743 -0.15 -0.00    -0.343 N 
ATOM     55  N2  UNL     1      20.911   9.100   1.281 +1.72 -0.00    -0.387 N 
ATOM     56  H2  UNL     1      21.144   8.832   2.237 +0.11 +0.00    +0.157 HD
ATOM     57  N3  UNL     1      15.749   8.858  -2.632+99.99 -0.00    -0.367 N 
ATOM     58  N4  UNL     1      16.558   6.926  -3.740 +0.30 -0.00    -0.376 N 
ATOM     59  H4  UNL     1      16.597   5.914  -3.865 -0.25 +0.00    +0.158 HD
ATOM     60  N5  UNL     1      15.051   6.820  -2.051 +7.09 -0.00    -0.274 NA
ATOM     61  N6  UNL     1      20.074  11.276  -0.774 +1.27 +0.00    +0.090 N 
ATOM     62  N7  UNL     1      14.708   5.903   3.342+24.90 +0.00    +0.079 N 
ATOM     63  N8  UNL     1      15.955   7.951   5.396 +4.24 -0.00    -0.322 N 
ATOM     64  N9  UNL     1      13.165   1.694   8.708+15.64 +0.00    +0.080 N 
ATOM     65  N10 UNL     1       9.761   6.694   4.994 -0.05 -0.00    -0.322 N 
ATOM     66  N11 UNL     1       5.755   4.893   2.880 -0.03 -0.00    -0.343 N 
ATOM     67  N12 UNL     1       3.567   5.684   2.426 -0.04 -0.00    -0.387 N 
ATOM     68  H12 UNL     1       2.666   5.659   1.948 +0.07 +0.00    +0.157 HD
ATOM     69  N13 UNL     1       6.584   3.788  -1.290 -0.04 -0.00    -0.270 NA
ATOM     70  N14 UNL     1       5.641   3.794  -3.438 +0.04 -0.00    -0.381 N 
ATOM     71  H14 UNL     1       5.049   4.615  -3.309 +0.04 +0.00    +0.158 HD
ATOM     72  N15 UNL     1       7.156   2.194  -2.738 -0.07 -0.00    -0.279 NA
ATOM     73  N16 UNL     1       5.524   2.781   1.313 -0.09 +0.00    +0.090 N 
ATOM     74  N17 UNL     1       6.241   4.739   8.204 +4.83 +0.00    +0.079 N 
ATOM     75  S1  UNL     1      15.920   8.727   2.483 -0.59 -0.00    -0.124 SA
ATOM     76  S2  UNL     1       8.169   4.202   4.595 -0.35 -0.00    -0.124 SA
ATOM     77  H50 UNL     1      17.755   9.839   1.333 +0.14 +0.00    +0.167 HD
ATOM     78  H51 UNL     1      21.566   9.069   0.493 +0.11 +0.00    +0.157 HD
ATOM     79  H52 UNL     1      15.392   9.075  -1.709 +1.42 +0.00    +0.162 HD
ATOM     80  H53 UNL     1      17.079   7.609  -4.292 -0.09 +0.00    +0.158 HD
ATOM     81  H54 UNL     1      14.099   7.165  -2.066 +1.19 +0.00    +0.127 HD
ATOM     82  H55 UNL     1      15.063   5.855  -2.370+22.31 +0.00    +0.127 HD
ATOM     83  H56 UNL     1      21.032  11.315  -0.416 +0.28 +0.00    +0.313 HD
ATOM     84  H57 UNL     1      19.552  11.903  -0.161 +0.28 +0.00    +0.313 HD
ATOM     85  H58 UNL     1      14.592   5.023   3.847+13.37 +0.00    +0.312 HD
ATOM     86  H59 UNL     1      13.976   5.910   2.628 -0.16 +0.00    +0.312 HD
ATOM     87  H60 UNL     1      15.288   7.805   4.637 +0.11 +0.00    +0.169 HD
ATOM     88  H61 UNL     1      13.757   0.917   8.416 +1.88 +0.00    +0.312 HD
ATOM     89  H62 UNL     1      12.647   1.374   9.525 +0.38 +0.00    +0.312 HD
ATOM     90  H63 UNL     1       9.878   5.722   5.261 +0.11 +0.00    +0.169 HD
ATOM     91  H64 UNL     1       6.296   4.035   2.715 +0.07 +0.00    +0.167 HD
ATOM     92  H65 UNL     1       3.853   6.379   3.121 +0.03 +0.00    +0.157 HD
ATOM     93  H66 UNL     1       7.566   3.720  -1.038 +0.04 +0.00    +0.130 HD
ATOM     94  H67 UNL     1       5.707   3.252  -4.301 +0.03 +0.00    +0.158 HD
ATOM     95  H68 UNL     1       6.904   1.657  -3.559 +0.02 +0.00    +0.126 HD
ATOM     96  H69 UNL     1       7.201   1.597  -1.921 +0.04 +0.00    +0.126 HD
ATOM     97  H70 UNL     1       6.018   3.013   0.440 +0.10 +0.00    +0.313 HD
ATOM     98  H71 UNL     1       5.219   1.819   1.142 +0.10 +0.00    +0.313 HD
ATOM     99  H72 UNL     1       6.215   3.762   8.493 +1.58 +0.00    +0.312 HD
ATOM    100  H73 UNL     1       5.303   4.963   7.872 +0.17 +0.00    +0.312 HD
ENDROOT
TORSDOF 39
TER
