USER    Run = 1
USER    DPF = ligand_86_receptor.dpf
USER  
USER    Estimated Free Energy of Binding    =  +1.21e+006 kcal/mol  [=(1)+(2)+(3)-(4)]
USER    
USER    (1) Final Intermolecular Energy     =  +1.21e+006 kcal/mol
USER        vdW + Hbond + desolv Energy     =  +8.35e+005 kcal/mol
USER        Electrostatic Energy            =  +3.77e+005 kcal/mol
USER    (2) Final Total Internal Energy     =   +0.00 kcal/mol
USER    (3) Torsional Free Energy           =   +1.19 kcal/mol
USER    (4) Unbound System's Energy  [=(2)] =   +0.00 kcal/mol
USER    
USER    
USER    NEWDPF move ligand_86.pdbqt
USER    NEWDPF about 0.000000 0.000000 0.000000
USER    NEWDPF tran0 15.657796 7.155083 4.137604
USER    NEWDPF quaternion0 0.549881 0.191073 -0.013140 -0.812988
USER    NEWDPF axisangle0 0.944357 0.328147 -0.022566 -71.222241
USER    NEWDPF quat0 0.944357 0.328147 -0.022566 -71.222241
USER  keepresnum = 1 
USER  
REMARK  0 active torsions:
REMARK  status: ('A' for Active; 'I' for Inactive)
REMARK       I    between atoms: C2_2  and  C3_3 
REMARK       I    between atoms: C2_2  and  O15_77 
REMARK       I    between atoms: C3_3  and  C4_4 
REMARK       I    between atoms: C3_3  and  N5_82 
REMARK       I    between atoms: C4_4  and  N1_78 
REMARK       I    between atoms: C5_5  and  C6_6 
REMARK       I    between atoms: C5_5  and  N1_78 
REMARK       I    between atoms: C6_6  and  N2_79 
REMARK       I    between atoms: C7_7  and  C8_8 
REMARK       I    between atoms: C7_7  and  C11_11 
REMARK       I    between atoms: C7_7  and  N2_79 
REMARK       I    between atoms: C11_11  and  N3_80 
REMARK       I    between atoms: C12_12  and  C13_13 
REMARK       I    between atoms: C12_12  and  C17_17 
REMARK       I    between atoms: C12_12  and  N3_80 
REMARK       I    between atoms: C13_13  and  C14_14 
REMARK       I    between atoms: C17_17  and  N4_81 
REMARK       I    between atoms: C18_18  and  C19_19 
REMARK       I    between atoms: C18_18  and  C22_22 
REMARK       I    between atoms: C18_18  and  N4_81 
REMARK       I    between atoms: C22_22  and  O6_68 
REMARK       I    between atoms: C23_23  and  C24_24 
REMARK       I    between atoms: C23_23  and  N5_82 
REMARK       I    between atoms: C24_24  and  N6_83 
REMARK       I    between atoms: C26_26  and  C27_27 
REMARK       I    between atoms: C26_26  and  N6_83 
REMARK       I    between atoms: C27_27  and  N7_84 
REMARK       I    between atoms: C29_29  and  C30_30 
REMARK       I    between atoms: C29_29  and  N7_84 
REMARK       I    between atoms: C30_30  and  C31_31 
REMARK       I    between atoms: C30_30  and  N8_85 
REMARK       I    between atoms: C34_34  and  C35_35 
REMARK       I    between atoms: C34_34  and  N8_85 
REMARK       I    between atoms: C35_35  and  C36_36 
REMARK       I    between atoms: C35_35  and  N9_86 
REMARK       I    between atoms: C39_39  and  C40_40 
REMARK       I    between atoms: C39_39  and  N9_86 
REMARK       I    between atoms: C40_40  and  C41_41 
REMARK       I    between atoms: C40_40  and  N11_88 
REMARK       I    between atoms: C41_41  and  C42_42 
REMARK       I    between atoms: C42_42  and  C43_43 
REMARK       I    between atoms: C43_43  and  C44_44 
REMARK       I    between atoms: C44_44  and  N10_87 
REMARK       I    between atoms: C45_45  and  C46_46 
REMARK       I    between atoms: C45_45  and  N11_88 
REMARK       I    between atoms: C46_46  and  C47_47 
REMARK       I    between atoms: C46_46  and  N13_90 
REMARK       I    between atoms: C47_47  and  C48_48 
REMARK       I    between atoms: C48_48  and  C49_49 
REMARK       I    between atoms: C49_49  and  C50_50 
REMARK       I    between atoms: C50_50  and  N12_89 
REMARK       I    between atoms: C51_51  and  C52_52 
REMARK       I    between atoms: C51_51  and  N13_90 
REMARK       I    between atoms: C52_52  and  C53_53 
REMARK       I    between atoms: C52_52  and  N15_92 
REMARK       I    between atoms: C53_53  and  C54_54 
REMARK       I    between atoms: C54_54  and  C55_55 
REMARK       I    between atoms: C55_55  and  C56_56 
REMARK       I    between atoms: C56_56  and  N14_91 
REMARK       I    between atoms: C57_57  and  C58_58 
REMARK       I    between atoms: C57_57  and  N15_92 
REMARK       I    between atoms: C58_58  and  C59_59 
REMARK       I    between atoms: C58_58  and  N17_94 
REMARK       I    between atoms: C59_59  and  C60_60 
REMARK       I    between atoms: C60_60  and  C61_61 
REMARK       I    between atoms: C61_61  and  C62_62 
REMARK       I    between atoms: C62_62  and  N16_93 
USER                              x       y       z     vdW  Elec       q    Type
USER                           _______ _______ _______ _____ _____    ______ ____
ROOT
ATOM      1  C1  UNL     1      20.995   9.797   1.852 -0.44 +0.00    +0.042 C 
ATOM      2  C2  UNL     1      19.841   8.815   2.005 +7.68 +0.00    +0.146 C 
ATOM      3  C3  UNL     1      20.212   7.341   2.318+99.99 +0.00    +0.205 C 
ATOM      4  C4  UNL     1      21.685   6.984   2.014+99.99 +0.00    +0.243 C 
ATOM      5  C5  UNL     1      23.976   6.729   2.947+99.99 +0.00    +0.225 C 
ATOM      6  C6  UNL     1      24.885   7.817   2.362 -0.29 +0.00    +0.236 C 
ATOM      7  C7  UNL     1      25.171   9.317   0.382 +5.38 +0.00    +0.180 C 
ATOM      8  C8  UNL     1      25.545  10.703   0.969+25.65 +0.00    +0.009 C 
ATOM      9  C9  UNL     1      24.312  11.436   1.509+87.40 +0.00    +0.012 C 
ATOM     10  C10 UNL     1      26.649  10.711   2.025+66.13 +0.00    +0.012 C 
ATOM     11  C11 UNL     1      26.295   8.492  -0.312 +0.98 +0.00    +0.241 C 
ATOM     12  C12 UNL     1      28.433   8.560  -1.551 +8.38 +0.00    +0.177 C 
ATOM     13  C13 UNL     1      28.136   7.949  -2.932 +9.44 +0.00    +0.038 C 
ATOM     14  C14 UNL     1      27.243   8.775  -3.885+99.99 -0.00    -0.020 C 
ATOM     15  C15 UNL     1      27.873  10.101  -4.301+99.99 +0.00    +0.009 C 
ATOM     16  C16 UNL     1      26.927   7.947  -5.136+99.99+99.99    +0.009 C 
ATOM     17  C17 UNL     1      29.620   9.551  -1.533+26.78 +0.00    +0.241 C 
ATOM     18  C18 UNL     1      32.107   9.695  -1.600 -0.17 +0.00    +0.185 C 
ATOM     19  C19 UNL     1      32.257  11.106  -2.223+13.62 +0.00    +0.010 C 
ATOM     20  C20 UNL     1      33.721  11.577  -2.213+99.99+99.99    +0.012 C 
ATOM     21  C21 UNL     1      31.765  11.150  -3.676+99.99 +0.00    +0.012 C 
ATOM     22  C22 UNL     1      32.373   9.656  -0.076 -0.18 +0.00    +0.163 C 
ATOM     23  C23 UNL     1      20.083   7.496   4.832+96.18 +0.00    +0.240 C 
ATOM     24  C24 UNL     1      19.539   6.787   6.085+61.49 +0.00    +0.172 C 
ATOM     25  C25 UNL     1      20.548   5.717   6.497+52.76 +0.00    +0.042 C 
ATOM     26  C26 UNL     1      17.416   5.738   6.801+99.99 +0.00    +0.240 C 
ATOM     27  C27 UNL     1      15.996   5.325   6.353+99.99 +0.00    +0.172 C 
ATOM     28  C28 UNL     1      16.002   3.818   6.107+99.99 +0.00    +0.042 C 
ATOM     29  C29 UNL     1      15.158   7.350   5.241 +0.13 +0.00    +0.241 C 
ATOM     30  C30 UNL     1      14.329   7.886   4.050 -0.42 +0.00    +0.180 C 
ATOM     31  C31 UNL     1      15.196   8.452   2.905 -0.45 +0.00    +0.009 C 
ATOM     32  C32 UNL     1      15.934   7.343   2.150+40.53 +0.00    +0.012 C 
ATOM     33  C33 UNL     1      16.192   9.525   3.357 -0.52 +0.00    +0.012 C 
ATOM     34  C34 UNL     1      12.238   8.504   5.185 +0.22 +0.00    +0.241 C 
ATOM     35  C35 UNL     1      11.481   9.637   5.915+99.99 +0.00    +0.180 C 
ATOM     36  C36 UNL     1      12.147   9.987   7.263+10.19 +0.00    +0.009 C 
ATOM     37  C37 UNL     1      11.500  11.230   7.881+99.99 +0.00    +0.012 C 
ATOM     38  C38 UNL     1      12.119   8.831   8.268 +1.34 +0.00    +0.012 C 
ATOM     39  C39 UNL     1       9.071   9.799   5.376+79.14 +0.00    +0.241 C 
ATOM     40  C40 UNL     1       7.751   8.994   5.405+99.99 +0.00    +0.176 C 
ATOM     41  C41 UNL     1       6.929   9.344   6.654+99.99 +0.00    +0.035 C 
ATOM     42  C42 UNL     1       6.411  10.783   6.642+99.99 +0.00    +0.004 C 
ATOM     43  C43 UNL     1       5.361  11.089   7.718+17.27 +0.00    +0.030 C 
ATOM     44  C44 UNL     1       5.858  10.992   9.161+30.20 +0.00    +0.267 C 
ATOM     45  C45 UNL     1       8.445   6.900   4.264 +0.52 +0.00    +0.241 C 
ATOM     46  C46 UNL     1       8.657   5.372   4.458 -0.19 +0.00    +0.176 C 
ATOM     47  C47 UNL     1       8.572   4.603   3.128 -0.23 +0.00    +0.035 C 
ATOM     48  C48 UNL     1       9.327   3.267   3.116 -0.17 +0.00    +0.004 C 
ATOM     49  C49 UNL     1       8.667   2.105   3.859+35.39 +0.00    +0.030 C 
ATOM     50  C50 UNL     1       7.347   1.657   3.231 +0.65 +0.00    +0.267 C 
ATOM     51  C51 UNL     1       6.446   4.747   5.452 -0.23 +0.00    +0.241 C 
ATOM     52  C52 UNL     1       5.741   4.233   6.729 -0.38 +0.00    +0.176 C 
ATOM     53  C53 UNL     1       5.265   5.455   7.526 -0.02 +0.00    +0.035 C 
ATOM     54  C54 UNL     1       4.317   5.083   8.671+99.99 +0.00    +0.004 C 
ATOM     55  C55 UNL     1       3.986   6.272   9.579+99.99 +0.00    +0.030 C 
ATOM     56  C56 UNL     1       3.193   7.374   8.877+69.53 +0.00    +0.267 C 
ATOM     57  C57 UNL     1       6.766   2.058   7.349+99.99 +0.00    +0.251 C 
ATOM     58  C58 UNL     1       7.868   1.421   8.216+99.99 +0.00    +0.308 C 
ATOM     59  C59 UNL     1       7.530   1.431   9.715+17.16 +0.00    +0.045 C 
ATOM     60  C60 UNL     1       6.409   0.463  10.121+99.99 +0.00    +0.004 C 
ATOM     61  C61 UNL     1       4.999   1.024   9.921+99.99 +0.00    +0.030 C 
ATOM     62  C62 UNL     1       3.942   0.070  10.481+87.15 +0.00    +0.267 C 
ATOM     63  O1  UNL     1      22.063   6.741   0.868+33.80 -0.00    -0.271 OA
ATOM     64  O2  UNL     1      26.023   7.992   2.788 -0.39 -0.00    -0.272 OA
ATOM     65  O3  UNL     1      26.248   7.263  -0.397 -0.25 -0.00    -0.271 OA
ATOM     66  O4  UNL     1      29.481  10.719  -1.172+99.99 -0.00    -0.271 OA
ATOM     67  O5  UNL     1      33.211  10.286   0.546+99.99+99.99    -0.648 OA
ATOM     68  O6  UNL     1      31.637   8.720   0.574 +0.07 -0.00    -0.775 OA
ATOM     69  O7  UNL     1      20.877   8.432   4.877+48.69 -0.00    -0.271 OA
ATOM     70  O8  UNL     1      17.830   5.514   7.936+99.99 -0.00    -0.271 OA
ATOM     71  O9  UNL     1      15.508   8.062   6.179+96.19 -0.00    -0.271 OA
ATOM     72  O10 UNL     1      11.846   7.334   5.186 -0.22 -0.00    -0.271 OA
ATOM     73  O11 UNL     1       9.154  10.932   4.910+99.99 -0.00    -0.271 OA
ATOM     74  O12 UNL     1       8.739   7.503   3.237 -0.28 -0.00    -0.271 OA
ATOM     75  O13 UNL     1       5.816   5.219   4.509 -0.13 -0.00    -0.271 OA
ATOM     76  O14 UNL     1       6.090   1.419   6.551+99.99 -0.00    -0.271 OA
ATOM     77  O15 UNL     1      19.054   8.861   0.803 +5.83 -0.00    -0.393 OA
ATOM     78  N1  UNL     1      22.569   7.089   3.057+17.88 -0.00    -0.350 N 
ATOM     79  N2  UNL     1      24.372   8.449   1.249 -0.15 -0.00    -0.346 N 
ATOM     80  N3  UNL     1      27.279   9.213  -0.945+29.90 -0.00    -0.346 N 
ATOM     81  N4  UNL     1      30.838   9.003  -1.893 -0.12 -0.00    -0.345 N 
ATOM     82  N5  UNL     1      19.757   6.884   3.641 +5.22 -0.00    -0.344 N 
ATOM     83  N6  UNL     1      18.222   6.219   5.785+99.99 -0.00    -0.346 N 
ATOM     84  N7  UNL     1      15.529   6.021   5.143+12.73 -0.00    -0.346 N 
ATOM     85  N8  UNL     1      13.418   8.893   4.582 +0.18 -0.00    -0.346 N 
ATOM     86  N9  UNL     1      10.102   9.196   6.073 +2.34 -0.00    -0.346 N 
ATOM     87  N10 UNL     1       5.933   9.613   9.632 +1.92 +0.00    +0.078 N 
ATOM     88  N11 UNL     1       8.073   7.559   5.426+99.99 -0.00    -0.346 N 
ATOM     89  N12 UNL     1       6.856   0.466   3.915 +2.08 +0.00    +0.078 N 
ATOM     90  N13 UNL     1       7.822   4.840   5.544 -0.12 -0.00    -0.346 N 
ATOM     91  N14 UNL     1       2.964   8.487   9.798+20.63 +0.00    +0.078 N 
ATOM     92  N15 UNL     1       6.632   3.415   7.545 +0.19 -0.00    -0.346 N 
ATOM     93  N16 UNL     1       2.599   0.599  10.275 +3.95 +0.00    +0.078 N 
ATOM     94  N17 UNL     1       9.112   2.209   7.989 +0.27 +0.00    +0.092 N 
ATOM     95  H94 UNL     1      31.903   8.825   1.512 +0.06 +0.00    +0.167 HD
ATOM     96  H95 UNL     1      19.645   8.675   0.050 +1.31 +0.00    +0.210 HD
ATOM     97  H96 UNL     1      22.291   7.660   3.855 +0.74 +0.00    +0.163 HD
ATOM     98  H97 UNL     1      23.662   7.896   0.770 +0.13 +0.00    +0.163 HD
ATOM     99  H98 UNL     1      27.419  10.193  -0.721+41.96 +0.00    +0.163 HD
ATOM    100  H99 UNL     1      30.888   7.995  -1.804 +0.06 +0.00    +0.163 HD
ATOM    101  HA0 UNL     1      19.342   5.960   3.701 +0.44 +0.00    +0.163 HD
ATOM    102  HA1 UNL     1      17.686   6.684   5.059 +2.70 +0.00    +0.163 HD
ATOM    103  HA2 UNL     1      14.931   5.470   4.536 +3.89 +0.00    +0.163 HD
ATOM    104  HA3 UNL     1      13.839   9.747   4.929 +0.23 +0.00    +0.163 HD
ATOM    105  HA4 UNL     1       9.978   8.195   6.193 +0.19 +0.00    +0.163 HD
ATOM    106  HA5 UNL     1       6.229   9.616  10.608 +0.41 +0.00    +0.312 HD
ATOM    107  HA6 UNL     1       4.977   9.228   9.660 +0.99 +0.00    +0.312 HD
ATOM    108  HA7 UNL     1       7.600   6.979   6.106 +3.48 +0.00    +0.163 HD
ATOM    109  HA8 UNL     1       5.993   0.161   3.466 +0.17 +0.00    +0.312 HD
ATOM    110  HA9 UNL     1       6.561   0.726   4.867 +3.55 +0.00    +0.312 HD
ATOM    111  HB0 UNL     1       8.268   4.218   6.208 +0.09 +0.00    +0.163 HD
ATOM    112  HB1 UNL     1       2.375   9.180   9.334 +0.13 +0.00    +0.312 HD
ATOM    113  HB2 UNL     1       2.420   8.157  10.596 +0.65 +0.00    +0.312 HD
ATOM    114  HB3 UNL     1       7.378   3.855   8.079 +0.09 +0.00    +0.163 HD
ATOM    115  HB4 UNL     1       2.525   1.526  10.690+99.99 +0.00    +0.312 HD
ATOM    116  HB5 UNL     1       2.432   0.723   9.276 -0.04 +0.00    +0.312 HD
ATOM    117  HB6 UNL     1       9.454   1.968   7.055 +0.85 +0.00    +0.313 HD
ATOM    118  HB7 UNL     1       9.834   1.852   8.620 +0.31 +0.00    +0.313 HD
ENDROOT
TORSDOF 55
TER
