USER    Run = 1
USER    DPF = ligand_341_receptor.dpf
USER  
USER    Estimated Free Energy of Binding    =  -13.99 kcal/mol  [=(1)+(2)+(3)-(4)]
USER    Estimated Inhibition Constant, Ki   =   55.17 pM (picomolar)  [Temperature = 298.15 K]
USER    
USER    (1) Final Intermolecular Energy     =  -15.19 kcal/mol
USER        vdW + Hbond + desolv Energy     =  -15.19 kcal/mol
USER        Electrostatic Energy            =   +0.00 kcal/mol
USER    (2) Final Total Internal Energy     =   -3.04 kcal/mol
USER    (3) Torsional Free Energy           =   +1.19 kcal/mol
USER    (4) Unbound System's Energy  [=(2)] =   -3.04 kcal/mol
USER    
USER    
USER    NEWDPF move ligand_341.pdbqt
USER    NEWDPF about 0.000000 0.000000 0.000000
USER    NEWDPF tran0 18.881390 6.133486 4.172405
USER    NEWDPF quaternion0 0.982617 0.185443 -0.006506 -0.005721
USER    NEWDPF axisangle0 0.982633 0.185446 -0.006506 -179.344418
USER    NEWDPF quat0 0.982633 0.185446 -0.006506 -179.344418
USER    NEWDPF dihe0 180.00 125.38 -142.00 70.03 -179.49 -178.87 -77.90 70.03 -76.79 -175.71 7.75 40.23 -35.22 -180.00 -56.74 -51.38 85.07 48.99 64.72 -33.06 
USER  keepresnum = 1 
USER  
REMARK  20 active torsions:
REMARK  status: ('A' for Active; 'I' for Inactive)
REMARK    1  A    between atoms: C3_3  and  C21_21 
REMARK    2  A    between atoms: C5_5  and  C7_7 
REMARK       I    between atoms: C7_7  and  N1_41 
REMARK    3  A    between atoms: C8_8  and  N1_41 
REMARK    4  A    between atoms: C11_11  and  C14_14 
REMARK       I    between atoms: C14_14  and  N2_42 
REMARK    5  A    between atoms: C15_15  and  C16_16 
REMARK    6  A    between atoms: C15_15  and  N2_42 
REMARK    7  A    between atoms: C16_16  and  C17_17 
REMARK    8  A    between atoms: C17_17  and  C18_18 
REMARK    9  A    between atoms: C18_18  and  C19_19 
REMARK   10  A    between atoms: C19_19  and  C20_20 
REMARK   11  A    between atoms: C20_20  and  O3_37 
REMARK       I    between atoms: C21_21  and  N3_43 
REMARK   12  A    between atoms: C22_22  and  N3_43 
REMARK   13  A    between atoms: C25_25  and  C28_28 
REMARK       I    between atoms: C28_28  and  N4_44 
REMARK   14  A    between atoms: C29_29  and  C30_30 
REMARK   15  A    between atoms: C29_29  and  N4_44 
REMARK   16  A    between atoms: C30_30  and  C31_31 
REMARK   17  A    between atoms: C31_31  and  C32_32 
REMARK   18  A    between atoms: C32_32  and  C33_33 
REMARK   19  A    between atoms: C33_33  and  C34_34 
REMARK   20  A    between atoms: C34_34  and  O6_40 
USER                              x       y       z     vdW  Elec       q    Type
USER                           _______ _______ _______ _____ _____    ______ ____
ROOT
ATOM      1  C1  UNL     1      16.555  11.642   1.771 -0.53 +0.00    +0.002 A 
ATOM      2  C2  UNL     1      17.944  11.627   1.628 -0.58 +0.00    +0.017 A 
ATOM      3  C3  UNL     1      18.703  10.586   2.181 -0.44 +0.00    +0.033 A 
ATOM      4  C4  UNL     1      18.058   9.538   2.847 -0.45 +0.00    +0.034 A 
ATOM      5  C5  UNL     1      16.663   9.547   2.977 -0.47 +0.00    +0.033 A 
ATOM      6  C6  UNL     1      15.913  10.608   2.453 -0.42 +0.00    +0.017 A 
ENDROOT
BRANCH   3   7
ATOM      7  C21 UNL     1      20.185  10.621   2.014 -0.34 +0.00    +0.256 C 
ATOM      8  O4  UNL     1      20.733  11.716   1.999 +0.00 -0.00    -0.267 OA
ATOM      9  N3  UNL     1      20.796   9.384   1.929 -0.03 -0.00    -0.323 N 
ATOM     10  H41 UNL     1      20.216   8.568   2.080 +0.20 +0.00    +0.169 HD
BRANCH   9  11
ATOM     11  C22 UNL     1      22.168   9.121   1.731 -0.35 +0.00    +0.035 A 
ATOM     12  C23 UNL     1      22.578   8.822   0.424 -0.40 +0.00    +0.030 A 
ATOM     13  C24 UNL     1      23.921   8.551   0.137 -0.43 +0.00    +0.019 A 
ATOM     14  C25 UNL     1      24.873   8.579   1.160 -0.40 +0.00    +0.032 A 
ATOM     15  C26 UNL     1      24.472   8.900   2.460 -0.50 +0.00    +0.019 A 
ATOM     16  C27 UNL     1      23.126   9.162   2.744 -0.47 +0.00    +0.030 A 
BRANCH  14  17
ATOM     17  C28 UNL     1      26.317   8.328   0.902 -0.28 +0.00    +0.251 C 
ATOM     18  O5  UNL     1      27.057   9.265   0.629 -0.16 -0.00    -0.268 OA
ATOM     19  N4  UNL     1      26.737   7.018   1.006 -0.12 -0.00    -0.357 N 
ATOM     20  H42 UNL     1      26.094   6.309   1.328 +0.11 +0.00    +0.162 HD
BRANCH  19  21
ATOM     21  C29 UNL     1      28.113   6.632   0.768 -0.23 +0.00    +0.123 C 
BRANCH  21  22
ATOM     22  C30 UNL     1      28.246   5.291   0.041 -0.28 +0.00    +0.020 C 
BRANCH  22  23
ATOM     23  C31 UNL     1      27.860   5.344  -1.442 -0.29 +0.00    +0.002 C 
BRANCH  23  24
ATOM     24  C32 UNL     1      27.745   3.953  -2.071 -0.31 +0.00    +0.002 C 
BRANCH  24  25
ATOM     25  C33 UNL     1      26.319   3.407  -1.979 -0.37 +0.00    +0.026 C 
BRANCH  25  26
ATOM     26  C34 UNL     1      25.368   4.406  -1.329 -0.42 +0.00    +0.164 C 
BRANCH  26  27
ATOM     27  O6  UNL     1      25.471   4.359   0.088 -0.69 -0.00    -0.401 OA
ATOM     28  H38 UNL     1      24.583   4.161   0.436 +0.14 +0.00    +0.209 HD
ENDBRANCH  26  27
ENDBRANCH  25  26
ENDBRANCH  24  25
ENDBRANCH  23  24
ENDBRANCH  22  23
ENDBRANCH  21  22
ENDBRANCH  19  21
ENDBRANCH  14  17
ENDBRANCH   9  11
ENDBRANCH   3   7
BRANCH   5  29
ATOM     29  C7  UNL     1      16.022   8.425   3.717 -0.39 +0.00    +0.256 C 
ATOM     30  O1  UNL     1      16.754   7.568   4.195 -0.80 -0.00    -0.267 OA
ATOM     31  N1  UNL     1      14.640   8.459   3.746 -0.25 -0.00    -0.323 N 
ATOM     32  H39 UNL     1      14.186   9.166   3.182 -0.23 +0.00    +0.169 HD
BRANCH  31  33
ATOM     33  C8  UNL     1      13.779   7.556   4.404 -0.46 +0.00    +0.035 A 
ATOM     34  C9  UNL     1      12.765   6.965   3.637 -0.39 +0.00    +0.030 A 
ATOM     35  C10 UNL     1      11.864   6.062   4.211 -0.26 +0.00    +0.019 A 
ATOM     36  C11 UNL     1      11.970   5.736   5.568 -0.35 +0.00    +0.032 A 
ATOM     37  C12 UNL     1      12.967   6.340   6.340 -0.42 +0.00    +0.019 A 
ATOM     38  C13 UNL     1      13.868   7.240   5.760 -0.41 +0.00    +0.030 A 
BRANCH  36  39
ATOM     39  C14 UNL     1      11.033   4.788   6.228 -0.27 +0.00    +0.251 C 
ATOM     40  O2  UNL     1      11.364   4.222   7.264 -0.30 -0.00    -0.268 OA
ATOM     41  N2  UNL     1       9.828   4.577   5.589 -0.11 -0.00    -0.357 N 
ATOM     42  H40 UNL     1       9.701   4.929   4.651 +0.10 +0.00    +0.162 HD
BRANCH  41  43
ATOM     43  C15 UNL     1       8.862   3.613   6.078 -0.39 +0.00    +0.123 C 
BRANCH  43  44
ATOM     44  C16 UNL     1       8.014   4.161   7.226 -0.56 +0.00    +0.020 C 
BRANCH  44  45
ATOM     45  C17 UNL     1       6.579   4.494   6.809 -0.51 +0.00    +0.002 C 
BRANCH  45  46
ATOM     46  C18 UNL     1       6.349   4.197   5.325 -0.35 +0.00    +0.002 C 
BRANCH  46  47
ATOM     47  C19 UNL     1       6.228   5.464   4.471 -0.23 +0.00    +0.026 C 
BRANCH  47  48
ATOM     48  C20 UNL     1       7.341   5.637   3.441 -0.16 +0.00    +0.164 C 
BRANCH  48  49
ATOM     49  O3  UNL     1       8.100   4.442   3.312 -0.04 -0.00    -0.401 OA
ATOM     50  H37 UNL     1       7.509   3.763   2.945 +0.10 +0.00    +0.209 HD
ENDBRANCH  48  49
ENDBRANCH  47  48
ENDBRANCH  46  47
ENDBRANCH  45  46
ENDBRANCH  44  45
ENDBRANCH  43  44
ENDBRANCH  41  43
ENDBRANCH  36  39
ENDBRANCH  31  33
ENDBRANCH   5  29
TORSDOF 20
TER
