USER    Run = 1
USER    DPF = ligand_279_receptor.dpf
USER  
USER    Estimated Free Energy of Binding    = +141.42 kcal/mol  [=(1)+(2)+(3)-(4)]
USER    
USER    (1) Final Intermolecular Energy     = +140.23 kcal/mol
USER        vdW + Hbond + desolv Energy     = +140.23 kcal/mol
USER        Electrostatic Energy            =   +0.00 kcal/mol
USER    (2) Final Total Internal Energy     =  +83.65 kcal/mol
USER    (3) Torsional Free Energy           =   +1.19 kcal/mol
USER    (4) Unbound System's Energy  [=(2)] =  +83.65 kcal/mol
USER    
USER    
USER    NEWDPF move ligand_279.pdbqt
USER    NEWDPF about 0.000000 0.000000 0.000000
USER    NEWDPF tran0 12.071340 8.424989 1.181920
USER    NEWDPF quaternion0 0.386764 -0.352752 0.407160 0.748465
USER    NEWDPF axisangle0 0.583202 -0.531914 0.613956 83.084758
USER    NEWDPF quat0 0.583202 -0.531914 0.613956 83.084758
USER    NEWDPF dihe0 -137.09 -165.79 180.00 140.92 155.41 98.42 172.31 180.00 -92.31 -61.17 47.50 40.41 62.47 -29.32 -178.22 176.96 -42.31 153.70 24.51 11.14 6.43 -108.36 13.54 79.02 180.00 131.07 
USER  keepresnum = 1 
USER  
REMARK  26 active torsions:
REMARK  status: ('A' for Active; 'I' for Inactive)
REMARK    1  A    between atoms: C3_3  and  C16_16 
REMARK    2  A    between atoms: C5_5  and  S1_50 
REMARK    3  A    between atoms: C8_8  and  N1_62 
REMARK    4  A    between atoms: C11_11  and  N2_63 
REMARK    5  A    between atoms: C14_14  and  N3_64 
REMARK    6  A    between atoms: C18_18  and  C22_22 
REMARK    7  A    between atoms: C22_22  and  O4_56 
REMARK    8  A    between atoms: C23_23  and  C24_24 
REMARK    9  A    between atoms: C23_23  and  N4_65 
REMARK   10  A    between atoms: C24_24  and  S2_51 
REMARK   11  A    between atoms: C25_25  and  C26_26 
REMARK   12  A    between atoms: C25_25  and  S2_51 
REMARK   13  A    between atoms: C26_26  and  N5_66 
REMARK   14  A    between atoms: C27_27  and  C28_28 
REMARK       I    between atoms: C27_27  and  N5_66 
REMARK   15  A    between atoms: C33_33  and  C34_34 
REMARK   16  A    between atoms: C33_33  and  N6_67 
REMARK       I    between atoms: C34_34  and  N7_68 
REMARK   17  A    between atoms: C35_35  and  N7_68 
REMARK   18  A    between atoms: C39_39  and  S3_52 
REMARK   19  A    between atoms: C42_42  and  N8_69 
REMARK   20  A    between atoms: C45_45  and  N9_70 
REMARK   21  A    between atoms: C48_48  and  N10_71 
REMARK   22  A    between atoms: S1_50  and  N1_62 
REMARK   23  A    between atoms: S3_52  and  N8_69 
REMARK   24  A    between atoms: O4_56  and  N4_65 
REMARK   25  A    between atoms: N2_63  and  N3_64 
REMARK   26  A    between atoms: N9_70  and  N10_71 
USER                              x       y       z     vdW  Elec       q    Type
USER                           _______ _______ _______ _____ _____    ______ ____
ROOT
ATOM      1  C26 UNL     1      16.296   8.423   5.064 +3.45 +0.00    +0.133 C 
ENDROOT
BRANCH   1   2
ATOM      2  C25 UNL     1      16.897   8.349   3.653 -0.55 +0.00    +0.093 C 
BRANCH   2   3
ATOM      3  S2  UNL     1      18.246   7.105   3.566 +1.09 -0.00    -0.166 SA
BRANCH   3   4
ATOM      4  C24 UNL     1      19.480   8.048   2.588+15.94 +0.00    +0.090 C 
BRANCH   4   5
ATOM      5  C23 UNL     1      20.254   9.112   3.377 +0.02 +0.00    +0.127 C 
BRANCH   5   6
ATOM      6  N4  UNL     1      21.116   8.513   4.402+13.80 -0.00    -0.205 NA
ATOM      7  H50 UNL     1      20.532   7.958   5.032 +5.90 +0.00    +0.153 HD
BRANCH   6   8
ATOM      8  O4  UNL     1      21.501   9.628   5.267 +9.10 -0.00    -0.301 OA
BRANCH   8   9
ATOM      9  C22 UNL     1      22.849  10.028   4.973 -0.21 +0.00    +0.232 C 
BRANCH   9  10
ATOM     10  C18 UNL     1      23.003  10.252   3.489 -0.28 -0.00    -0.032 A 
ATOM     11  C17 UNL     1      21.898  10.651   2.722 +1.65 +0.00    +0.021 A 
ATOM     12  C16 UNL     1      21.995  10.821   1.331 +7.84 -0.00    -0.024 A 
ATOM     13  C21 UNL     1      23.237  10.616   0.715 +3.16 +0.00    +0.012 A 
ATOM     14  C20 UNL     1      24.348  10.237   1.470 +0.29 +0.00    +0.002 A 
ATOM     15  C19 UNL     1      24.230  10.048   2.848 -0.47 +0.00    +0.009 A 
BRANCH  12  16
ATOM     16  C3  UNL     1      20.793  11.165   0.547 -0.47 -0.00    -0.013 A 
ATOM     17  C2  UNL     1      20.928  11.678  -0.769 +1.38 -0.00    -0.050 A 
ATOM     18  C1  UNL     1      22.278  11.823  -1.427 +4.85 +0.00    +0.049 C 
ATOM     19  C7  UNL     1      19.790  12.063  -1.490 +6.32 +0.00    +0.009 A 
ATOM     20  C6  UNL     1      18.529  11.988  -0.910+16.67 +0.00    +0.026 A 
ATOM     21  C5  UNL     1      18.377  11.486   0.388 -0.40 +0.00    +0.086 A 
ATOM     22  C4  UNL     1      19.496  11.030   1.123 -0.55 -0.00    -0.027 A 
ATOM     23  C15 UNL     1      19.350  10.444   2.510 -0.42 +0.00    +0.050 C 
BRANCH  21  24
ATOM     24  S1  UNL     1      16.736  11.551   1.088 -0.54 +0.00    +0.263 S 
ATOM     25  O1  UNL     1      15.768  11.445   0.010 +0.53 -0.00    -0.200 OA
ATOM     26  O2  UNL     1      16.640  12.720   1.938 -0.11 -0.00    -0.200 OA
BRANCH  24  27
ATOM     27  N1  UNL     1      16.635  10.192   2.077 -0.24 -0.00    -0.281 N 
ATOM     28  H47 UNL     1      17.449   9.582   1.989 +0.15 +0.00    +0.179 HD
BRANCH  27  29
ATOM     29  C8  UNL     1      15.372   9.540   2.184 +0.89 +0.00    +0.042 A 
ATOM     30  C9  UNL     1      14.398  10.073   3.025 +7.77 +0.00    +0.032 A 
ATOM     31  C10 UNL     1      13.185   9.399   3.202 +5.99 +0.00    +0.027 A 
ATOM     32  C11 UNL     1      12.943   8.172   2.569 +4.78 +0.00    +0.027 A 
ATOM     33  C12 UNL     1      13.916   7.680   1.686 +7.88 +0.00    +0.027 A 
ATOM     34  C13 UNL     1      15.130   8.348   1.507 +2.54 +0.00    +0.032 A 
BRANCH  32  35
ATOM     35  N2  UNL     1      11.708   7.480   2.674 -0.24 -0.00    -0.204 NA
ATOM     36  H48 UNL     1      11.069   8.002   3.290 +0.09 +0.00    +0.153 HD
BRANCH  35  37
ATOM     37  N3  UNL     1      11.090   7.247   1.428 -0.07 -0.00    -0.294 N 
ATOM     38  H49 UNL     1      10.571   8.032   1.046 +0.16 +0.00    +0.183 HD
BRANCH  37  39
ATOM     39  C14 UNL     1      11.736   6.372   0.579 -0.22 +0.00    +0.364 C 
ATOM     40  O3  UNL     1      12.068   6.626  -0.572 -0.38 -0.00    -0.282 OA
ENDBRANCH  37  39
ENDBRANCH  35  37
ENDBRANCH  32  35
ENDBRANCH  27  29
ENDBRANCH  24  27
ENDBRANCH  21  24
ENDBRANCH  12  16
ENDBRANCH   9  10
ENDBRANCH   8   9
ENDBRANCH   6   8
ENDBRANCH   5   6
ENDBRANCH   4   5
ENDBRANCH   3   4
ENDBRANCH   2   3
ENDBRANCH   1   2
BRANCH   1  41
ATOM     41  N5  UNL     1      14.847   8.286   5.075 +0.03 -0.00    -0.356 N 
ATOM     42  C27 UNL     1      14.072   8.901   6.029 +2.16 +0.00    +0.253 C 
ATOM     43  O5  UNL     1      14.479   9.741   6.818+10.95 -0.00    -0.268 OA
ATOM     44  H51 UNL     1      14.468   7.600   4.433 +0.10 +0.00    +0.162 HD
BRANCH  42  45
ATOM     45  C28 UNL     1      12.659   8.485   6.079 -0.16 +0.00    +0.047 A 
ATOM     46  C29 UNL     1      11.814   8.754   5.010 +1.98 +0.00    +0.108 A 
ATOM     47  N6  UNL     1      10.512   8.372   5.043 -0.17 -0.00    -0.357 N 
ATOM     48  C30 UNL     1      10.027   7.678   6.097 +4.84 +0.00    +0.091 A 
ATOM     49  C31 UNL     1      10.849   7.358   7.176 +4.52 +0.00    +0.018 A 
ATOM     50  C32 UNL     1      12.179   7.761   7.167 -0.30 +0.00    +0.020 A 
BRANCH  47  51
ATOM     51  C33 UNL     1       9.630   8.671   3.892 -0.11 +0.00    +0.230 C 
BRANCH  51  52
ATOM     52  C34 UNL     1       9.000   7.419   3.308 -0.26 +0.00    +0.240 C 
ATOM     53  O6  UNL     1       8.035   7.496   2.553 -0.30 -0.00    -0.271 OA
ATOM     54  N7  UNL     1       9.650   6.253   3.701 -0.10 -0.00    -0.325 N 
ATOM     55  H52 UNL     1      10.182   6.312   4.562 +0.10 +0.00    +0.169 HD
BRANCH  54  56
ATOM     56  C35 UNL     1       9.305   4.932   3.297 -0.23 +0.00    +0.048 C 
ATOM     57  C36 UNL     1      10.004   3.869   3.929 -0.29 -0.00    -0.035 C 
ATOM     58  C37 UNL     1       9.644   2.542   3.659 +2.77 +0.00    +0.011 C 
ATOM     59  C49 UNL     1      11.116   4.097   4.923 -0.37 +0.00    +0.050 C 
ATOM     60  C38 UNL     1       8.578   2.262   2.817 +1.10 +0.00    +0.026 C 
ATOM     61  C39 UNL     1       7.896   3.304   2.176 -0.20 +0.00    +0.088 C 
ATOM     62  C40 UNL     1       8.327   4.644   2.313 -0.19 -0.00    -0.011 C 
ATOM     63  C41 UNL     1       7.837   5.696   1.352 -0.19 +0.00    +0.052 C 
BRANCH  61  64
ATOM     64  S3  UNL     1       6.409   2.819   1.288 -0.12 +0.00    +0.263 S 
ATOM     65  O7  UNL     1       6.265   1.389   1.454 -0.21 -0.00    -0.200 OA
ATOM     66  O8  UNL     1       6.382   3.421  -0.027 -0.07 -0.00    -0.200 OA
BRANCH  64  67
ATOM     67  N8  UNL     1       5.184   3.534   2.226 -0.03 -0.00    -0.281 N 
ATOM     68  H53 UNL     1       4.306   3.025   2.144 +0.06 +0.00    +0.179 HD
BRANCH  67  69
ATOM     69  C42 UNL     1       5.542   4.046   3.506 -0.14 +0.00    +0.042 A 
ATOM     70  C43 UNL     1       6.276   5.228   3.586 -0.17 +0.00    +0.032 A 
ATOM     71  C44 UNL     1       6.503   5.824   4.829 -0.09 +0.00    +0.027 A 
ATOM     72  C45 UNL     1       6.000   5.255   6.009 -0.33 +0.00    +0.027 A 
ATOM     73  C46 UNL     1       5.329   4.028   5.913 -0.35 +0.00    +0.027 A 
ATOM     74  C47 UNL     1       5.081   3.439   4.668 -0.22 +0.00    +0.032 A 
BRANCH  72  75
ATOM     75  N9  UNL     1       6.293   5.903   7.237 -0.31 -0.00    -0.204 NA
ATOM     76  H54 UNL     1       5.484   5.863   7.864 +0.06 +0.00    +0.153 HD
BRANCH  75  77
ATOM     77  N10 UNL     1       7.477   5.495   7.854 -0.24 -0.00    -0.294 N 
ATOM     78  H55 UNL     1       7.388   5.232   8.832 +0.16 +0.00    +0.183 HD
BRANCH  77  79
ATOM     79  C48 UNL     1       8.501   5.015   7.071 -0.24 +0.00    +0.364 C 
ATOM     80  O9  UNL     1       9.391   4.240   7.409 -0.31 -0.00    -0.282 OA
ENDBRANCH  77  79
ENDBRANCH  75  77
ENDBRANCH  72  75
ENDBRANCH  67  69
ENDBRANCH  64  67
ENDBRANCH  61  64
ENDBRANCH  54  56
ENDBRANCH  51  52
ENDBRANCH  47  51
ENDBRANCH  42  45
ENDBRANCH   1  41
TORSDOF 26
TER
