USER    Run = 1
USER    DPF = ligand_37_receptor.dpf
USER  
USER    Estimated Free Energy of Binding    = +245.36 kcal/mol  [=(1)+(2)+(3)-(4)]
USER    
USER    (1) Final Intermolecular Energy     = +244.17 kcal/mol
USER        vdW + Hbond + desolv Energy     = +244.17 kcal/mol
USER        Electrostatic Energy            =   +0.00 kcal/mol
USER    (2) Final Total Internal Energy     =  +38.20 kcal/mol
USER    (3) Torsional Free Energy           =   +1.19 kcal/mol
USER    (4) Unbound System's Energy  [=(2)] =  +38.20 kcal/mol
USER    
USER    
USER    NEWDPF move ligand_37.pdbqt
USER    NEWDPF about 0.000000 0.000000 0.000000
USER    NEWDPF tran0 14.048335 7.249845 4.266797
USER    NEWDPF quaternion0 -0.006806 0.278743 -0.920785 -0.272784
USER    NEWDPF axisangle0 -0.007074 0.289731 -0.957082 -148.340062
USER    NEWDPF quat0 -0.007074 0.289731 -0.957082 -148.340062
USER    NEWDPF dihe0 131.42 -63.87 -53.84 -60.56 46.39 60.65 -142.74 -13.54 161.43 161.20 161.20 95.85 17.09 -112.93 37.22 54.09 -121.49 180.00 133.77 162.18 -166.69 0.42 -87.20 66.16 -7.77 -18.16 125.01 136.64 -180.00 -122.26 -110.54 -38.87 
USER  keepresnum = 1 
USER  
REMARK  32 active torsions:
REMARK  status: ('A' for Active; 'I' for Inactive)
REMARK    1  A    between atoms: C3_3  and  N9_53 
REMARK    2  A    between atoms: C4_4  and  S1_79 
REMARK    3  A    between atoms: C5_5  and  N1_43 
REMARK    4  A    between atoms: C7_7  and  C8_8 
REMARK       I    between atoms: C7_7  and  N1_43 
REMARK    5  A    between atoms: C8_8  and  C9_9 
REMARK    6  A    between atoms: C8_8  and  N5_48 
REMARK    7  A    between atoms: C9_9  and  C10_10 
REMARK    8  A    between atoms: C10_10  and  C11_11 
REMARK    9  A    between atoms: C11_11  and  N2_44 
REMARK       I    between atoms: C12_12  and  N2_44 
REMARK       I    between atoms: C12_12  and  N3_46 
REMARK       I    between atoms: C12_12  and  N4_47 
REMARK   10  A    between atoms: C13_13  and  C14_14 
REMARK   11  A    between atoms: C13_13  and  S1_79 
REMARK   12  A    between atoms: C14_14  and  N6_49 
REMARK       I    between atoms: C15_15  and  N6_49 
REMARK       I    between atoms: C15_15  and  N7_51 
REMARK       I    between atoms: C15_15  and  N8_52 
REMARK   13  A    between atoms: C16_16  and  C17_17 
REMARK       I    between atoms: C16_16  and  N9_53 
REMARK   14  A    between atoms: C19_19  and  C27_27 
REMARK   15  A    between atoms: C20_20  and  O4_76 
REMARK   16  A    between atoms: C22_22  and  O3_75 
REMARK   17  A    between atoms: C23_23  and  N10_54 
REMARK   18  A    between atoms: C23_23  and  O3_75 
REMARK       I    between atoms: C24_24  and  N10_54 
REMARK       I    between atoms: C24_24  and  N11_56 
REMARK       I    between atoms: C24_24  and  N12_57 
REMARK   19  A    between atoms: C25_25  and  N13_58 
REMARK   20  A    between atoms: C25_25  and  O4_76 
REMARK       I    between atoms: C26_26  and  N14_60 
REMARK       I    between atoms: C26_26  and  N15_61 
REMARK       I    between atoms: C27_27  and  N16_62 
REMARK   21  A    between atoms: C28_28  and  N16_62 
REMARK   22  A    between atoms: C29_29  and  S2_80 
REMARK   23  A    between atoms: C30_30  and  N17_63 
REMARK   24  A    between atoms: C34_34  and  C35_35 
REMARK       I    between atoms: C34_34  and  N17_63 
REMARK   25  A    between atoms: C35_35  and  C36_36 
REMARK   26  A    between atoms: C35_35  and  N21_68 
REMARK   27  A    between atoms: C36_36  and  C37_37 
REMARK   28  A    between atoms: C37_37  and  C38_38 
REMARK   29  A    between atoms: C38_38  and  N18_64 
REMARK       I    between atoms: C39_39  and  N19_66 
REMARK       I    between atoms: C39_39  and  N20_67 
REMARK   30  A    between atoms: C40_40  and  C41_41 
REMARK   31  A    between atoms: C40_40  and  S2_80 
REMARK   32  A    between atoms: C41_41  and  N22_69 
REMARK       I    between atoms: C42_42  and  N23_71 
REMARK       I    between atoms: C42_42  and  N24_72 
USER                              x       y       z     vdW  Elec       q    Type
USER                           _______ _______ _______ _____ _____    ______ ____
ROOT
ATOM      1  C17 UNL     1      14.674   7.379   3.937 -0.38 +0.00    +0.066 A 
ATOM      2  C18 UNL     1      13.613   6.572   3.484 +0.31 +0.00    +0.040 A 
ATOM      3  C19 UNL     1      12.553   6.245   4.336 -0.23 +0.00    +0.066 A 
ATOM      4  C20 UNL     1      12.512   6.723   5.645 -0.33 +0.00    +0.089 A 
ATOM      5  C21 UNL     1      13.527   7.577   6.077 -0.35 +0.00    +0.075 A 
ATOM      6  C22 UNL     1      14.642   7.846   5.264 +0.08 +0.00    +0.089 A 
ENDROOT
BRANCH   1   7
ATOM      7  C16 UNL     1      15.765   7.665   2.940 +0.92 +0.00    +0.259 C 
ATOM      8  N9  UNL     1      15.446   8.479   1.874 -0.01 -0.00    -0.322 N 
ATOM      9  H46 UNL     1      14.489   8.823   1.830 +0.04 +0.00    +0.169 HD
ATOM     10  O2  UNL     1      16.855   7.127   3.120 -0.97 -0.00    -0.267 OA
BRANCH   8  11
ATOM     11  C3  UNL     1      16.278   8.917   0.811 -0.47 +0.00    +0.054 A 
ATOM     12  C2  UNL     1      15.784   9.648  -0.271 +2.99 +0.00    +0.031 A 
ATOM     13  C1  UNL     1      16.630  10.030  -1.312+47.73 +0.00    +0.005 A 
ATOM     14  C6  UNL     1      17.983   9.695  -1.285 +3.78 +0.00    +0.031 A 
ATOM     15  C5  UNL     1      18.520   8.974  -0.215 +2.16 +0.00    +0.053 A 
ATOM     16  C4  UNL     1      17.658   8.583   0.843 +0.43 +0.00    +0.054 A 
BRANCH  15  17
ATOM     17  N1  UNL     1      19.903   8.673  -0.137+40.56 -0.00    -0.324 N 
ATOM     18  C7  UNL     1      20.822   9.134   0.790 +6.14 +0.00    +0.255 C 
ATOM     19  O1  UNL     1      20.622  10.026   1.612 -0.31 -0.00    -0.271 OA
ATOM     20  H35 UNL     1      20.269   8.036  -0.853 +1.29 +0.00    +0.169 HD
BRANCH  18  21
ATOM     21  C8  UNL     1      22.202   8.425   0.678 +0.93 +0.00    +0.309 C 
BRANCH  21  22
ATOM     22  C9  UNL     1      23.246   9.027   1.635 -0.48 +0.00    +0.047 C 
BRANCH  22  23
ATOM     23  C10 UNL     1      24.075  10.131   0.965 +0.49 +0.00    +0.022 C 
BRANCH  23  24
ATOM     24  C11 UNL     1      25.542  10.060   1.387 +0.89 +0.00    +0.121 C 
BRANCH  24  25
ATOM     25  N2  UNL     1      25.642   9.159   2.532 -0.26 -0.00    -0.372 N 
ATOM     26  C12 UNL     1      26.581   8.293   2.544 -0.53 +0.00    +0.121 C 
ATOM     27  N3  UNL     1      27.540   8.037   1.628 -0.26 -0.00    -0.279 NA
ATOM     28  N4  UNL     1      26.718   7.465   3.601 +0.13 -0.00    -0.279 NA
ATOM     29  H36 UNL     1      27.742   7.047   1.554 +0.07 +0.00    +0.126 HD
ATOM     30  H37 UNL     1      27.363   8.440   0.717 +0.07 +0.00    +0.126 HD
ATOM     31  H38 UNL     1      27.675   7.435   3.933 -0.47 +0.00    +0.126 HD
ATOM     32  H39 UNL     1      26.101   7.772   4.347 -0.33 +0.00    +0.126 HD
ATOM     33  H2  UNL     1      24.978   9.220   3.303 +0.12 +0.00    +0.161 HD
ENDBRANCH  24  25
ENDBRANCH  23  24
ENDBRANCH  22  23
ENDBRANCH  21  22
BRANCH  21  34
ATOM     34  N5  UNL     1      22.689   8.519  -0.725 -0.26 +0.00    +0.092 N 
ATOM     35  H40 UNL     1      23.651   8.163  -0.744 +0.24 +0.00    +0.313 HD
ATOM     36  H41 UNL     1      22.167   7.862  -1.305 +0.26 +0.00    +0.313 HD
ENDBRANCH  21  34
ENDBRANCH  18  21
ENDBRANCH  15  17
BRANCH  16  37
ATOM     37  S1  UNL     1      18.294   7.585   2.211 +7.37 -0.00    -0.124 SA
BRANCH  37  38
ATOM     38  C13 UNL     1      18.681   8.910   3.421 -0.45 +0.00    +0.099 C 
BRANCH  38  39
ATOM     39  C14 UNL     1      18.759  10.316   2.818 -0.34 +0.00    +0.132 C 
BRANCH  39  40
ATOM     40  N6  UNL     1      17.711  11.171   3.371 -0.10 -0.00    -0.366 N 
ATOM     41  C15 UNL     1      17.207  12.122   2.685 -0.45 +0.00    +0.143 C 
ATOM     42  N7  UNL     1      16.151  12.792   3.193 +1.72 -0.00    -0.274 NA
ATOM     43  N8  UNL     1      17.528  12.564   1.454 -0.32 -0.00    -0.376 N 
ATOM     44  H42 UNL     1      16.283  13.792   3.257 +0.19 +0.00    +0.127 HD
ATOM     45  H43 UNL     1      15.923  12.416   4.120 +0.86 +0.00    +0.127 HD
ATOM     46  H44 UNL     1      18.446  12.348   1.096 +0.13 +0.00    +0.158 HD
ATOM     47  H45 UNL     1      17.174  13.471   1.187 -0.04 +0.00    +0.158 HD
ATOM     48  H6  UNL     1      17.376  11.004   4.320 +0.12 +0.00    +0.162 HD
ENDBRANCH  39  40
ENDBRANCH  38  39
ENDBRANCH  37  38
ENDBRANCH  16  37
ENDBRANCH   8  11
ENDBRANCH   1   7
BRANCH   6  49
ATOM     49  O3  UNL     1      15.704   8.571   5.746+46.12 -0.00    -0.331 OA
BRANCH  49  50
ATOM     50  C23 UNL     1      15.525  10.012   5.777+29.03 +0.00    +0.300 C 
BRANCH  50  51
ATOM     51  N10 UNL     1      16.646  10.832   6.211 +3.94 -0.00    -0.350 N 
ATOM     52  C24 UNL     1      16.509  11.645   7.183 +3.60 +0.00    +0.123 C 
ATOM     53  N11 UNL     1      17.601  12.260   7.686 +3.73 -0.00    -0.279 NA
ATOM     54  N12 UNL     1      15.404  11.997   7.875 +0.96 -0.00    -0.279 NA
ATOM     55  H47 UNL     1      18.440  11.755   7.374 +0.10 +0.00    +0.126 HD
ATOM     56  H48 UNL     1      17.611  12.270   8.699 +4.89 +0.00    +0.126 HD
ATOM     57  H49 UNL     1      15.442  12.967   8.172 +3.07 +0.00    +0.126 HD
ATOM     58  H50 UNL     1      14.532  11.816   7.393 +0.14 +0.00    +0.126 HD
ATOM     59  H10 UNL     1      17.545  10.755   5.735 +0.11 +0.00    +0.163 HD
ENDBRANCH  50  51
ENDBRANCH  49  50
ENDBRANCH   6  49
BRANCH   3  60
ATOM     60  C27 UNL     1      11.496   5.349   3.832 +0.36 +0.00    +0.259 C 
ATOM     61  N16 UNL     1      10.242   5.932   3.819 -0.10 -0.00    -0.322 N 
ATOM     62  H55 UNL     1      10.236   6.943   3.765 +0.10 +0.00    +0.169 HD
ATOM     63  O5  UNL     1      11.812   4.245   3.406+18.86 -0.00    -0.267 OA
BRANCH  61  64
ATOM     64  C28 UNL     1       9.065   5.269   3.400 -0.19 +0.00    +0.054 A 
ATOM     65  C29 UNL     1       8.730   4.989   2.054 -0.14 +0.00    +0.054 A 
ATOM     66  C30 UNL     1       7.495   4.348   1.761 -0.10 +0.00    +0.053 A 
ATOM     67  C31 UNL     1       6.639   3.983   2.802 -0.13 +0.00    +0.031 A 
ATOM     68  C32 UNL     1       7.006   4.206   4.127 -0.23 +0.00    +0.005 A 
ATOM     69  C33 UNL     1       8.216   4.830   4.425 -0.24 +0.00    +0.031 A 
BRANCH  65  70
ATOM     70  S2  UNL     1       9.897   5.245   0.679 -0.16 -0.00    -0.124 SA
BRANCH  70  71
ATOM     71  C40 UNL     1      11.146   6.275   1.537 -0.31 +0.00    +0.099 C 
BRANCH  71  72
ATOM     72  C41 UNL     1      10.653   7.703   1.797 +0.87 +0.00    +0.132 C 
BRANCH  72  73
ATOM     73  N22 UNL     1       9.203   7.707   1.981 -0.12 -0.00    -0.371 N 
ATOM     74  C42 UNL     1       8.437   7.975   0.996 +0.50 +0.00    +0.121 C 
ATOM     75  N23 UNL     1       8.742   8.335  -0.268 +0.56 -0.00    -0.279 NA
ATOM     76  N24 UNL     1       7.099   7.940   1.162 -0.27 -0.00    -0.279 NA
ATOM     77  H63 UNL     1       9.690   8.671  -0.387 +0.21 +0.00    +0.126 HD
ATOM     78  H64 UNL     1       8.080   9.009  -0.639 -0.40 +0.00    +0.126 HD
ATOM     79  H65 UNL     1       6.620   7.458   0.409 +0.04 +0.00    +0.126 HD
ATOM     80  H66 UNL     1       6.855   7.512   2.054 +0.06 +0.00    +0.126 HD
ATOM     81  H22 UNL     1       8.804   7.496   2.895 +0.08 +0.00    +0.161 HD
ENDBRANCH  72  73
ENDBRANCH  71  72
ENDBRANCH  70  71
ENDBRANCH  65  70
BRANCH  66  82
ATOM     82  N17 UNL     1       7.194   4.089   0.406 -0.01 -0.00    -0.324 N 
ATOM     83  C34 UNL     1       7.189   4.946  -0.672 +0.07 +0.00    +0.255 C 
ATOM     84  O6  UNL     1       7.489   6.138  -0.645 -0.02 -0.00    -0.271 OA
ATOM     85  H56 UNL     1       6.766   3.182   0.256 +0.06 +0.00    +0.169 HD
BRANCH  83  86
ATOM     86  C35 UNL     1       6.791   4.258  -2.004 +0.83 +0.00    +0.309 C 
BRANCH  86  87
ATOM     87  C36 UNL     1       7.973   4.215  -2.984 -0.13 +0.00    +0.047 C 
BRANCH  87  88
ATOM     88  C37 UNL     1       8.299   2.830  -3.563 +1.33 +0.00    +0.022 C 
BRANCH  88  89
ATOM     89  C38 UNL     1       8.355   1.745  -2.485 -0.07 +0.00    +0.121 C 
BRANCH  89  90
ATOM     90  N18 UNL     1       9.169   2.175  -1.353 -0.01 -0.00    -0.372 N 
ATOM     91  C39 UNL     1       8.753   1.999  -0.158 -0.15 +0.00    +0.121 C 
ATOM     92  N19 UNL     1       7.613   1.438   0.303 -0.09 -0.00    -0.279 NA
ATOM     93  N20 UNL     1       9.524   2.386   0.880 +0.10 -0.00    -0.279 NA
ATOM     94  H57 UNL     1       6.887   1.323  -0.391 +0.04 +0.00    +0.126 HD
ATOM     95  H58 UNL     1       7.258   1.915   1.123 +0.05 +0.00    +0.126 HD
ATOM     96  H59 UNL     1       9.613   1.654   1.575 -0.11 +0.00    +0.126 HD
ATOM     97  H60 UNL     1      10.442   2.649   0.532 -0.52 +0.00    +0.126 HD
ATOM     98  H18 UNL     1      10.074   2.616  -1.516 +0.08 +0.00    +0.161 HD
ENDBRANCH  89  90
ENDBRANCH  88  89
ENDBRANCH  87  88
ENDBRANCH  86  87
BRANCH  86  99
ATOM     99  N21 UNL     1       6.193   2.922  -1.791 -0.09 +0.00    +0.092 N 
ATOM    100  H61 UNL     1       6.481   2.262  -2.507 +0.09 +0.00    +0.313 HD
ATOM    101  H62 UNL     1       6.500   2.560  -0.882 +0.09 +0.00    +0.313 HD
ENDBRANCH  86  99
ENDBRANCH  83  86
ENDBRANCH  66  82
ENDBRANCH  61  64
ENDBRANCH   3  60
BRANCH   4 102
ATOM    102  O4  UNL     1      11.466   6.360   6.453 -0.15 -0.00    -0.331 OA
BRANCH 102 103
ATOM    103  C25 UNL     1      10.183   6.862   6.017 +0.17 +0.00    +0.300 C 
BRANCH 103 104
ATOM    104  N13 UNL     1       9.073   6.894   6.976 +8.61 -0.00    -0.350 N 
ATOM    105  C26 UNL     1       8.526   5.772   7.273 -0.12 +0.00    +0.123 C 
ATOM    106  N14 UNL     1       7.518   5.743   8.171 -0.06 -0.00    -0.279 NA
ATOM    107  N15 UNL     1       8.781   4.534   6.789 -0.23 -0.00    -0.279 NA
ATOM    108  H51 UNL     1       7.474   6.575   8.747 +0.09 +0.00    +0.126 HD
ATOM    109  H52 UNL     1       7.448   4.893   8.714 +0.10 +0.00    +0.126 HD
ATOM    110  H53 UNL     1       9.621   4.473   6.220 +0.09 +0.00    +0.126 HD
ATOM    111  H54 UNL     1       8.943   3.842   7.521 +0.08 +0.00    +0.126 HD
ATOM    112  H13 UNL     1       8.750   7.769   7.388 +6.45 +0.00    +0.163 HD
ENDBRANCH 103 104
ENDBRANCH 102 103
ENDBRANCH   4 102
TORSDOF 32
TER
