USER    Run = 1
USER    DPF = ligand_482_receptor.dpf
USER  
USER    Estimated Free Energy of Binding    =  +32.87 kcal/mol  [=(1)+(2)+(3)-(4)]
USER    
USER    (1) Final Intermolecular Energy     =  +31.67 kcal/mol
USER        vdW + Hbond + desolv Energy     =  +31.67 kcal/mol
USER        Electrostatic Energy            =   +0.00 kcal/mol
USER    (2) Final Total Internal Energy     =   -1.36 kcal/mol
USER    (3) Torsional Free Energy           =   +1.19 kcal/mol
USER    (4) Unbound System's Energy  [=(2)] =   -1.36 kcal/mol
USER    
USER    
USER    NEWDPF move ligand_482.pdbqt
USER    NEWDPF about 0.000000 0.000000 0.000000
USER    NEWDPF tran0 11.286087 11.179319 5.269810
USER    NEWDPF quaternion0 -0.573110 -0.219353 -0.567477 0.548998
USER    NEWDPF axisangle0 -0.685683 -0.262439 -0.678943 113.403388
USER    NEWDPF quat0 -0.685683 -0.262439 -0.678943 113.403388
USER    NEWDPF dihe0 9.82 147.01 175.76 140.88 57.58 -121.17 -177.88 -59.38 -180.00 -105.06 84.21 83.20 -1.54 133.60 152.99 179.78 117.20 55.78 70.37 
USER  keepresnum = 1 
USER  
REMARK  19 active torsions:
REMARK  status: ('A' for Active; 'I' for Inactive)
REMARK    1  A    between atoms: C7_7  and  N7_58 
REMARK    2  A    between atoms: C16_16  and  C17_17 
REMARK    3  A    between atoms: C16_16  and  N7_58 
REMARK    4  A    between atoms: C20_20  and  C23_23 
REMARK       I    between atoms: C23_23  and  N8_59 
REMARK    5  A    between atoms: C24_24  and  C25_25 
REMARK    6  A    between atoms: C24_24  and  N8_59 
REMARK    7  A    between atoms: C25_25  and  C26_26 
REMARK    8  A    between atoms: C26_26  and  C27_27 
REMARK    9  A    between atoms: C27_27  and  C28_28 
REMARK   10  A    between atoms: C30_30  and  C45_45 
REMARK   11  A    between atoms: C32_32  and  C43_43 
REMARK   12  A    between atoms: C37_37  and  C39_39 
REMARK   13  A    between atoms: C39_39  and  C40_40 
REMARK   14  A    between atoms: C40_40  and  C41_41 
REMARK   15  A    between atoms: C41_41  and  N13_64 
REMARK       I    between atoms: C42_42  and  N14_66 
REMARK       I    between atoms: C42_42  and  N15_67 
REMARK   16  A    between atoms: C43_43  and  O7_74 
REMARK   17  A    between atoms: C44_44  and  O7_74 
REMARK   18  A    between atoms: C45_45  and  C46_46 
REMARK   19  A    between atoms: C49_49  and  O9_76 
USER                              x       y       z     vdW  Elec       q    Type
USER                           _______ _______ _______ _____ _____    ______ ____
ROOT
ATOM      1  C28 UNL     1      10.790   6.599   3.566 -0.27 +0.00    +0.176 C 
ATOM      2  C29 UNL     1      10.419   5.188   4.077 -0.17 +0.00    +0.241 C 
ATOM      3  C30 UNL     1       8.856   3.923   5.547 -0.32 +0.00    +0.180 C 
ATOM      4  C31 UNL     1       7.885   3.284   4.529 -0.15 +0.00    +0.241 C 
ATOM      5  C32 UNL     1       7.756   2.146   2.322 -0.19 +0.00    +0.178 C 
ATOM      6  C33 UNL     1       7.625   3.317   1.342 -0.12 +0.00    +0.152 C 
ATOM      7  C34 UNL     1       6.271   3.607   0.725 -0.09 +0.00    +0.090 C 
ATOM      8  C35 UNL     1       5.440   4.536   1.596 -0.13 +0.00    +0.110 C 
ATOM      9  C36 UNL     1       5.760   6.018   1.497 -0.19 +0.00    +0.218 C 
ATOM     10  C37 UNL     1       7.532   7.718   1.849 -0.33 +0.00    +0.176 C 
ATOM     11  C38 UNL     1       8.577   7.552   2.975 -0.26 +0.00    +0.241 C 
ATOM     12  N9  UNL     1       9.372   5.171   4.974 -0.07 -0.00    -0.346 N 
ATOM     13  N10 UNL     1       8.512   2.655   3.471 +0.18 -0.00    -0.346 N 
ATOM     14  N11 UNL     1       7.087   6.356   1.576 -0.09 -0.00    -0.348 N 
ATOM     15  N12 UNL     1       9.784   7.001   2.589 -0.14 -0.00    -0.346 N 
ATOM     16  O2  UNL     1      10.953   4.153   3.682 +0.31 -0.00    -0.271 OA
ATOM     17  O3  UNL     1       6.662   3.369   4.599 -0.17 -0.00    -0.271 OA
ATOM     18  O4  UNL     1       8.577   4.074   1.104 -0.07 -0.00    -0.296 OA
ATOM     19  O5  UNL     1       4.865   6.857   1.431 +0.54 -0.00    -0.274 OA
ATOM     20  O6  UNL     1       8.315   7.742   4.163 +1.38 -0.00    -0.271 OA
ATOM     21  H73 UNL     1       8.784   6.008   5.014 +0.09 +0.00    +0.163 HD
ATOM     22  H74 UNL     1       9.484   2.936   3.312 -0.12 +0.00    +0.163 HD
ATOM     23  H75 UNL     1       7.794   5.629   1.620 +0.08 +0.00    +0.163 HD
ATOM     24  H76 UNL     1       9.876   6.631   1.642 +0.09 +0.00    +0.163 HD
ENDROOT
BRANCH   1  25
ATOM     25  C27 UNL     1      12.197   6.599   2.956 -0.36 +0.00    +0.035 C 
BRANCH  25  26
ATOM     26  C26 UNL     1      13.228   7.288   3.853 -0.52 +0.00    +0.004 C 
BRANCH  26  27
ATOM     27  C25 UNL     1      14.006   8.359   3.079 +0.20 +0.00    +0.020 C 
BRANCH  27  28
ATOM     28  C24 UNL     1      14.895   7.759   1.993 +6.43 +0.00    +0.123 C 
BRANCH  28  29
ATOM     29  N8  UNL     1      16.301   7.975   2.258 -0.03 -0.00    -0.357 N 
ATOM     30  C23 UNL     1      16.697   8.788   3.304 -0.41 +0.00    +0.251 C 
ATOM     31  O1  UNL     1      15.914   9.289   4.102 -0.31 -0.00    -0.268 OA
ATOM     32  H72 UNL     1      16.944   7.874   1.483 -0.02 +0.00    +0.162 HD
BRANCH  30  33
ATOM     33  C20 UNL     1      18.155   9.074   3.401 -0.48 +0.00    +0.032 A 
ATOM     34  C19 UNL     1      18.692  10.321   3.059 -0.17 +0.00    +0.017 A 
ATOM     35  C18 UNL     1      20.067  10.542   3.165 +2.23 +0.00    +0.010 A 
ATOM     36  C17 UNL     1      20.926   9.522   3.604 +1.00 -0.00    -0.030 A 
ATOM     37  C22 UNL     1      20.385   8.270   3.923 +2.54 +0.00    +0.010 A 
ATOM     38  C21 UNL     1      19.010   8.046   3.820 -0.34 +0.00    +0.017 A 
BRANCH  36  39
ATOM     39  C16 UNL     1      22.416   9.770   3.700 -0.26 +0.00    +0.309 C 
BRANCH  39  40
ATOM     40  N7  UNL     1      22.990   9.898   2.364 -0.26 +0.00    +0.102 N 
ATOM     41  H71 UNL     1      22.282  10.286   1.741 +0.28 +0.00    +0.317 HD
BRANCH  40  42
ATOM     42  C7  UNL     1      23.493   8.622   1.741 -0.33 +0.00    +0.235 C 
ATOM     43  C6  UNL     1      22.683   7.372   2.293 +2.51 +0.00    +0.314 C 
ATOM     44  N2  UNL     1      23.164   6.001   2.065 +4.77 +0.00    +0.087 N 
ATOM     45  C5  UNL     1      22.638   5.370   0.848 +2.69 +0.00    +0.299 C 
ATOM     46  H66 UNL     1      24.184   5.984   1.961 +0.28 +0.00    +0.316 HD
ATOM     47  C4  UNL     1      23.699   4.432   0.211 +0.09 +0.00    +0.299 C 
ATOM     48  N1  UNL     1      25.019   5.074   0.163 -0.46 +0.00    +0.086 N 
ATOM     49  C3  UNL     1      26.009   4.320  -0.591 -0.24 +0.00    +0.282 C 
ATOM     50  H65 UNL     1      24.924   6.023  -0.221 +0.24 +0.00    +0.315 HD
ATOM     51  C2  UNL     1      27.335   5.059  -0.992 -0.33 +0.00    +0.034 C 
ATOM     52  C1  UNL     1      28.344   3.922  -1.334 -0.26 +0.00    +0.020 C 
ATOM     53  C11 UNL     1      27.974   5.869   0.185 -0.15 +0.00    +0.282 C 
ATOM     54  C15 UNL     1      27.214   5.913  -2.304 +0.82 +0.00    +0.282 C 
ATOM     55  N4  UNL     1      27.316   7.131   0.510 -0.30 +0.00    +0.086 N 
ATOM     56  C10 UNL     1      27.895   7.814   1.663 -0.28 +0.00    +0.299 C 
ATOM     57  H68 UNL     1      27.274   7.732  -0.315 +0.20 +0.00    +0.315 HD
ATOM     58  C9  UNL     1      27.313   9.233   1.937 +1.58 +0.00    +0.299 C 
ATOM     59  N3  UNL     1      25.898   9.500   1.625 -0.40 +0.00    +0.087 N 
ATOM     60  C8  UNL     1      24.989   8.505   2.228 -0.31 +0.00    +0.314 C 
ATOM     61  H67 UNL     1      25.654  10.417   1.996 +0.27 +0.00    +0.316 HD
ATOM     62  N6  UNL     1      26.433   7.150  -2.250 +1.50 +0.00    +0.086 N 
ATOM     63  C14 UNL     1      25.054   6.988  -2.738 +2.68 +0.00    +0.299 C 
ATOM     64  H70 UNL     1      26.883   7.866  -2.820 +1.35 +0.00    +0.315 HD
ATOM     65  C13 UNL     1      24.118   7.998  -2.039 +1.34 +0.00    +0.299 C 
ATOM     66  N5  UNL     1      24.206   7.809  -0.589 -0.41 +0.00    +0.087 N 
ATOM     67  C12 UNL     1      23.399   8.755   0.173 -0.29 +0.00    +0.314 C 
ATOM     68  H69 UNL     1      25.194   7.938  -0.318 +0.24 +0.00    +0.316 HD
ENDBRANCH  40  42
ENDBRANCH  39  40
ENDBRANCH  36  39
ENDBRANCH  30  33
ENDBRANCH  28  29
ENDBRANCH  27  28
ENDBRANCH  26  27
ENDBRANCH  25  26
ENDBRANCH   1  25
BRANCH   3  69
ATOM     69  C45 UNL     1       8.173   4.198   6.894 -0.48 +0.00    +0.073 C 
BRANCH  69  70
ATOM     70  C46 UNL     1       6.802   4.815   6.734 -0.41 -0.00    -0.056 A 
ATOM     71  C47 UNL     1       6.561   5.768   5.736 -0.13 +0.00    +0.010 A 
ATOM     72  C48 UNL     1       5.289   6.320   5.577 +0.92 +0.00    +0.037 A 
ATOM     73  C49 UNL     1       4.256   5.920   6.414 -0.28 +0.00    +0.065 A 
ATOM     74  C50 UNL     1       4.471   4.974   7.410 -0.15 +0.00    +0.037 A 
ATOM     75  C51 UNL     1       5.745   4.422   7.569 +0.34 +0.00    +0.010 A 
BRANCH  73  76
ATOM     76  O9  UNL     1       3.028   6.483   6.223 -0.10 -0.00    -0.361 OA
ATOM     77  H81 UNL     1       2.465   6.260   6.981 +0.08 +0.00    +0.217 HD
ENDBRANCH  73  76
ENDBRANCH  69  70
ENDBRANCH   3  69
BRANCH  10  78
ATOM     78  C39 UNL     1       8.076   8.500   0.643 +3.63 +0.00    +0.036 C 
BRANCH  78  79
ATOM     79  C40 UNL     1       9.466   8.099   0.135 +2.04 +0.00    +0.022 C 
BRANCH  79  80
ATOM     80  C41 UNL     1       9.451   7.148  -1.066 -0.32 +0.00    +0.121 C 
BRANCH  80  81
ATOM     81  N13 UNL     1      10.242   5.961  -0.766 -0.07 -0.00    -0.372 N 
ATOM     82  C42 UNL     1      11.510   6.015  -0.648 -0.36 +0.00    +0.121 C 
ATOM     83  N14 UNL     1      12.196   4.875  -0.415 +0.20 -0.00    -0.279 NA
ATOM     84  N15 UNL     1      12.374   7.049  -0.754 -0.35 -0.00    -0.279 NA
ATOM     85  H77 UNL     1      12.962   4.743  -1.063 +0.96 +0.00    +0.126 HD
ATOM     86  H78 UNL     1      11.556   4.087  -0.473 -0.17 +0.00    +0.126 HD
ATOM     87  H79 UNL     1      11.967   7.968  -0.561 +0.11 +0.00    +0.126 HD
ATOM     88  H80 UNL     1      13.158   6.930  -0.118 -0.00 +0.00    +0.126 HD
ATOM     89  H13 UNL     1       9.769   5.066  -0.648 +0.07 +0.00    +0.161 HD
ENDBRANCH  80  81
ENDBRANCH  79  80
ENDBRANCH  78  79
ENDBRANCH  10  78
BRANCH   5  90
ATOM     90  C43 UNL     1       8.496   0.979   1.658 +0.44 +0.00    +0.211 C 
BRANCH  90  91
ATOM     91  O7  UNL     1       9.640   1.430   0.905 -0.21 -0.00    -0.326 OA
BRANCH  91  92
ATOM     92  C44 UNL     1       9.432   1.637  -0.416 -0.05 +0.00    +0.398 C 
ATOM     93  O8  UNL     1       9.915   2.538  -1.082 -0.14 -0.00    -0.276 OA
ENDBRANCH  91  92
ENDBRANCH  90  91
ENDBRANCH   5  90
TORSDOF 19
TER
