USER    Run = 1
USER    DPF = ligand_446_receptor.dpf
USER  
USER    Estimated Free Energy of Binding    =  +42.12 kcal/mol  [=(1)+(2)+(3)-(4)]
USER    
USER    (1) Final Intermolecular Energy     =  +40.93 kcal/mol
USER        vdW + Hbond + desolv Energy     =  +40.93 kcal/mol
USER        Electrostatic Energy            =   +0.00 kcal/mol
USER    (2) Final Total Internal Energy     =   -4.90 kcal/mol
USER    (3) Torsional Free Energy           =   +1.19 kcal/mol
USER    (4) Unbound System's Energy  [=(2)] =   -4.90 kcal/mol
USER    
USER    
USER    NEWDPF move ligand_446.pdbqt
USER    NEWDPF about 0.000000 0.000000 0.000000
USER    NEWDPF tran0 15.903305 11.776750 2.906236
USER    NEWDPF quaternion0 -0.024755 -0.205349 0.975458 0.075510
USER    NEWDPF axisangle0 -0.024826 -0.205937 0.978250 171.338892
USER    NEWDPF quat0 -0.024826 -0.205937 0.978250 171.338892
USER    NEWDPF dihe0 -135.44 -94.59 -9.19 106.11 179.91 159.54 -4.64 -69.60 -180.00 175.52 121.42 -25.44 -179.82 79.31 56.69 -108.37 51.91 -48.10 99.81 -153.95 16.72 99.56 174.28 85.64 -11.72 180.00 180.00 
USER  keepresnum = 1 
USER  
REMARK  27 active torsions:
REMARK  status: ('A' for Active; 'I' for Inactive)
REMARK    1  A    between atoms: C3_3  and  N5_46 
REMARK    2  A    between atoms: C5_5  and  C6_6 
REMARK    3  A    between atoms: C6_6  and  C7_7 
REMARK    4  A    between atoms: C7_7  and  C8_8 
REMARK    5  A    between atoms: C8_8  and  N2_42 
REMARK       I    between atoms: C9_9  and  N3_44 
REMARK       I    between atoms: C9_9  and  N4_45 
REMARK    6  A    between atoms: C10_10  and  C11_11 
REMARK       I    between atoms: C10_10  and  N5_46 
REMARK    7  A    between atoms: C13_13  and  N7_48 
REMARK    8  A    between atoms: C16_16  and  C17_17 
REMARK       I    between atoms: C16_16  and  N7_48 
REMARK    9  A    between atoms: C19_19  and  N9_50 
REMARK   10  A    between atoms: C22_22  and  C23_23 
REMARK       I    between atoms: C22_22  and  N9_50 
REMARK   11  A    between atoms: C25_25  and  N11_52 
REMARK   12  A    between atoms: C28_28  and  C29_29 
REMARK       I    between atoms: C28_28  and  N11_52 
REMARK   13  A    between atoms: C29_29  and  C30_30 
REMARK   14  A    between atoms: C30_30  and  S1_67 
REMARK   15  A    between atoms: C31_31  and  C32_32 
REMARK   16  A    between atoms: C31_31  and  S1_67 
REMARK   17  A    between atoms: C32_32  and  C33_33 
REMARK   18  A    between atoms: C32_32  and  N13_54 
REMARK       I    between atoms: C33_33  and  N12_53 
REMARK   19  A    between atoms: C34_34  and  C35_35 
REMARK   20  A    between atoms: C34_34  and  N12_53 
REMARK   21  A    between atoms: C35_35  and  O8_63 
REMARK   22  A    between atoms: C36_36  and  C37_37 
REMARK       I    between atoms: C36_36  and  N13_54 
REMARK   23  A    between atoms: C37_37  and  C38_38 
REMARK   24  A    between atoms: C38_38  and  C39_39 
REMARK   25  A    between atoms: C39_39  and  C40_40 
REMARK   26  A    between atoms: C39_39  and  N14_55 
REMARK   27  A    between atoms: C40_40  and  O11_66 
USER                              x       y       z     vdW  Elec       q    Type
USER                           _______ _______ _______ _____ _____    ______ ____
ROOT
ATOM      1  C22 UNL     1      17.768   8.433   2.579 -0.34 +0.00    +0.273 C 
ATOM      2  N9  UNL     1      16.741   9.235   3.044 -0.23 -0.00    -0.320 N 
ATOM      3  O4  UNL     1      17.624   7.278   2.188 -0.39 -0.00    -0.266 OA
ATOM      4  H44 UNL     1      16.969  10.155   3.389 +0.13 +0.00    +0.169 HD
ENDROOT
BRANCH   1   5
ATOM      5  C23 UNL     1      19.083   9.078   2.600 -0.13 +0.00    +0.105 A 
ATOM      6  C24 UNL     1      20.352   8.529   2.430 +5.60 +0.00    +0.066 A 
ATOM      7  C25 UNL     1      21.316   9.555   2.537 -0.40 +0.00    +0.052 A 
ATOM      8  C26 UNL     1      20.631  10.720   2.782 +0.14 +0.00    +0.120 A 
ATOM      9  N10 UNL     1      19.289  10.429   2.824 -0.10 -0.00    -0.354 N 
ATOM     10  C27 UNL     1      18.257  11.420   3.054 -0.09 +0.00    +0.156 C 
BRANCH   7  11
ATOM     11  N11 UNL     1      22.693   9.507   2.440 -0.20 -0.00    -0.325 N 
ATOM     12  C28 UNL     1      23.414   9.636   1.258 -0.27 +0.00    +0.241 C 
ATOM     13  O5  UNL     1      22.907   9.814   0.152 -0.35 -0.00    -0.271 OA
ATOM     14  H45 UNL     1      23.194   9.422   3.319 +0.13 +0.00    +0.169 HD
BRANCH  12  15
ATOM     15  C29 UNL     1      24.930   9.493   1.472 -0.23 +0.00    +0.183 C 
ATOM     16 CL1  UNL     1      25.614  11.049   2.052 +4.08 -0.00    -0.114 Cl
BRANCH  15  17
ATOM     17  C30 UNL     1      25.275   8.395   2.482 -0.52 +0.00    +0.103 C 
BRANCH  17  18
ATOM     18  S1  UNL     1      25.884   6.859   1.672 -0.40 -0.00    -0.165 SA
BRANCH  18  19
ATOM     19  C31 UNL     1      24.307   6.174   1.018 -0.43 +0.00    +0.108 C 
BRANCH  19  20
ATOM     20  C32 UNL     1      24.472   4.980   0.067 -0.48 +0.00    +0.185 C 
BRANCH  20  21
ATOM     21  C33 UNL     1      23.567   3.845   0.584 +0.79 +0.00    +0.241 C 
ATOM     22  N12 UNL     1      22.473   4.264   1.318 +1.40 -0.00    -0.349 N 
ATOM     23  H46 UNL     1      22.061   5.138   1.006 +0.51 +0.00    +0.163 HD
ATOM     24  O6  UNL     1      23.812   2.655   0.374 +3.86 -0.00    -0.271 OA
BRANCH  22  25
ATOM     25  C34 UNL     1      21.498   3.259   1.741+13.57 +0.00    +0.232 C 
BRANCH  25  26
ATOM     26  C35 UNL     1      21.870   2.600   3.067 -0.14 +0.00    +0.158 C 
ATOM     27  O7  UNL     1      22.620   1.647   3.198 +1.65 -0.00    -0.649 OA
BRANCH  26  28
ATOM     28  O8  UNL     1      21.276   3.187   4.126 +0.55 -0.00    -0.775 OA
ATOM     29  H50 UNL     1      20.474   3.646   3.770 +0.16 +0.00    +0.167 HD
ENDBRANCH  26  28
ENDBRANCH  25  26
ENDBRANCH  22  25
ENDBRANCH  20  21
BRANCH  20  30
ATOM     30  N13 UNL     1      25.847   4.481   0.016 -0.22 -0.00    -0.347 N 
ATOM     31  C36 UNL     1      26.659   4.844  -1.036 -0.29 +0.00    +0.218 C 
ATOM     32  O9  UNL     1      26.324   5.681  -1.868 -0.25 -0.00    -0.274 OA
ATOM     33  H47 UNL     1      26.019   3.570   0.429 +0.11 +0.00    +0.163 HD
BRANCH  31  34
ATOM     34  C37 UNL     1      28.012   4.154  -1.056 -0.25 +0.00    +0.105 C 
BRANCH  34  35
ATOM     35  C38 UNL     1      29.121   5.022  -0.447 -0.19 +0.00    +0.056 C 
BRANCH  35  36
ATOM     36  C39 UNL     1      29.317   4.816   1.063 +0.31 +0.00    +0.315 C 
BRANCH  36  37
ATOM     37  C40 UNL     1      29.570   3.346   1.422 -0.17 +0.00    +0.173 C 
ATOM     38  O10 UNL     1      28.717   2.498   1.647 -0.15 -0.00    -0.648 OA
BRANCH  37  39
ATOM     39  O11 UNL     1      30.891   3.078   1.490 +0.08 -0.00    -0.775 OA
ATOM     40  H51 UNL     1      31.238   3.440   2.346 -0.07 +0.00    +0.167 HD
ENDBRANCH  37  39
ENDBRANCH  36  37
BRANCH  36  41
ATOM     41  N14 UNL     1      30.457   5.646   1.516 -0.25 +0.00    +0.093 N 
ATOM     42  H48 UNL     1      30.506   5.608   2.535 +0.17 +0.00    +0.314 HD
ATOM     43  H49 UNL     1      31.322   5.198   1.200 +0.13 +0.00    +0.314 HD
ENDBRANCH  36  41
ENDBRANCH  35  36
ENDBRANCH  34  35
ENDBRANCH  31  34
ENDBRANCH  20  30
ENDBRANCH  19  20
ENDBRANCH  18  19
ENDBRANCH  17  18
ENDBRANCH  15  17
ENDBRANCH  12  15
ENDBRANCH   7  11
ENDBRANCH   1   5
BRANCH   2  44
ATOM     44  C19 UNL     1      15.406   8.883   3.125 -0.41 +0.00    +0.053 A 
ATOM     45  C18 UNL     1      14.871   7.637   2.720 +2.98 +0.00    +0.066 A 
ATOM     46  C17 UNL     1      13.508   7.632   2.981 -0.16 +0.00    +0.105 A 
ATOM     47  N8  UNL     1      13.203   8.890   3.461 +0.17 -0.00    -0.354 N 
ATOM     48  C20 UNL     1      14.352   9.630   3.592 +3.80 +0.00    +0.120 A 
ATOM     49  C21 UNL     1      11.878   9.418   3.711 +5.43 +0.00    +0.156 C 
BRANCH  46  50
ATOM     50  C16 UNL     1      12.584   6.538   2.735 -0.03 +0.00    +0.273 C 
ATOM     51  N7  UNL     1      11.927   6.125   3.880 -0.12 -0.00    -0.320 N 
ATOM     52  H43 UNL     1      12.234   6.509   4.763 +0.11 +0.00    +0.169 HD
ATOM     53  O3  UNL     1      12.465   6.033   1.625 -0.25 -0.00    -0.266 OA
BRANCH  51  54
ATOM     54  C13 UNL     1      10.953   5.150   3.948 -0.18 +0.00    +0.053 A 
ATOM     55  C12 UNL     1      10.334   4.540   2.830 +3.43 +0.00    +0.066 A 
ATOM     56  C11 UNL     1       9.391   3.629   3.287 -0.13 +0.00    +0.105 A 
ATOM     57  N6  UNL     1       9.497   3.622   4.664 -0.18 -0.00    -0.354 N 
ATOM     58  C14 UNL     1      10.409   4.566   5.065 -0.27 +0.00    +0.120 A 
ATOM     59  C15 UNL     1       8.839   2.710   5.576 +1.19 +0.00    +0.156 C 
BRANCH  56  60
ATOM     60  C10 UNL     1       8.520   2.807   2.467 -0.14 +0.00    +0.273 C 
ATOM     61  N5  UNL     1       7.387   3.474   2.041 -0.04 -0.00    -0.320 N 
ATOM     62  H42 UNL     1       7.319   4.464   2.231 +0.08 +0.00    +0.169 HD
ATOM     63  O2  UNL     1       8.813   1.654   2.170 +0.13 -0.00    -0.266 OA
BRANCH  61  64
ATOM     64  C3  UNL     1       6.385   2.928   1.265 -0.10 +0.00    +0.053 A 
ATOM     65  C2  UNL     1       5.470   2.028   1.754 -0.14 +0.00    +0.120 A 
ATOM     66  N1  UNL     1       4.616   1.685   0.736 -0.06 -0.00    -0.356 N 
ATOM     67  C1  UNL     1       3.521   0.746   0.876 -0.09 +0.00    +0.156 C 
ATOM     68  C5  UNL     1       4.971   2.346  -0.427 -0.08 +0.00    +0.082 A 
ATOM     69  C4  UNL     1       6.072   3.127  -0.099 -0.07 +0.00    +0.064 A 
BRANCH  68  70
ATOM     70  C6  UNL     1       4.277   2.213  -1.707 -0.06 +0.00    +0.177 C 
ATOM     71  O1  UNL     1       3.351   2.959  -2.031 -0.05 -0.00    -0.291 OA
BRANCH  70  72
ATOM     72  C7  UNL     1       4.749   1.135  -2.668 -0.08 +0.00    +0.105 C 
BRANCH  72  73
ATOM     73  C8  UNL     1       5.419   1.699  -3.914 -0.07 +0.00    +0.129 C 
BRANCH  73  74
ATOM     74  N2  UNL     1       6.361   2.753  -3.554 -0.07 -0.00    -0.371 N 
ATOM     75  C9  UNL     1       7.491   2.475  -3.030 -0.11 +0.00    +0.121 C 
ATOM     76  N3  UNL     1       8.051   1.290  -2.704 -0.36 -0.00    -0.279 NA
ATOM     77  N4  UNL     1       8.349   3.477  -2.739 -0.11 -0.00    -0.279 NA
ATOM     78  H38 UNL     1       8.598   1.353  -1.854 +0.05 +0.00    +0.126 HD
ATOM     79  H39 UNL     1       7.413   0.506  -2.661 +0.04 +0.00    +0.126 HD
ATOM     80  H40 UNL     1       9.274   3.294  -3.112 +0.04 +0.00    +0.126 HD
ATOM     81  H41 UNL     1       7.990   4.343  -3.130 -0.01 +0.00    +0.126 HD
ATOM     82  H2  UNL     1       6.113   3.727  -3.725 +0.02 +0.00    +0.161 HD
ENDBRANCH  73  74
ENDBRANCH  72  73
ENDBRANCH  70  72
ENDBRANCH  68  70
ENDBRANCH  61  64
ENDBRANCH  56  60
ENDBRANCH  51  54
ENDBRANCH  46  50
ENDBRANCH   2  44
TORSDOF 27
TER
