USER    Run = 1
USER    DPF = ligand_298_receptor.dpf
USER  
USER    Estimated Free Energy of Binding    =  +3.00e+004 kcal/mol  [=(1)+(2)+(3)-(4)]
USER    
USER    (1) Final Intermolecular Energy     =  +3.00e+004 kcal/mol
USER        vdW + Hbond + desolv Energy     =  +3.00e+004 kcal/mol
USER        Electrostatic Energy            =   +0.00 kcal/mol
USER    (2) Final Total Internal Energy     =   +0.00 kcal/mol
USER    (3) Torsional Free Energy           =   +1.19 kcal/mol
USER    (4) Unbound System's Energy  [=(2)] =   +0.00 kcal/mol
USER    
USER    
USER    NEWDPF move ligand_298.pdbqt
USER    NEWDPF about 0.000000 0.000000 0.000000
USER    NEWDPF tran0 18.773423 7.896431 1.730719
USER    NEWDPF quaternion0 0.049915 -0.526447 0.847764 -0.040728
USER    NEWDPF axisangle0 0.049956 -0.526884 0.848468 -175.331603
USER    NEWDPF quat0 0.049956 -0.526884 0.848468 -175.331603
USER  keepresnum = 1 
USER  
REMARK  0 active torsions:
REMARK  status: ('A' for Active; 'I' for Inactive)
REMARK       I    between atoms: S1_1  and  C1_2 
REMARK       I    between atoms: C1_2  and  C2_3 
REMARK       I    between atoms: C2_3  and  C3_4 
REMARK       I    between atoms: C3_4  and  C50_51 
REMARK       I    between atoms: C3_4  and  N1_70 
REMARK       I    between atoms: C4_5  and  C5_6 
REMARK       I    between atoms: C4_5  and  N1_70 
REMARK       I    between atoms: C5_6  and  N2_71 
REMARK       I    between atoms: C6_7  and  C7_8 
REMARK       I    between atoms: C6_7  and  N2_71 
REMARK       I    between atoms: C7_8  and  C46_47 
REMARK       I    between atoms: C7_8  and  N3_72 
REMARK       I    between atoms: C8_9  and  C9_10 
REMARK       I    between atoms: C8_9  and  N3_72 
REMARK       I    between atoms: C9_10  and  C44_45 
REMARK       I    between atoms: C9_10  and  N4_73 
REMARK       I    between atoms: C10_11  and  C11_12 
REMARK       I    between atoms: C10_11  and  N4_73 
REMARK       I    between atoms: C11_12  and  N5_74 
REMARK       I    between atoms: C12_13  and  C13_14 
REMARK       I    between atoms: C12_13  and  N5_74 
REMARK       I    between atoms: C13_14  and  C37_38 
REMARK       I    between atoms: C13_14  and  N6_75 
REMARK       I    between atoms: C14_15  and  C15_16 
REMARK       I    between atoms: C14_15  and  N6_75 
REMARK       I    between atoms: C15_16  and  C34_35 
REMARK       I    between atoms: C15_16  and  N7_76 
REMARK       I    between atoms: C16_17  and  C17_18 
REMARK       I    between atoms: C16_17  and  N7_76 
REMARK       I    between atoms: C17_18  and  C29_30 
REMARK       I    between atoms: C17_18  and  C33_34 
REMARK       I    between atoms: C17_18  and  N8_77 
REMARK       I    between atoms: C18_19  and  C19_20 
REMARK       I    between atoms: C18_19  and  N8_77 
REMARK       I    between atoms: C19_20  and  C25_26 
REMARK       I    between atoms: C19_20  and  N9_78 
REMARK       I    between atoms: C20_21  and  C21_22 
REMARK       I    between atoms: C20_21  and  N9_78 
REMARK       I    between atoms: C25_26  and  C26_27 
REMARK       I    between atoms: C29_30  and  C30_31 
REMARK       I    between atoms: C30_31  and  C31_32 
REMARK       I    between atoms: C30_31  and  N11_80 
REMARK       I    between atoms: C31_32  and  C32_33 
REMARK       I    between atoms: C32_33  and  O12_99 
REMARK       I    between atoms: C33_34  and  O13_100 
REMARK       I    between atoms: C37_38  and  C38_39 
REMARK       I    between atoms: C41_42  and  O14_101 
REMARK       I    between atoms: C44_45  and  O15_102 
REMARK       I    between atoms: C46_47  and  C47_48 
REMARK       I    between atoms: C50_51  and  N14_84 
REMARK       I    between atoms: C51_52  and  C52_53 
REMARK       I    between atoms: C51_52  and  C67_68 
REMARK       I    between atoms: C51_52  and  N14_84 
REMARK       I    between atoms: C52_53  and  N15_85 
REMARK       I    between atoms: C53_54  and  C54_55 
REMARK       I    between atoms: C53_54  and  N15_85 
REMARK       I    between atoms: C54_55  and  N16_86 
REMARK       I    between atoms: C55_56  and  C56_57 
REMARK       I    between atoms: C55_56  and  C60_61 
REMARK       I    between atoms: C55_56  and  N16_86 
REMARK       I    between atoms: C56_57  and  N17_87 
REMARK       I    between atoms: C57_58  and  C58_59 
REMARK       I    between atoms: C57_58  and  N17_87 
REMARK       I    between atoms: C58_59  and  O21_108 
REMARK       I    between atoms: C60_61  and  C61_62 
REMARK       I    between atoms: C67_68  and  O22_109 
USER                              x       y       z     vdW  Elec       q    Type
USER                           _______ _______ _______ _____ _____    ______ ____
ROOT
ATOM      1  S1  UNL     1      13.166   4.458  -3.551+99.99 -0.00    -0.173 SA
ATOM      2  C1  UNL     1      13.714   6.185  -3.336 +3.33 +0.00    +0.076 C 
ATOM      3  C2  UNL     1      14.320   6.460  -1.957+14.31 +0.00    +0.045 C 
ATOM      4  C3  UNL     1      13.338   6.352  -0.787 +0.03 +0.00    +0.177 C 
ATOM      5  C4  UNL     1      13.470   6.230   1.692+28.83 +0.00    +0.236 C 
ATOM      6  C5  UNL     1      14.327   6.487   2.937+28.82 +0.00    +0.225 C 
ATOM      7  C6  UNL     1      14.914   8.877   2.837 +0.11 +0.00    +0.241 C 
ATOM      8  C7  UNL     1      15.963   9.927   2.393 -0.36 +0.00    +0.182 C 
ATOM      9  C8  UNL     1      17.280   8.641   0.683 -0.16 +0.00    +0.243 C 
ATOM     10  C9  UNL     1      18.730   8.220   0.337+99.99 +0.00    +0.205 C 
ATOM     11  C10 UNL     1      18.857   6.705   2.316+99.99 +0.00    +0.236 C 
ATOM     12  C11 UNL     1      19.720   6.205   3.485+61.26 +0.00    +0.225 C 
ATOM     13  C12 UNL     1      21.716   7.633   3.689+54.77 +0.00    +0.241 C 
ATOM     14  C13 UNL     1      22.309   8.900   4.329 +4.28 +0.00    +0.180 C 
ATOM     15  C14 UNL     1      22.867  10.251   2.355 +1.74 +0.00    +0.241 C 
ATOM     16  C15 UNL     1      23.947  10.679   1.339 +5.97 +0.00    +0.180 C 
ATOM     17  C16 UNL     1      24.219   8.824  -0.291 +0.16 +0.00    +0.257 C 
ATOM     18  C17 UNL     1      25.144   7.657  -0.743 -0.13 +0.00    +0.198 C 
ATOM     19  C18 UNL     1      27.141   9.095  -1.166+80.69 +0.00    +0.241 C 
ATOM     20  C19 UNL     1      28.681   9.159  -1.053+56.28 +0.00    +0.177 C 
ATOM     21  C20 UNL     1      29.210   7.065  -2.247 -0.16 +0.00    +0.251 C 
ATOM     22  C21 UNL     1      30.165   5.853  -2.224 -0.05 +0.00    +0.311 C 
ATOM     23  C22 UNL     1      32.372   6.622  -2.396 -0.00 +0.00    +0.271 C 
ATOM     24  C23 UNL     1      32.175   5.668  -3.554 -0.03 +0.00    +0.033 C 
ATOM     25  C24 UNL     1      30.669   5.463  -3.611 -0.10 +0.00    +0.047 C 
ATOM     26  C25 UNL     1      29.031   9.883   0.260+10.29 +0.00    +0.038 C 
ATOM     27  C26 UNL     1      30.305  10.749   0.182 +5.74 -0.00    -0.020 C 
ATOM     28  C27 UNL     1      30.498  11.501   1.502+99.99 +0.00    +0.009 C 
ATOM     29  C28 UNL     1      31.562   9.944  -0.141 -0.31 +0.00    +0.009 C 
ATOM     30  C29 UNL     1      24.731   6.421   0.100 -0.37 +0.00    +0.200 C 
ATOM     31  C30 UNL     1      25.536   6.110   1.379 -0.20 +0.00    +0.299 C 
ATOM     32  C31 UNL     1      25.333   4.655   1.816 +3.46 +0.00    +0.153 C 
ATOM     33  C32 UNL     1      25.795   3.662   0.782 +7.07 +0.00    +0.141 C 
ATOM     34  C33 UNL     1      24.893   7.322  -2.228 +1.21 +0.00    +0.213 C 
ATOM     35  C34 UNL     1      24.928  11.754   1.864+15.98 +0.00    +0.009 C 
ATOM     36  C35 UNL     1      25.788  11.325   3.056+18.33 +0.00    +0.012 C 
ATOM     37  C36 UNL     1      24.193  13.055   2.199+99.99 +0.00    +0.012 C 
ATOM     38  C37 UNL     1      22.859   8.631   5.738+37.06 +0.00    +0.073 C 
ATOM     39  C38 UNL     1      24.034   7.680   5.811+14.37 -0.00    -0.056 A 
ATOM     40  C39 UNL     1      25.347   8.173   5.820+99.99 +0.00    +0.010 A 
ATOM     41  C40 UNL     1      26.431   7.295   5.879+99.99 +0.00    +0.037 A 
ATOM     42  C41 UNL     1      26.205   5.924   5.932 +1.60 +0.00    +0.065 A 
ATOM     43  C42 UNL     1      24.912   5.415   5.931+99.99 +0.00    +0.037 A 
ATOM     44  C43 UNL     1      23.828   6.293   5.872+99.99 +0.00    +0.010 A 
ATOM     45  C44 UNL     1      19.500   9.435  -0.225 +2.11 +0.00    +0.146 C 
ATOM     46  C45 UNL     1      18.919   9.951  -1.534+99.99 +0.00    +0.042 C 
ATOM     47  C46 UNL     1      16.278  10.839   3.603 +1.11 +0.00    +0.093 C 
ATOM     48  C47 UNL     1      17.177  10.167   4.599 -0.12 +0.00    +0.028 A 
ATOM     49  C48 UNL     1      17.824   8.792   6.199+99.99 +0.00    +0.180 A 
ATOM     50  C49 UNL     1      18.548  10.167   4.738+58.17 +0.00    +0.114 A 
ATOM     51  C50 UNL     1      12.203   7.393  -0.910 +1.09 +0.00    +0.241 C 
ATOM     52  C51 UNL     1       9.853   7.860  -0.225 +0.60 +0.00    +0.200 C 
ATOM     53  C52 UNL     1       9.806   8.620   1.110+59.93 +0.00    +0.242 C 
ATOM     54  C53 UNL     1      10.583   8.682   3.449 +0.45 +0.00    +0.225 C 
ATOM     55  C54 UNL     1       9.336   8.657   4.342 +2.55 +0.00    +0.236 C 
ATOM     56  C55 UNL     1       7.042   7.735   4.550+99.99 +0.00    +0.180 C 
ATOM     57  C56 UNL     1       6.094   7.187   3.460 +8.79 +0.00    +0.241 C 
ATOM     58  C57 UNL     1       3.754   6.750   2.811 +0.09 +0.00    +0.178 C 
ATOM     59  C58 UNL     1       3.500   5.256   3.050 -0.13 +0.00    +0.163 C 
ATOM     60  C59 UNL     1       2.439   7.508   2.950 +3.83 +0.00    +0.043 C 
ATOM     61  C60 UNL     1       7.028   6.876   5.826+54.29 +0.00    +0.073 C 
ATOM     62  C61 UNL     1       5.895   7.200   6.774 +8.68 -0.00    -0.056 A 
ATOM     63  C62 UNL     1       4.920   6.242   7.076 -0.36 +0.00    +0.007 A 
ATOM     64  C63 UNL     1       3.865   6.552   7.935 +1.77 +0.00    +0.001 A 
ATOM     65  C64 UNL     1       3.781   7.819   8.510 +8.84 +0.00    +0.000 A 
ATOM     66  C65 UNL     1       4.757   8.774   8.232 +0.21 +0.00    +0.001 A 
ATOM     67  C66 UNL     1       5.812   8.465   7.372+14.25 +0.00    +0.007 A 
ATOM     68  C67 UNL     1       8.562   7.048  -0.381 -0.27 +0.00    +0.199 C 
ATOM     69  C68 UNL     1      11.371   4.697  -3.478 +2.10 +0.00    +0.089 C 
ATOM     70  N1  UNL     1      14.028   6.581   0.485+17.32 -0.00    -0.346 N 
ATOM     71  N2  UNL     1      15.286   7.555   2.756 +1.75 -0.00    -0.351 N 
ATOM     72  N3  UNL     1      17.196   9.353   1.858 -0.19 -0.00    -0.346 N 
ATOM     73  N4  UNL     1      19.393   7.736   1.569+99.99 -0.00    -0.344 N 
ATOM     74  N5  UNL     1      20.474   7.267   4.137+34.85 -0.00    -0.351 N 
ATOM     75  N6  UNL     1      23.297   9.457   3.402 -0.25 -0.00    -0.346 N 
ATOM     76  N7  UNL     1      24.663   9.518   0.825 +0.39 -0.00    -0.345 N 
ATOM     77  N8  UNL     1      26.575   8.004  -0.527 -0.01 -0.00    -0.333 N 
ATOM     78  N9  UNL     1      29.250   7.806  -1.075 -0.11 -0.00    -0.346 N 
ATOM     79  N10 UNL     1      31.372   6.183  -1.410 -0.04 +0.00    +0.097 N 
ATOM     80  N11 UNL     1      25.097   7.052   2.437 -0.23 +0.00    +0.090 N 
ATOM     81  N12 UNL     1      16.725   9.317   5.577+30.98 -0.00    -0.354 N 
ATOM     82  N13 UNL     1      18.945   9.256   5.688+35.43 -0.00    -0.360 N 
ATOM     83  H13 UNL     1      19.898   8.997   5.942 +1.02 +0.00    +0.166 HD
ATOM     84  N14 UNL     1      11.024   6.986  -0.322 -0.14 -0.00    -0.344 N 
ATOM     85  N15 UNL     1      10.412   7.985   2.177 +0.71 -0.00    -0.350 N 
ATOM     86  N16 UNL     1       8.375   7.753   3.956 +0.70 -0.00    -0.346 N 
ATOM     87  N17 UNL     1       4.747   7.318   3.721 +3.38 -0.00    -0.345 N 
ATOM     88  O1  UNL     1      12.369   5.677   1.768 +0.41 -0.00    -0.272 OA
ATOM     89  O2  UNL     1      13.811   9.207   3.275 +0.17 -0.00    -0.271 OA
ATOM     90  O3  UNL     1      16.300   8.366  -0.001 -0.48 -0.00    -0.271 OA
ATOM     91  O4  UNL     1      17.775   6.183   2.045 +0.66 -0.00    -0.272 OA
ATOM     92  O5  UNL     1      22.312   6.989   2.824 +4.70 -0.00    -0.271 OA
ATOM     93  O6  UNL     1      21.704  10.652   2.274 +0.32 -0.00    -0.271 OA
ATOM     94  O7  UNL     1      23.125   9.055  -0.803 -0.24 -0.00    -0.270 OA
ATOM     95  O8  UNL     1      26.479  10.011  -1.644+99.99 -0.00    -0.271 OA
ATOM     96  O9  UNL     1      28.414   7.303  -3.151 +5.44 -0.00    -0.271 OA
ATOM     97  O10 UNL     1      23.701   5.778  -0.143 -0.37 -0.00    -0.292 OA
ATOM     98  O11 UNL     1      25.515   2.475   0.771+99.99 -0.00    -0.650 OA
ATOM     99  O12 UNL     1      26.632   4.168  -0.142 -0.59 -0.00    -0.776 OA
ATOM    100  O13 UNL     1      25.867   6.374  -2.701 +1.21 -0.00    -0.397 OA
ATOM    101  O14 UNL     1      27.291   5.102   5.971+14.19 -0.00    -0.361 OA
ATOM    102  O15 UNL     1      19.492  10.513   0.726 -0.22 -0.00    -0.393 OA
ATOM    103  O16 UNL     1      12.343   8.497  -1.428+99.99 -0.00    -0.271 OA
ATOM    104  O17 UNL     1       9.134   9.640   1.256+99.99 -0.00    -0.271 OA
ATOM    105  O18 UNL     1       9.241   9.325   5.370+20.80 -0.00    -0.272 OA
ATOM    106  O19 UNL     1       6.519   6.693   2.413 -0.20 -0.00    -0.271 OA
ATOM    107  O20 UNL     1       2.733   4.551   2.413 -0.38 -0.00    -0.648 OA
ATOM    108  O21 UNL     1       4.184   4.726   4.086 +0.10 -0.00    -0.775 OA
ATOM    109  O22 UNL     1       8.488   6.447  -1.680 -0.03 -0.00    -0.398 OA
ATOM    110  H77 UNL     1      14.803   7.248   0.482 -0.44 +0.00    +0.163 HD
ATOM    111  H78 UNL     1      16.180   7.313   2.333 -0.30 +0.00    +0.163 HD
ATOM    112  H79 UNL     1      18.058   9.866   2.042 +0.13 +0.00    +0.163 HD
ATOM    113  H80 UNL     1      20.408   7.783   1.579+42.37 +0.00    +0.163 HD
ATOM    114  H81 UNL     1      19.939   7.943   4.688 +0.18 +0.00    +0.163 HD
ATOM    115  H82 UNL     1      24.089   8.856   3.182 +0.13 +0.00    +0.163 HD
ATOM    116  H83 UNL     1      25.375   9.060   1.388 +0.13 +0.00    +0.163 HD
ATOM    117  H84 UNL     1      27.213   7.214  -0.541 +0.09 +0.00    +0.164 HD
ATOM    118  H85 UNL     1      30.143   7.658  -0.601 +0.07 +0.00    +0.163 HD
ATOM    119  H86 UNL     1      31.712   5.305  -1.007 +0.07 +0.00    +0.317 HD
ATOM    120  H87 UNL     1      25.525   6.758   3.322 +0.26 +0.00    +0.313 HD
ATOM    121  H88 UNL     1      24.088   6.854   2.589 +0.44 +0.00    +0.313 HD
ATOM    122  H89 UNL     1      15.760   9.084   5.775 +2.04 +0.00    +0.166 HD
ATOM    123  H90 UNL     1      11.051   6.142   0.248 +0.08 +0.00    +0.163 HD
ATOM    124  H91 UNL     1      11.104   7.275   1.953 +0.09 +0.00    +0.163 HD
ATOM    125  H92 UNL     1       8.460   7.375   3.015 +0.08 +0.00    +0.163 HD
ATOM    126  H93 UNL     1       4.465   7.453   4.685 +0.41 +0.00    +0.163 HD
ATOM    127  H94 UNL     1      26.745   3.424  -0.777 +0.09 +0.00    +0.167 HD
ATOM    128  H95 UNL     1      26.613   6.890  -3.079 +1.01 +0.00    +0.209 HD
ATOM    129  H96 UNL     1      26.990   4.197   6.155+99.99 +0.00    +0.217 HD
ATOM    130  H97 UNL     1      20.378  10.538   1.156 +0.17 +0.00    +0.210 HD
ATOM    131  H98 UNL     1       3.937   3.777   4.056 +0.06 +0.00    +0.167 HD
ATOM    132  H99 UNL     1       8.494   7.172  -2.330 -0.24 +0.00    +0.209 HD
ENDROOT
TORSDOF 53
TER
