USER    Run = 1
USER    DPF = ligand_183_receptor.dpf
USER  
USER    Estimated Free Energy of Binding    =  +8.98e+005 kcal/mol  [=(1)+(2)+(3)-(4)]
USER    
USER    (1) Final Intermolecular Energy     =  +8.98e+005 kcal/mol
USER        vdW + Hbond + desolv Energy     =  +5.94e+005 kcal/mol
USER        Electrostatic Energy            =  +3.05e+005 kcal/mol
USER    (2) Final Total Internal Energy     =   +0.00 kcal/mol
USER    (3) Torsional Free Energy           =   +1.19 kcal/mol
USER    (4) Unbound System's Energy  [=(2)] =   +0.00 kcal/mol
USER    
USER    
USER    NEWDPF move ligand_183.pdbqt
USER    NEWDPF about 0.000000 0.000000 0.000000
USER    NEWDPF tran0 16.412013 7.750178 3.092808
USER    NEWDPF quaternion0 0.100928 0.040285 0.988889 0.101439
USER    NEWDPF axisangle0 0.101451 0.040494 0.994016 168.355937
USER    NEWDPF quat0 0.101451 0.040494 0.994016 168.355937
USER  keepresnum = 1 
USER  
REMARK  0 active torsions:
REMARK  status: ('A' for Active; 'I' for Inactive)
REMARK       I    between atoms: C2_2  and  C4_4 
REMARK       I    between atoms: C4_4  and  C5_5 
REMARK       I    between atoms: C5_5  and  C6_6 
REMARK       I    between atoms: C5_5  and  N3_91 
REMARK       I    between atoms: C6_6  and  N1_89 
REMARK       I    between atoms: C7_7  and  C8_8 
REMARK       I    between atoms: C7_7  and  C11_11 
REMARK       I    between atoms: C7_7  and  N1_89 
REMARK       I    between atoms: C8_8  and  C9_9 
REMARK       I    between atoms: C9_9  and  S1_114 
REMARK       I    between atoms: C11_11  and  N2_90 
REMARK       I    between atoms: C12_12  and  C13_13 
REMARK       I    between atoms: C12_12  and  N3_91 
REMARK       I    between atoms: C13_13  and  C14_14 
REMARK       I    between atoms: C13_13  and  N6_95 
REMARK       I    between atoms: C14_14  and  C15_15 
REMARK       I    between atoms: C18_18  and  C19_19 
REMARK       I    between atoms: C18_18  and  N6_95 
REMARK       I    between atoms: C19_19  and  N7_96 
REMARK       I    between atoms: C20_20  and  C21_21 
REMARK       I    between atoms: C20_20  and  N7_96 
REMARK       I    between atoms: C21_21  and  C22_22 
REMARK       I    between atoms: C21_21  and  N8_97 
REMARK       I    between atoms: C25_25  and  C26_26 
REMARK       I    between atoms: C25_25  and  N8_97 
REMARK       I    between atoms: C26_26  and  N9_98 
REMARK       I    between atoms: C28_28  and  C29_29 
REMARK       I    between atoms: C28_28  and  N9_98 
REMARK       I    between atoms: C29_29  and  C30_30 
REMARK       I    between atoms: C29_29  and  N11_100 
REMARK       I    between atoms: C30_30  and  C31_31 
REMARK       I    between atoms: C39_39  and  C40_40 
REMARK       I    between atoms: C39_39  and  N11_100 
REMARK       I    between atoms: C40_40  and  C41_41 
REMARK       I    between atoms: C40_40  and  N13_102 
REMARK       I    between atoms: C41_41  and  C42_42 
REMARK       I    between atoms: C42_42  and  C43_43 
REMARK       I    between atoms: C43_43  and  N12_101 
REMARK       I    between atoms: C44_44  and  C45_45 
REMARK       I    between atoms: C44_44  and  N13_102 
REMARK       I    between atoms: C45_45  and  C46_46 
REMARK       I    between atoms: C45_45  and  N17_107 
REMARK       I    between atoms: C46_46  and  C47_47 
REMARK       I    between atoms: C47_47  and  C48_48 
REMARK       I    between atoms: C48_48  and  N14_103 
REMARK       I    between atoms: C49_49  and  N15_105 
REMARK       I    between atoms: C49_49  and  N16_106 
REMARK       I    between atoms: C50_50  and  C51_51 
REMARK       I    between atoms: C50_50  and  N17_107 
REMARK       I    between atoms: C51_51  and  N18_108 
REMARK       I    between atoms: C52_52  and  C53_53 
REMARK       I    between atoms: C52_52  and  N18_108 
REMARK       I    between atoms: C53_53  and  N19_109 
REMARK       I    between atoms: C54_54  and  C55_55 
REMARK       I    between atoms: C54_54  and  N19_109 
REMARK       I    between atoms: C55_55  and  N20_110 
REMARK       I    between atoms: C64_64  and  C65_65 
REMARK       I    between atoms: C64_64  and  N23_113 
REMARK       I    between atoms: C65_65  and  O15_84 
REMARK       I    between atoms: C66_66  and  C67_67 
REMARK       I    between atoms: C66_66  and  N22_112 
REMARK       I    between atoms: C67_67  and  O17_86 
REMARK       I    between atoms: C68_68  and  C69_69 
REMARK       I    between atoms: C68_68  and  N21_111 
REMARK       I    between atoms: C69_69  and  O19_88 
USER                              x       y       z     vdW  Elec       q    Type
USER                           _______ _______ _______ _____ _____    ______ ____
ROOT
ATOM      1  C1  UNL     1       7.525  10.504   5.221+99.99 +0.00    +0.009 C 
ATOM      2  C2  UNL     1       8.165   9.499   4.266+99.99 -0.00    -0.020 C 
ATOM      3  C3  UNL     1       7.483   9.556   2.899+21.47 +0.00    +0.009 C 
ATOM      4  C4  UNL     1       8.228   8.062   4.829+99.99 +0.00    +0.038 C 
ATOM      5  C5  UNL     1       6.880   7.398   5.149+99.99 +0.00    +0.177 C 
ATOM      6  C6  UNL     1       6.304   7.848   6.510+99.99 +0.00    +0.241 C 
ATOM      7  C7  UNL     1       4.202   8.026   7.829 +0.01 +0.00    +0.177 C 
ATOM      8  C8  UNL     1       2.732   8.323   7.503 -0.27 +0.00    +0.045 C 
ATOM      9  C9  UNL     1       1.866   8.673   8.715+99.99+99.99    +0.076 C 
ATOM     10  C10 UNL     1       1.172  10.271  10.845+99.99+99.99    +0.089 C 
ATOM     11  C11 UNL     1       4.342   6.790   8.738+72.11 +0.00    +0.238 C 
ATOM     12  C12 UNL     1       5.984   5.083   5.114 -0.18 +0.00    +0.241 C 
ATOM     13  C13 UNL     1       6.287   3.618   5.482 +0.04 +0.00    +0.182 C 
ATOM     14  C14 UNL     1       6.102   3.445   7.004 +0.63 +0.00    +0.093 C 
ATOM     15  C15 UNL     1       5.158   2.344   7.350+99.99 +0.00    +0.028 A 
ATOM     16  C16 UNL     1       3.896   2.340   7.901+61.19 +0.00    +0.114 A 
ATOM     17  C17 UNL     1       4.383   0.286   7.571+99.99 +0.00    +0.180 A 
ATOM     18  C18 UNL     1       8.210   2.063   5.063+22.01 +0.00    +0.236 C 
ATOM     19  C19 UNL     1       9.540   1.948   4.305+99.99 +0.00    +0.225 C 
ATOM     20  C20 UNL     1       9.235   2.846   2.026 +0.45 +0.00    +0.241 C 
ATOM     21  C21 UNL     1       9.632   3.953   1.019 +2.06 +0.00    +0.180 C 
ATOM     22  C22 UNL     1       8.933   5.304   1.308 -0.20 +0.00    +0.009 C 
ATOM     23  C23 UNL     1       9.358   6.379   0.300 -0.29 +0.00    +0.012 C 
ATOM     24  C24 UNL     1       7.406   5.160   1.265 -0.17 +0.00    +0.012 C 
ATOM     25  C25 UNL     1      11.925   4.584   1.854+99.99 +0.00    +0.240 C 
ATOM     26  C26 UNL     1      13.439   4.486   1.543+99.99 +0.00    +0.172 C 
ATOM     27  C27 UNL     1      13.778   5.237   0.261+27.44 +0.00    +0.042 C 
ATOM     28  C28 UNL     1      14.313   4.305   3.834+99.99 +0.00    +0.241 C 
ATOM     29  C29 UNL     1      15.150   4.958   4.954+99.99 +0.00    +0.181 C 
ATOM     30  C30 UNL     1      14.464   6.201   5.575 +0.03 +0.00    +0.075 C 
ATOM     31  C31 UNL     1      14.678   7.499   4.829 -0.44 -0.00    -0.028 A 
ATOM     32  C32 UNL     1      15.836   8.260   4.832 +0.88 +0.00    +0.096 A 
ATOM     33  C33 UNL     1      14.429   9.258   3.397 +0.44 +0.00    +0.042 A 
ATOM     34  C34 UNL     1      13.845  10.102   2.445+61.09 +0.00    +0.030 A 
ATOM     35  C35 UNL     1      12.519   9.853   2.084+99.99 +0.00    +0.002 A 
ATOM     36  C36 UNL     1      11.806   8.806   2.662+19.07 +0.00    +0.001 A 
ATOM     37  C37 UNL     1      12.407   7.974   3.613 -0.39 +0.00    +0.014 A 
ATOM     38  C38 UNL     1      13.751   8.186   3.978 -0.45 -0.00    -0.002 A 
ATOM     39  C39 UNL     1      17.510   4.367   4.303+99.99 +0.00    +0.241 C 
ATOM     40  C40 UNL     1      18.738   5.014   3.632+99.99 +0.00    +0.177 C 
ATOM     41  C41 UNL     1      19.816   4.034   3.176+99.99 +0.00    +0.044 C 
ATOM     42  C42 UNL     1      19.347   3.029   2.122+99.99 +0.00    +0.105 C 
ATOM     43  C43 UNL     1      20.467   2.648   1.178+35.06 +0.00    +0.215 C 
ATOM     44  C44 UNL     1      18.872   7.086   2.261+87.33 +0.00    +0.241 C 
ATOM     45  C45 UNL     1      18.204   7.928   1.129+37.54 +0.00    +0.176 C 
ATOM     46  C46 UNL     1      17.937   7.184  -0.191+99.99 +0.00    +0.036 C 
ATOM     47  C47 UNL     1      19.082   7.047  -1.208+99.99 +0.00    +0.022 C 
ATOM     48  C48 UNL     1      20.372   6.446  -0.658+99.99 +0.00    +0.121 C 
ATOM     49  C49 UNL     1      22.163   7.186   0.666+23.80 +0.00    +0.121 C 
ATOM     50  C50 UNL     1      18.908  10.154   1.856 -0.33 +0.00    +0.236 C 
ATOM     51  C51 UNL     1      20.221  10.904   2.067 -0.36 +0.00    +0.225 C 
ATOM     52  C52 UNL     1      22.271  10.579   3.386 +0.55 +0.00    +0.235 C 
ATOM     53  C53 UNL     1      23.046   9.610   4.289 -0.41 +0.00    +0.225 C 
ATOM     54  C54 UNL     1      25.365   9.310   3.476 -0.31 +0.00    +0.246 C 
ATOM     55  C55 UNL     1      26.729  10.009   3.377 +2.04 +0.00    +0.374 C 
ATOM     56  C56 UNL     1      27.214   9.855   0.962 +9.66 +0.00    +0.303 C 
ATOM     57  C57 UNL     1      28.694   9.362   0.933+10.49 +0.00    +0.303 C 
ATOM     58  C58 UNL     1      30.940  10.321   0.623 +5.32 +0.00    +0.303 C 
ATOM     59  C59 UNL     1      31.119  10.979   2.030+99.99 +0.00    +0.303 C 
ATOM     60  C60 UNL     1      29.890  13.087   1.584+52.26 +0.00    +0.303 C 
ATOM     61  C61 UNL     1      28.411  13.577   1.557+99.99 +0.00    +0.303 C 
ATOM     62  C62 UNL     1      26.222  12.816   0.736 +9.34 +0.00    +0.303 C 
ATOM     63  C63 UNL     1      25.915  11.766   1.854+45.61 +0.00    +0.303 C 
ATOM     64  C64 UNL     1      27.818  13.928  -0.772+99.99 +0.00    +0.381 C 
ATOM     65  C65 UNL     1      27.179  13.414  -2.055+99.99 +0.00    +0.169 C 
ATOM     66  C66 UNL     1      30.171  12.265   3.901+99.99 +0.00    +0.381 C 
ATOM     67  C67 UNL     1      31.432  13.014   4.322 +3.33 +0.00    +0.169 C 
ATOM     68  C68 UNL     1      29.522   9.808  -1.312+72.89 +0.00    +0.381 C 
ATOM     69  C69 UNL     1      30.033  10.878  -2.277+99.99 +0.00    +0.169 C 
ATOM     70  O1  UNL     1       7.004   8.144   7.477+99.99 -0.00    -0.271 OA
ATOM     71  O2  UNL     1       3.519   5.881   8.805+37.38 -0.00    -0.271 OA
ATOM     72  O3  UNL     1       4.858   5.494   4.848 -0.12 -0.00    -0.271 OA
ATOM     73  O4  UNL     1       7.749   1.141   5.730+99.99 -0.00    -0.272 OA
ATOM     74  O5  UNL     1       8.477   1.931   1.711 -0.22 -0.00    -0.271 OA
ATOM     75  O6  UNL     1      11.475   5.070   2.892 +1.40 -0.00    -0.271 OA
ATOM     76  O7  UNL     1      13.715   3.242   3.994+99.99 -0.00    -0.271 OA
ATOM     77  O8  UNL     1      17.491   3.237   4.768+99.99 -0.00    -0.271 OA
ATOM     78  O9  UNL     1      21.359   3.413   0.825+19.47 -0.00    -0.274 OA
ATOM     79  O10 UNL     1      19.804   7.509   2.950+18.36 -0.00    -0.271 OA
ATOM     80  O11 UNL     1      17.904  10.353   2.537 -0.28 -0.00    -0.272 OA
ATOM     81  O12 UNL     1      22.699  11.698   3.098+99.99 -0.00    -0.272 OA
ATOM     82  O13 UNL     1      25.106   8.264   2.882 -0.37 -0.00    -0.272 OA
ATOM     83  O14 UNL     1      26.682  14.124  -2.921+99.99 -0.00    -0.649 OA
ATOM     84  O15 UNL     1      27.216  12.082  -2.247+99.99 -0.00    -0.775 OA
ATOM     85  O16 UNL     1      32.372  13.388   3.642 -0.05 -0.00    -0.649 OA
ATOM     86  O17 UNL     1      31.437  13.266   5.653 +0.07 -0.00    -0.775 OA
ATOM     87  O18 UNL     1      30.523  11.973  -2.051+99.99 -0.00    -0.649 OA
ATOM     88  O19 UNL     1      29.917  10.471  -3.566+10.97 -0.00    -0.775 OA
ATOM     89  N1  UNL     1       4.930   7.750   6.587 +5.11 -0.00    -0.346 N 
ATOM     90  N2  UNL     1       5.517   6.718   9.433+99.99 -0.00    -0.368 N 
ATOM     91  N3  UNL     1       7.061   5.945   5.253 +0.04 -0.00    -0.346 N 
ATOM     92  N4  UNL     1       3.425   1.058   8.033 +9.19 -0.00    -0.360 N 
ATOM     93  H4  UNL     1       2.523   0.766   8.410 +0.08 +0.00    +0.166 HD
ATOM     94  N5  UNL     1       5.455   1.018   7.153+99.99 -0.00    -0.354 N 
ATOM     95  N6  UNL     1       7.658   3.328   5.029 -0.00 -0.00    -0.346 N 
ATOM     96  N7  UNL     1       9.705   3.000   3.311 +0.04 -0.00    -0.351 N 
ATOM     97  N8  UNL     1      11.099   4.028   0.902+99.99 -0.00    -0.346 N 
ATOM     98  N9  UNL     1      14.244   5.011   2.643+99.99 -0.00    -0.346 N 
ATOM     99  N10 UNL     1      15.692   9.288   3.939 -0.15 -0.00    -0.365 N 
ATOM    100  N11 UNL     1      16.473   5.267   4.416+99.99 -0.00    -0.346 N 
ATOM    101  N12 UNL     1      20.374   1.392   0.659+99.99 -0.00    -0.370 N 
ATOM    102  N13 UNL     1      18.273   5.878   2.537 +7.49 -0.00    -0.346 N 
ATOM    103  N14 UNL     1      21.121   7.513  -0.005+99.99 -0.00    -0.372 N 
ATOM    104  H14 UNL     1      20.826   8.486  -0.080 +0.73 +0.00    +0.161 HD
ATOM    105  N15 UNL     1      22.877   8.160   1.257 -0.18 -0.00    -0.279 NA
ATOM    106  N16 UNL     1      22.713   5.977   0.901 +1.61 -0.00    -0.279 NA
ATOM    107  N17 UNL     1      19.014   9.121   0.937 +2.45 -0.00    -0.346 N 
ATOM    108  N18 UNL     1      21.043  10.125   2.977 -0.07 -0.00    -0.351 N 
ATOM    109  N19 UNL     1      24.456   9.970   4.281 +0.12 -0.00    -0.351 N 
ATOM    110  N20 UNL     1      26.923  10.728   2.109+99.99 +0.00    +0.100 N 
ATOM    111  N21 UNL     1      29.565  10.217   0.106 +3.60 +0.00    +0.101 N 
ATOM    112  N22 UNL     1      30.087  11.926   2.469+99.99 +0.00    +0.101 N 
ATOM    113  N23 UNL     1      27.638  13.053   0.409 +9.24 +0.00    +0.101 N 
ATOM    114  S1  UNL     1       2.374  10.241   9.492 -0.27 -0.00    -0.173 SA
ATOM    115  H86 UNL     1      26.774  11.959  -3.110+13.09 +0.00    +0.167 HD
ATOM    116  H87 UNL     1      32.282  13.743   5.789 +0.07 +0.00    +0.167 HD
ATOM    117  H88 UNL     1      30.280  11.235  -4.062+99.99 +0.00    +0.167 HD
ATOM    118  H89 UNL     1       4.496   7.092   5.934 +0.09 +0.00    +0.163 HD
ATOM    119  H90 UNL     1       6.307   7.283   9.123 +0.87 +0.00    +0.159 HD
ATOM    120  H91 UNL     1       5.708   5.864   9.939+99.99 +0.00    +0.159 HD
ATOM    121  H92 UNL     1       7.831   5.614   5.827 +0.09 +0.00    +0.163 HD
ATOM    122  H93 UNL     1       6.312   0.658   6.738+99.99 +0.00    +0.166 HD
ATOM    123  H94 UNL     1       8.002   3.888   4.254 +0.08 +0.00    +0.163 HD
ATOM    124  H95 UNL     1      10.422   3.707   3.478 -0.35 +0.00    +0.163 HD
ATOM    125  H96 UNL     1      11.517   3.399   0.227 +1.92 +0.00    +0.163 HD
ATOM    126  H97 UNL     1      14.292   6.020   2.727 +0.78 +0.00    +0.163 HD
ATOM    127  H98 UNL     1      16.420   9.950   3.676 +0.12 +0.00    +0.165 HD
ATOM    128  H99 UNL     1      16.576   6.125   3.887+41.59 +0.00    +0.163 HD
ATOM    129  HA0 UNL     1      19.814   0.675   1.100 +2.36 +0.00    +0.159 HD
ATOM    130  HA1 UNL     1      21.148   1.082   0.083 +3.95 +0.00    +0.159 HD
ATOM    131  HA2 UNL     1      17.538   5.523   1.939 +0.16 +0.00    +0.163 HD
ATOM    132  HA3 UNL     1      23.856   7.953   1.465 +0.10 +0.00    +0.126 HD
ATOM    133  HA4 UNL     1      22.770   9.062   0.811 +0.09 +0.00    +0.126 HD
ATOM    134  HA5 UNL     1      22.146   5.151   0.701 +0.19 +0.00    +0.126 HD
ATOM    135  HA6 UNL     1      23.148   5.892   1.813 +0.11 +0.00    +0.126 HD
ATOM    136  HA7 UNL     1      19.967   8.892   0.637 +0.47 +0.00    +0.163 HD
ATOM    137  HA8 UNL     1      20.859   9.117   3.029 +0.10 +0.00    +0.163 HD
ATOM    138  HA9 UNL     1      24.642  10.951   4.458 +0.08 +0.00    +0.163 HD
ENDROOT
TORSDOF 50
TER
