USER    Run = 1
USER    DPF = ligand_516_receptor.dpf
USER  
USER    Estimated Free Energy of Binding    =  -11.33 kcal/mol  [=(1)+(2)+(3)-(4)]
USER    Estimated Inhibition Constant, Ki   =    4.94 nM (nanomolar)  [Temperature = 298.15 K]
USER    
USER    (1) Final Intermolecular Energy     =  -12.53 kcal/mol
USER        vdW + Hbond + desolv Energy     =  -12.53 kcal/mol
USER        Electrostatic Energy            =   +0.00 kcal/mol
USER    (2) Final Total Internal Energy     =   -2.27 kcal/mol
USER    (3) Torsional Free Energy           =   +1.19 kcal/mol
USER    (4) Unbound System's Energy  [=(2)] =   -2.27 kcal/mol
USER    
USER    
USER    NEWDPF move ligand_516.pdbqt
USER    NEWDPF about 0.000000 0.000000 0.000000
USER    NEWDPF tran0 14.612595 7.418559 6.685559
USER    NEWDPF quaternion0 0.752384 -0.044292 -0.550255 0.359410
USER    NEWDPF axisangle0 0.806259 -0.047464 -0.589656 137.872014
USER    NEWDPF quat0 0.806259 -0.047464 -0.589656 137.872014
USER    NEWDPF dihe0 -108.89 -91.94 -36.11 39.97 -57.79 -84.38 -34.07 -125.81 180.00 96.00 
USER  keepresnum = 1 
USER  
REMARK  10 active torsions:
REMARK  status: ('A' for Active; 'I' for Inactive)
REMARK    1  A    between atoms: C3_3  and  C22_22 
REMARK    2  A    between atoms: C6_6  and  N1_34 
REMARK    3  A    between atoms: C8_8  and  C9_9 
REMARK       I    between atoms: C8_8  and  N1_34 
REMARK    4  A    between atoms: C11_11  and  C13_13 
REMARK    5  A    between atoms: C15_15  and  C16_16 
REMARK    6  A    between atoms: C17_17  and  N4_38 
REMARK    7  A    between atoms: C19_19  and  N7_43 
REMARK       I    between atoms: C22_22  and  N8_44 
REMARK    8  A    between atoms: C27_27  and  C28_28 
REMARK       I    between atoms: C27_27  and  N9_45 
REMARK    9  A    between atoms: C28_28  and  N10_46 
REMARK   10  A    between atoms: C31_31  and  O4_50 
USER                              x       y       z     vdW  Elec       q    Type
USER                           _______ _______ _______ _____ _____    ______ ____
ROOT
ATOM      1  C8  UNL     1      14.400   8.278   3.479 -0.28 +0.00    +0.290 C 
ATOM      2  N1  UNL     1      14.569   7.070   4.132 -0.22 -0.00    -0.320 N 
ATOM      3  O1  UNL     1      13.419   9.007   3.571 +0.01 -0.00    -0.264 OA
ATOM      4  H35 UNL     1      15.472   6.637   3.945 -0.04 +0.00    +0.169 HD
ENDROOT
BRANCH   1   5
ATOM      5  C9  UNL     1      15.568   8.606   2.665 -0.36 +0.00    +0.177 C 
ATOM      6  N2  UNL     1      15.638   8.306   1.377 +0.06 -0.00    -0.345 N 
ATOM      7  C10 UNL     1      16.875   8.726   0.971 -0.48 +0.00    +0.120 C 
ATOM      8  H2  UNL     1      14.921   7.857   0.807 -0.45 +0.00    +0.167 HD
ATOM      9  C11 UNL     1      17.604   9.248   2.023 -0.49 +0.00    +0.065 C 
ATOM     10  N3  UNL     1      16.713   9.266   3.072 -0.22 -0.00    -0.331 N 
ATOM     11  C12 UNL     1      16.802  10.040   4.288 -0.21 +0.00    +0.158 C 
BRANCH   9  12
ATOM     12  C13 UNL     1      19.096   9.700   1.930 -0.32 +0.00    +0.043 A 
ATOM     13  C14 UNL     1      20.112   8.991   2.536 +0.55 +0.00    +0.134 A 
ATOM     14  N4  UNL     1      21.300   9.619   2.233 -0.27 -0.00    -0.250 N 
ATOM     15  N5  UNL     1      21.076  10.734   1.494 -0.14 -0.00    -0.288 N 
ATOM     16  C15 UNL     1      19.740  10.821   1.341 -0.41 +0.00    +0.146 A 
ATOM     17  H5  UNL     1      21.778  11.377   1.127 +0.44 +0.00    +0.187 HD
BRANCH  14  18
ATOM     18  C17 UNL     1      22.633   9.231   2.601 -0.37 +0.00    +0.126 A 
ATOM     19  C21 UNL     1      23.154   9.589   3.843 -0.53 +0.00    +0.052 A 
ATOM     20  C20 UNL     1      24.454   9.190   4.171 -0.39 +0.00    +0.028 A 
ATOM     21  C19 UNL     1      25.200   8.416   3.288 -0.57 +0.00    +0.021 A 
ATOM     22  C18 UNL     1      24.618   8.161   2.050 -0.36 +0.00    +0.113 A 
ATOM     23  N6  UNL     1      23.361   8.524   1.700 -0.17 -0.00    -0.349 N 
ATOM     24  H6  UNL     1      22.975   8.274   0.789 +0.12 +0.00    +0.167 HD
BRANCH  21  25
ATOM     25  N7  UNL     1      26.540   8.124   3.555 -0.03 -0.00    -0.302 NA
ATOM     26  H36 UNL     1      26.682   7.481   4.330 -0.48 +0.00    +0.124 HD
ATOM     27  H37 UNL     1      27.144   8.937   3.619 -0.48 +0.00    +0.124 HD
ENDBRANCH  21  25
ENDBRANCH  14  18
BRANCH  16  28
ATOM     28  C16 UNL     1      19.135  12.038   0.699 -0.33 +0.00    +0.434 C 
ATOM     29  F1  UNL     1      17.778  11.944   0.619 -0.20 -0.00    -0.165 F 
ATOM     30  F2  UNL     1      19.387  13.193   1.371 -0.30 -0.00    -0.165 F 
ATOM     31  F3  UNL     1      19.579  12.224  -0.573 -0.17 -0.00    -0.165 F 
ENDBRANCH  16  28
ENDBRANCH   9  12
ENDBRANCH   1   5
BRANCH   2  32
ATOM     32  C6  UNL     1      13.683   6.406   4.997 -0.37 +0.00    +0.035 A 
ATOM     33  C5  UNL     1      13.990   5.219   5.660 +0.80 +0.00    +0.030 A 
ATOM     34  C4  UNL     1      13.053   4.624   6.509 -0.52 +0.00    +0.020 A 
ATOM     35  C3  UNL     1      11.788   5.201   6.684 -0.38 +0.00    +0.038 A 
ATOM     36  C2  UNL     1      11.462   6.401   6.033 -0.31 -0.00    -0.044 A 
ATOM     37  C1  UNL     1      10.139   7.087   6.234 +0.60 +0.00    +0.049 C 
ATOM     38  C7  UNL     1      12.426   6.995   5.199 -0.36 +0.00    +0.037 A 
BRANCH  35  39
ATOM     39  C22 UNL     1      10.831   4.533   7.604 -0.31 +0.00    +0.254 C 
ATOM     40  N8  UNL     1      10.008   3.528   7.086 -0.24 -0.00    -0.345 N 
ATOM     41  C23 UNL     1       9.109   2.855   8.023 -0.40 +0.00    +0.146 C 
ATOM     42  C26 UNL     1       9.478   3.575   5.723 -0.38 +0.00    +0.146 C 
ATOM     43  C24 UNL     1       7.753   3.571   8.072 -0.03 +0.00    +0.145 C 
ATOM     44  N9  UNL     1       7.177   3.788   6.726 -0.16 -0.00    -0.348 N 
ATOM     45  C25 UNL     1       8.117   4.299   5.706 -0.32 +0.00    +0.145 C 
ATOM     46  C27 UNL     1       5.795   3.931   6.643 -0.28 +0.00    +0.246 C 
ATOM     47  O3  UNL     1       5.055   3.703   7.603 -0.65 -0.00    -0.272 OA
ATOM     48  O2  UNL     1      10.799   4.879   8.781 -0.26 -0.00    -0.267 OA
BRANCH  46  49
ATOM     49  C28 UNL     1       5.199   4.359   5.286 -0.15 +0.00    +0.339 C 
BRANCH  49  50
ATOM     50  N10 UNL     1       4.117   3.402   4.685 -0.17 -0.00    -0.060 N 
ATOM     51  C29 UNL     1       4.200   2.016   5.367 -0.19 +0.00    +0.240 C 
ATOM     52  C30 UNL     1       4.260   1.012   4.227 -0.37 +0.00    +0.061 C 
ATOM     53  C31 UNL     1       5.052   1.741   3.164 -0.25 +0.00    +0.145 C 
ATOM     54  C32 UNL     1       4.431   3.138   3.191 -0.07 +0.00    +0.269 C 
ATOM     55  C33 UNL     1       2.732   4.004   4.838 -0.06 +0.00    +0.273 C 
BRANCH  53  56
ATOM     56  O4  UNL     1       6.425   1.811   3.544 -0.21 -0.00    -0.394 OA
ATOM     57  H38 UNL     1       6.466   1.824   4.521 -0.39 +0.00    +0.210 HD
ENDBRANCH  53  56
ENDBRANCH  49  50
ENDBRANCH  46  49
ENDBRANCH  35  39
ENDBRANCH   2  32
TORSDOF 10
TER
