USER    Run = 1
USER    DPF = ligand_488_receptor.dpf
USER  
USER    Estimated Free Energy of Binding    = +206.14 kcal/mol  [=(1)+(2)+(3)-(4)]
USER    
USER    (1) Final Intermolecular Energy     = +204.94 kcal/mol
USER        vdW + Hbond + desolv Energy     = +204.94 kcal/mol
USER        Electrostatic Energy            =   +0.00 kcal/mol
USER    (2) Final Total Internal Energy     =  +15.24 kcal/mol
USER    (3) Torsional Free Energy           =   +1.19 kcal/mol
USER    (4) Unbound System's Energy  [=(2)] =  +15.24 kcal/mol
USER    
USER    
USER    NEWDPF move ligand_488.pdbqt
USER    NEWDPF about 0.000000 0.000000 0.000000
USER    NEWDPF tran0 11.785101 6.932269 0.123204
USER    NEWDPF quaternion0 -0.542054 -0.202671 0.726802 0.369946
USER    NEWDPF axisangle0 -0.583448 -0.218148 0.782304 136.575456
USER    NEWDPF quat0 -0.583448 -0.218148 0.782304 136.575456
USER    NEWDPF dihe0 78.08 163.44 160.58 -143.57 108.85 150.44 0.13 158.85 94.36 -53.87 35.31 31.00 106.96 179.10 39.69 132.99 180.00 139.78 -180.00 -57.30 -6.54 
USER  keepresnum = 1 
USER  
REMARK  21 active torsions:
REMARK  status: ('A' for Active; 'I' for Inactive)
REMARK    1  A    between atoms: C2_2  and  C46_46 
REMARK    2  A    between atoms: C7_7  and  C8_8 
REMARK    3  A    between atoms: C7_7  and  C37_37 
REMARK    4  A    between atoms: C7_7  and  O1_47 
REMARK    5  A    between atoms: C8_8  and  N1_55 
REMARK    6  A    between atoms: C9_9  and  C10_10 
REMARK    7  A    between atoms: C9_9  and  N1_55 
REMARK    8  A    between atoms: C13_13  and  N2_56 
REMARK    9  A    between atoms: C15_15  and  O2_48 
REMARK   10  A    between atoms: C17_17  and  C18_18 
REMARK       I    between atoms: C17_17  and  N2_56 
REMARK   11  A    between atoms: C18_18  and  C19_19 
REMARK   12  A    between atoms: C19_19  and  N3_57 
REMARK   13  A    between atoms: C21_21  and  N3_57 
REMARK   14  A    between atoms: C24_24  and  O4_50 
REMARK   15  A    between atoms: C27_27  and  C28_28 
REMARK   16  A    between atoms: C27_27  and  O4_50 
REMARK   17  A    between atoms: C28_28  and  C29_29 
REMARK   18  A    between atoms: C28_28  and  C33_33 
REMARK   19  A    between atoms: C28_28  and  O6_52 
REMARK   20  A    between atoms: C43_43  and  O8_54 
REMARK   21  A    between atoms: C46_46  and  O1_47 
USER                              x       y       z     vdW  Elec       q    Type
USER                           _______ _______ _______ _____ _____    ______ ____
ROOT
ATOM      1  C10 UNL     1      14.566   8.767   2.676 +2.54 +0.00    +0.005 A 
ATOM      2  C11 UNL     1      13.438   8.081   2.200+16.61 +0.00    +0.038 A 
ATOM      3  C12 UNL     1      13.456   7.419   0.964 +6.07 +0.00    +0.061 A 
ATOM      4  C13 UNL     1      14.607   7.460   0.157 +2.87 +0.00    +0.059 A 
ATOM      5  C14 UNL     1      15.754   8.089   0.658 +0.39 +0.00    +0.068 A 
ATOM      6  C15 UNL     1      15.732   8.725   1.905 -0.16 +0.00    +0.078 A 
ATOM      7 CL1  UNL     1      12.078   6.432   0.612 -0.57 -0.00    -0.082 Cl
ENDROOT
BRANCH   4   8
ATOM      8  N2  UNL     1      14.727   6.873  -1.125 +1.30 -0.00    -0.326 N 
ATOM      9  C17 UNL     1      13.702   6.826  -2.063+18.19 +0.00    +0.223 C 
ATOM     10  O3  UNL     1      12.620   7.390  -1.957 +2.37 -0.00    -0.273 OA
ATOM     11  H56 UNL     1      15.660   6.826  -1.515 +0.13 +0.00    +0.169 HD
BRANCH   9  12
ATOM     12  C18 UNL     1      14.124   6.084  -3.319+18.73 +0.00    +0.133 C 
BRANCH  12  13
ATOM     13  C19 UNL     1      15.356   6.691  -4.002 +5.89 +0.00    +0.281 C 
BRANCH  13  14
ATOM     14  N3  UNL     1      16.629   6.251  -3.390+17.27 +0.00    +0.089 N 
ATOM     15  C20 UNL     1      17.362   5.359  -4.299 +4.83 +0.00    +0.310 C 
BRANCH  14  16
ATOM     16  C21 UNL     1      17.498   7.358  -2.930 -0.20 +0.00    +0.222 C 
ATOM     17  C22 UNL     1      18.829   6.809  -2.375+16.28 +0.00    +0.038 C 
ATOM     18  C23 UNL     1      19.784   7.939  -1.992+17.82 +0.00    +0.035 C 
ATOM     19  C24 UNL     1      19.142   8.908  -0.997+13.17 +0.00    +0.132 C 
ATOM     20  C25 UNL     1      17.826   9.458  -1.550 +4.24 +0.00    +0.035 C 
ATOM     21  C26 UNL     1      16.857   8.339  -1.928 -0.06 +0.00    +0.038 C 
BRANCH  19  22
ATOM     22  O4  UNL     1      20.015  10.029  -0.778 +8.21 -0.00    -0.313 OA
BRANCH  22  23
ATOM     23  C27 UNL     1      21.291   9.747  -0.389 +1.06 +0.00    +0.305 C 
ATOM     24  O5  UNL     1      21.953   8.810  -0.835 +0.11 -0.00    -0.261 OA
BRANCH  23  25
ATOM     25  C28 UNL     1      21.858  10.765   0.637 +0.57 +0.00    +0.213 C 
BRANCH  25  26
ATOM     26  C29 UNL     1      20.744  11.624   1.226 +0.32 +0.00    +0.032 A 
ATOM     27  C30 UNL     1      20.354  11.792   2.547 +0.76 +0.00    +0.019 A 
ATOM     28  C31 UNL     1      19.259  12.693   2.695 +0.46 +0.00    +0.008 A 
ATOM     29  C32 UNL     1      18.836  13.193   1.487 -0.62 +0.00    +0.050 A 
ATOM     30  S1  UNL     1      19.752  12.584   0.183 -0.16 -0.00    -0.102 SA
ENDBRANCH  25  26
BRANCH  25  31
ATOM     31  C33 UNL     1      22.746  10.058   1.650 +0.40 +0.00    +0.032 A 
ATOM     32  C34 UNL     1      22.545   9.924   3.016 -0.36 +0.00    +0.019 A 
ATOM     33  C35 UNL     1      23.591   9.209   3.666 -0.56 +0.00    +0.008 A 
ATOM     34  C36 UNL     1      24.568   8.813   2.783 -0.50 +0.00    +0.050 A 
ATOM     35  S2  UNL     1      24.224   9.299   1.183 -0.47 -0.00    -0.102 SA
ENDBRANCH  25  31
BRANCH  25  36
ATOM     36  O6  UNL     1      22.713  11.669  -0.093 +1.81 -0.00    -0.370 OA
ATOM     37  H53 UNL     1      22.350  12.559   0.073 +0.55 +0.00    +0.212 HD
ENDBRANCH  25  36
ENDBRANCH  23  25
ENDBRANCH  22  23
ENDBRANCH  19  22
ENDBRANCH  14  16
ENDBRANCH  13  14
ENDBRANCH  12  13
ENDBRANCH   9  12
ENDBRANCH   4   8
BRANCH   6  38
ATOM     38  O2  UNL     1      16.861   9.379   2.322 -0.22 -0.00    -0.355 OA
ATOM     39  C16 UNL     1      16.964  10.648   1.670 -0.40 +0.00    +0.210 C 
ENDBRANCH   6  38
BRANCH   1  40
ATOM     40  C9  UNL     1      14.507   9.481   4.003 +3.41 +0.00    +0.311 C 
BRANCH  40  41
ATOM     41  N1  UNL     1      13.458   8.919   4.851 +0.07 +0.00    +0.090 N 
ATOM     42  H55 UNL     1      13.860   8.566   5.720 +0.24 +0.00    +0.316 HD
BRANCH  41  43
ATOM     43  C8  UNL     1      12.703   7.853   4.178 -0.27 +0.00    +0.306 C 
BRANCH  43  44
ATOM     44  C7  UNL     1      11.211   7.667   4.595 -0.34 +0.00    +0.184 C 
BRANCH  44  45
ATOM     45  C37 UNL     1      10.987   6.317   5.276 -0.30 -0.00    -0.015 A 
ATOM     46  C38 UNL     1       9.726   5.686   5.375 -0.28 +0.00    +0.003 A 
ATOM     47  C39 UNL     1       8.465   6.255   4.869 +0.18 +0.00    +0.020 A 
ATOM     48  C42 UNL     1       9.645   4.425   6.001 -0.33 +0.00    +0.079 A 
ATOM     49  C40 UNL     1       7.304   5.596   4.994 -0.17 +0.00    +0.075 A 
ATOM     50  C41 UNL     1       7.232   4.271   5.650 -0.20 +0.00    +0.245 A 
ATOM     51  O7  UNL     1       6.162   3.684   5.763 -0.25 -0.00    -0.268 OA
ATOM     52  N4  UNL     1       8.410   3.768   6.111 -0.20 -0.00    -0.321 N 
ATOM     53  H57 UNL     1       8.393   2.864   6.569 -0.19 +0.00    +0.169 HD
ATOM     54  C43 UNL     1      10.779   3.797   6.524 -0.40 +0.00    +0.093 A 
ATOM     55  C44 UNL     1      12.017   4.408   6.436 -0.45 +0.00    +0.039 A 
ATOM     56  C45 UNL     1      12.117   5.654   5.816 -0.38 +0.00    +0.013 A 
BRANCH  54  57
ATOM     57  O8  UNL     1      10.637   2.573   7.122 -0.11 -0.00    -0.358 OA
ATOM     58  H54 UNL     1       9.702   2.446   7.351 +0.15 +0.00    +0.217 HD
ENDBRANCH  54  57
ENDBRANCH  44  45
BRANCH  44  59
ATOM     59  O1  UNL     1      10.872   8.696   5.539 -0.10 -0.00    -0.368 OA
BRANCH  59  60
ATOM     60  C46 UNL     1      10.906   8.421   7.193 +4.26 +0.00    +0.061 C 
ATOM     61  C5  UNL     1       9.746   9.613   8.076+19.01 +0.00    +0.046 C 
ATOM     62  C6  UNL     1      10.455   6.662   7.668+14.05 +0.00    +0.046 C 
BRANCH  60  63
ATOM     63  C2  UNL     1      12.814   8.800   7.904 -0.58 -0.00    -0.021 C 
ATOM     64  C1  UNL     1      13.467   9.902   7.047 +1.50 +0.00    +0.017 C 
ATOM     65  C3  UNL     1      13.641   7.502   7.815 -0.40 +0.00    +0.017 C 
ATOM     66  C4  UNL     1      12.732   9.263   9.372 +8.37 +0.00    +0.017 C 
ENDBRANCH  60  63
ENDBRANCH  59  60
ENDBRANCH  44  59
ENDBRANCH  43  44
ENDBRANCH  41  43
ENDBRANCH  40  41
ENDBRANCH   1  40
TORSDOF 21
TER
