USER    Run = 1
USER    DPF = ligand_310_receptor.dpf
USER  
USER    Estimated Free Energy of Binding    =  +2.59e+004 kcal/mol  [=(1)+(2)+(3)-(4)]
USER    
USER    (1) Final Intermolecular Energy     =  +2.59e+004 kcal/mol
USER        vdW + Hbond + desolv Energy     =  +2.59e+004 kcal/mol
USER        Electrostatic Energy            =   +0.00 kcal/mol
USER    (2) Final Total Internal Energy     =   +0.00 kcal/mol
USER    (3) Torsional Free Energy           =   +1.19 kcal/mol
USER    (4) Unbound System's Energy  [=(2)] =   +0.00 kcal/mol
USER    
USER    
USER    NEWDPF move ligand_310.pdbqt
USER    NEWDPF about 0.000000 0.000000 0.000000
USER    NEWDPF tran0 16.899939 6.981925 1.762917
USER    NEWDPF quaternion0 0.302955 -0.113986 -0.048356 0.944927
USER    NEWDPF axisangle0 0.925672 -0.348283 -0.147752 38.207702
USER    NEWDPF quat0 0.925672 -0.348283 -0.147752 38.207702
USER  keepresnum = 1 
USER  
REMARK  0 active torsions:
REMARK  status: ('A' for Active; 'I' for Inactive)
REMARK       I    between atoms: C3_3  and  N5_75 
REMARK       I    between atoms: C4_4  and  O16_67 
REMARK       I    between atoms: C6_6  and  C7_7 
REMARK       I    between atoms: C6_6  and  O4_55 
REMARK       I    between atoms: C7_7  and  O3_54 
REMARK       I    between atoms: C8_8  and  C9_9 
REMARK       I    between atoms: C8_8  and  O4_55 
REMARK       I    between atoms: C9_9  and  C10_10 
REMARK       I    between atoms: C10_10  and  S1_69 
REMARK       I    between atoms: C11_11  and  C12_12 
REMARK       I    between atoms: C11_11  and  S1_69 
REMARK       I    between atoms: C12_12  and  N1_71 
REMARK       I    between atoms: C13_13  and  C14_14 
REMARK       I    between atoms: C13_13  and  N1_71 
REMARK       I    between atoms: C17_17  and  C20_20 
REMARK       I    between atoms: C20_20  and  N2_72 
REMARK       I    between atoms: C21_21  and  C22_22 
REMARK       I    between atoms: C21_21  and  N2_72 
REMARK       I    between atoms: C22_22  and  S2_70 
REMARK       I    between atoms: C23_23  and  C24_24 
REMARK       I    between atoms: C23_23  and  S2_70 
REMARK       I    between atoms: C24_24  and  C25_25 
REMARK       I    between atoms: C25_25  and  O7_58 
REMARK       I    between atoms: C26_26  and  C49_49 
REMARK       I    between atoms: C26_26  and  O7_58 
REMARK       I    between atoms: C28_28  and  O13_64 
REMARK       I    between atoms: C29_29  and  N4_74 
REMARK       I    between atoms: C30_30  and  C31_31 
REMARK       I    between atoms: C31_31  and  C32_32 
REMARK       I    between atoms: C31_31  and  O11_62 
REMARK       I    between atoms: C32_32  and  C33_33 
REMARK       I    between atoms: C32_32  and  O10_61 
REMARK       I    between atoms: C33_33  and  N3_73 
REMARK       I    between atoms: C34_34  and  C35_35 
REMARK       I    between atoms: C34_34  and  N3_73 
REMARK       I    between atoms: C38_38  and  C41_41 
REMARK       I    between atoms: C47_47  and  N4_74 
REMARK       I    between atoms: C49_49  and  O15_66 
REMARK       I    between atoms: C50_50  and  N5_75 
USER                              x       y       z     vdW  Elec       q    Type
USER                           _______ _______ _______ _____ _____    ______ ____
ROOT
ATOM      1  C1  UNL     1       4.752   6.730   6.416 +0.27 +0.00    +0.042 C 
ATOM      2  C2  UNL     1       5.345   5.332   6.266 -0.33 +0.00    +0.147 C 
ATOM      3  C3  UNL     1       4.308   4.181   6.236 -0.32 +0.00    +0.142 C 
ATOM      4  C4  UNL     1       4.953   3.013   5.465 -0.15 +0.00    +0.149 C 
ATOM      5  C5  UNL     1       5.283   3.397   4.025 -0.19 +0.00    +0.114 C 
ATOM      6  C6  UNL     1       5.644   4.888   3.891 -0.11 +0.00    +0.255 C 
ATOM      7  C7  UNL     1       6.777   5.020   2.820 -0.11 +0.00    +0.205 C 
ATOM      8  C8  UNL     1       3.548   5.340   2.721 -0.11 +0.00    +0.172 C 
ATOM      9  C9  UNL     1       2.710   6.527   2.249+18.64 +0.00    +0.036 C 
ATOM     10  C10 UNL     1       3.464   7.475   1.310+99.99 +0.00    +0.076 C 
ATOM     11  C11 UNL     1       5.927   8.636   1.987 +2.37 +0.00    +0.093 C 
ATOM     12  C12 UNL     1       6.428   8.887   0.563 +6.39 +0.00    +0.133 C 
ATOM     13  C13 UNL     1       8.477   7.514   0.327 -0.22 +0.00    +0.251 C 
ATOM     14  C14 UNL     1       9.962   7.514   0.366 +0.06 +0.00    +0.032 A 
ATOM     15  C15 UNL     1      10.709   8.550  -0.206+41.48 +0.00    +0.018 A 
ATOM     16  C16 UNL     1      12.106   8.514  -0.152+99.99 +0.00    +0.018 A 
ATOM     17  C17 UNL     1      12.765   7.438   0.460 +5.70 +0.00    +0.032 A 
ATOM     18  C18 UNL     1      12.015   6.405   1.035 -0.37 +0.00    +0.018 A 
ATOM     19  C19 UNL     1      10.617   6.439   0.978 -0.30 +0.00    +0.018 A 
ATOM     20  C20 UNL     1      14.254   7.453   0.496 +5.38 +0.00    +0.251 C 
ATOM     21  C21 UNL     1      16.334   6.132   0.522+99.99 +0.00    +0.133 C 
ATOM     22  C22 UNL     1      16.991   6.561   1.835+16.51 +0.00    +0.093 C 
ATOM     23  C23 UNL     1      19.153   7.947   0.781+99.99 +0.00    +0.076 C 
ATOM     24  C24 UNL     1      20.661   8.158   0.663+99.99 +0.00    +0.036 C 
ATOM     25  C25 UNL     1      20.965   9.443  -0.102 +0.61 +0.00    +0.172 C 
ATOM     26  C26 UNL     1      23.294   9.845   0.629 -0.17 +0.00    +0.255 C 
ATOM     27  C27 UNL     1      22.787  10.895   1.625+82.22 +0.00    +0.114 C 
ATOM     28  C28 UNL     1      23.886  11.463   2.509+99.99 +0.00    +0.149 C 
ATOM     29  C29 UNL     1      25.108  11.949   1.689+13.88 +0.00    +0.145 C 
ATOM     30  C30 UNL     1      25.565  10.772   0.791+99.99 +0.00    +0.182 C 
ATOM     31  C31 UNL     1      26.747  11.011  -0.193+99.99 +0.00    +0.179 C 
ATOM     32  C32 UNL     1      27.422   9.672  -0.601+99.99 +0.00    +0.167 C 
ATOM     33  C33 UNL     1      26.581   8.737  -1.476+99.99 +0.00    +0.157 C 
ATOM     34  C34 UNL     1      27.033   6.463  -0.603 -0.24 +0.00    +0.251 C 
ATOM     35  C35 UNL     1      27.879   5.242  -0.720 -0.25 +0.00    +0.032 A 
ATOM     36  C36 UNL     1      28.359   4.789  -1.952 -0.20 +0.00    +0.018 A 
ATOM     37  C37 UNL     1      29.148   3.632  -2.015 -0.15 +0.00    +0.013 A 
ATOM     38  C38 UNL     1      29.469   2.899  -0.858 -0.21 -0.00    -0.020 A 
ATOM     39  C39 UNL     1      28.962   3.365   0.369 -0.34 +0.00    +0.013 A 
ATOM     40  C40 UNL     1      28.172   4.518   0.438 -0.16 +0.00    +0.018 A 
ATOM     41  C41 UNL     1      30.302   1.684  -0.930 -0.13 +0.00    +0.051 A 
ATOM     42  C42 UNL     1      29.933   0.492  -0.287+99.99 +0.00    +0.130 A 
ATOM     43  C43 UNL     1      30.717  -0.663  -0.352+99.99 +0.00    +0.043 A 
ATOM     44  C44 UNL     1      31.908  -0.655  -1.070+99.99 +0.00    +0.006 A 
ATOM     45  C45 UNL     1      32.305   0.510  -1.720 +4.03 +0.00    +0.043 A 
ATOM     46  C46 UNL     1      31.509   1.656  -1.647 -0.13 +0.00    +0.130 A 
ATOM     47  C47 UNL     1      26.822  13.601   2.403+99.99 +0.00    +0.214 C 
ATOM     48  C48 UNL     1      27.611  14.105   3.579+99.99 +0.00    +0.117 C 
ATOM     49  C49 UNL     1      23.722   8.502   1.309 -0.35 +0.00    +0.205 C 
ATOM     50  C50 UNL     1       2.950   4.370   8.308 +0.64 +0.00    +0.214 C 
ATOM     51  C51 UNL     1       2.547   3.643   9.563+12.22 +0.00    +0.117 C 
ATOM     52  O1  UNL     1       6.240   5.303   5.137 -0.13 -0.00    -0.339 OA
ATOM     53  O2  UNL     1       7.971   5.194   3.027 +0.08 -0.00    -0.646 OA
ATOM     54  O3  UNL     1       6.314   4.933   1.550 +0.11 -0.00    -0.772 OA
ATOM     55  O4  UNL     1       4.571   5.780   3.597 -0.10 -0.00    -0.346 OA
ATOM     56  O5  UNL     1       7.862   6.458   0.218 -0.17 -0.00    -0.268 OA
ATOM     57  O6  UNL     1      14.861   8.517   0.431 +3.55 -0.00    -0.268 OA
ATOM     58  O7  UNL     1      22.339   9.631  -0.420 -0.23 -0.00    -0.346 OA
ATOM     59  O8  UNL     1      24.454  10.378  -0.041+52.72 -0.00    -0.336 OA
ATOM     60  O9  UNL     1      26.255   6.585   0.342 -0.21 -0.00    -0.268 OA
ATOM     61  O10 UNL     1      28.634   9.979  -1.329+99.99 -0.00    -0.391 OA
ATOM     62  O11 UNL     1      27.817  11.794   0.356+99.99 -0.00    -0.390 OA
ATOM     63  O12 UNL     1      26.867  14.140   1.298 +2.55 -0.00    -0.274 OA
ATOM     64  O13 UNL     1      23.356  12.552   3.277+99.99 -0.00    -0.393 OA
ATOM     65  O14 UNL     1      24.030   8.366   2.485 +0.03 -0.00    -0.646 OA
ATOM     66  O15 UNL     1      23.852   7.494   0.420 +0.11 -0.00    -0.772 OA
ATOM     67  O16 UNL     1       4.085   1.872   5.480 -0.27 -0.00    -0.393 OA
ATOM     68  O17 UNL     1       2.442   5.437   7.985 -0.17 -0.00    -0.274 OA
ATOM     69  S1  UNL     1       4.140   8.942   2.164+99.99 -0.00    -0.167 SA
ATOM     70  S2  UNL     1      18.810   6.449   1.763+99.99 -0.00    -0.167 SA
ATOM     71  N1  UNL     1       7.871   8.745   0.458 +4.04 -0.00    -0.356 N 
ATOM     72  N2  UNL     1      14.885   6.228   0.574+99.99 -0.00    -0.356 N 
ATOM     73  N3  UNL     1      27.210   7.424  -1.578 +0.12 -0.00    -0.354 N 
ATOM     74  N4  UNL     1      26.112  12.448   2.636+99.99 -0.00    -0.352 N 
ATOM     75  N5  UNL     1       3.907   3.715   7.569 -0.20 -0.00    -0.352 N 
ATOM     76  F1  UNL     1      31.943   2.755  -2.283 +0.01 -0.00    -0.205 F 
ATOM     77  F2  UNL     1      28.788   0.427   0.410+99.99 -0.00    -0.205 F 
ATOM     78  H55 UNL     1       7.043   5.307   0.983 +0.07 +0.00    +0.167 HD
ATOM     79  H56 UNL     1      29.010  10.742  -0.840+12.65 +0.00    +0.210 HD
ATOM     80  H57 UNL     1      27.504  12.726   0.367 +0.40 +0.00    +0.210 HD
ATOM     81  H58 UNL     1      22.617  12.211   3.810 +0.46 +0.00    +0.210 HD
ATOM     82  H59 UNL     1      24.579   6.899   0.738 +0.13 +0.00    +0.167 HD
ATOM     83  H60 UNL     1       4.531   1.156   4.992 -0.05 +0.00    +0.210 HD
ATOM     84  H61 UNL     1       8.436   9.539   0.736+23.95 +0.00    +0.162 HD
ATOM     85  H62 UNL     1      14.352   5.381   0.428 +2.52 +0.00    +0.162 HD
ATOM     86  H63 UNL     1      28.061   7.401  -2.128 +0.06 +0.00    +0.162 HD
ATOM     87  H64 UNL     1      26.022  12.149   3.600 +1.38 +0.00    +0.163 HD
ATOM     88  H65 UNL     1       3.931   2.707   7.684 +0.09 +0.00    +0.163 HD
ENDROOT
TORSDOF 34
TER
