USER    Run = 1
USER    DPF = ligand_159_receptor.dpf
USER  
USER    Estimated Free Energy of Binding    =  +2.01e+004 kcal/mol  [=(1)+(2)+(3)-(4)]
USER    
USER    (1) Final Intermolecular Energy     =  +2.01e+004 kcal/mol
USER        vdW + Hbond + desolv Energy     =  +2.01e+004 kcal/mol
USER        Electrostatic Energy            =   +0.00 kcal/mol
USER    (2) Final Total Internal Energy     =   +0.00 kcal/mol
USER    (3) Torsional Free Energy           =   +1.19 kcal/mol
USER    (4) Unbound System's Energy  [=(2)] =   +0.00 kcal/mol
USER    
USER    
USER    NEWDPF move ligand_159.pdbqt
USER    NEWDPF about 0.000000 0.000000 0.000000
USER    NEWDPF tran0 11.785245 6.475068 4.068411
USER    NEWDPF quaternion0 -0.141334 0.676651 -0.708224 0.143483
USER    NEWDPF axisangle0 -0.142812 0.683725 -0.715629 163.501153
USER    NEWDPF quat0 -0.142812 0.683725 -0.715629 163.501153
USER  keepresnum = 1 
USER  
REMARK  0 active torsions:
REMARK  status: ('A' for Active; 'I' for Inactive)
REMARK       I    between atoms: C2_2  and  C3_3 
REMARK       I    between atoms: C3_3  and  C5_5 
REMARK       I    between atoms: C5_5  and  C6_6 
REMARK       I    between atoms: C5_5  and  N10_79 
REMARK       I    between atoms: C6_6  and  N1_69 
REMARK       I    between atoms: C7_7  and  C8_8 
REMARK       I    between atoms: C7_7  and  C11_11 
REMARK       I    between atoms: C7_7  and  N1_69 
REMARK       I    between atoms: C11_11  and  N2_70 
REMARK       I    between atoms: C12_12  and  C13_13 
REMARK       I    between atoms: C12_12  and  C17_17 
REMARK       I    between atoms: C12_12  and  N2_70 
REMARK       I    between atoms: C13_13  and  C14_14 
REMARK       I    between atoms: C14_14  and  C15_15 
REMARK       I    between atoms: C15_15  and  N3_71 
REMARK       I    between atoms: C16_16  and  N4_73 
REMARK       I    between atoms: C16_16  and  N5_74 
REMARK       I    between atoms: C17_17  and  N6_75 
REMARK       I    between atoms: C18_18  and  C19_19 
REMARK       I    between atoms: C18_18  and  C21_21 
REMARK       I    between atoms: C18_18  and  N6_75 
REMARK       I    between atoms: C19_19  and  O4_59 
REMARK       I    between atoms: C21_21  and  N7_76 
REMARK       I    between atoms: C22_22  and  C23_23 
REMARK       I    between atoms: C22_22  and  C27_27 
REMARK       I    between atoms: C22_22  and  N7_76 
REMARK       I    between atoms: C23_23  and  C24_24 
REMARK       I    between atoms: C24_24  and  C25_25 
REMARK       I    between atoms: C25_25  and  C26_26 
REMARK       I    between atoms: C26_26  and  N8_77 
REMARK       I    between atoms: C27_27  and  N9_78 
REMARK       I    between atoms: C28_28  and  C29_29 
REMARK       I    between atoms: C28_28  and  N9_78 
REMARK       I    between atoms: C29_29  and  O8_63 
REMARK       I    between atoms: C30_30  and  C31_31 
REMARK       I    between atoms: C30_30  and  N10_79 
REMARK       I    between atoms: C31_31  and  C32_32 
REMARK       I    between atoms: C31_31  and  N11_80 
REMARK       I    between atoms: C32_32  and  C33_33 
REMARK       I    between atoms: C36_36  and  C37_37 
REMARK       I    between atoms: C36_36  and  N11_80 
REMARK       I    between atoms: C37_37  and  N12_81 
REMARK       I    between atoms: C39_39  and  C40_40 
REMARK       I    between atoms: C39_39  and  N12_81 
REMARK       I    between atoms: C44_44  and  C45_45 
REMARK       I    between atoms: C44_44  and  N13_82 
REMARK       I    between atoms: C45_45  and  C46_46 
REMARK       I    between atoms: C45_45  and  N17_87 
REMARK       I    between atoms: C46_46  and  C47_47 
REMARK       I    between atoms: C47_47  and  C48_48 
REMARK       I    between atoms: C48_48  and  N14_83 
REMARK       I    between atoms: C49_49  and  N15_85 
REMARK       I    between atoms: C49_49  and  N16_86 
REMARK       I    between atoms: C50_50  and  C51_51 
REMARK       I    between atoms: C50_50  and  N17_87 
REMARK       I    between atoms: C51_51  and  C52_52 
REMARK       I    between atoms: C51_51  and  N18_88 
REMARK       I    between atoms: C52_52  and  C53_53 
USER                              x       y       z     vdW  Elec       q    Type
USER                           _______ _______ _______ _____ _____    ______ ____
ROOT
ATOM      1  C1  UNL     1      15.751   3.203   6.339+99.99 +0.00    +0.005 C 
ATOM      2  C2  UNL     1      14.454   3.763   5.770+89.08 +0.00    +0.002 C 
ATOM      3  C3  UNL     1      14.390   5.305   5.756 +3.47 +0.00    +0.013 C 
ATOM      4  C4  UNL     1      13.243   5.743   4.842 +0.25 +0.00    +0.012 C 
ATOM      5  C5  UNL     1      14.326   5.923   7.185 -0.49 +0.00    +0.180 C 
ATOM      6  C6  UNL     1      14.965   7.338   7.183+35.23 +0.00    +0.241 C 
ATOM      7  C7  UNL     1      14.641   9.725   6.634+49.04 +0.00    +0.180 C 
ATOM      8  C8  UNL     1      13.802  10.861   7.258 +5.23 +0.00    +0.009 C 
ATOM      9  C9  UNL     1      13.785  10.756   8.788 +2.45 +0.00    +0.012 C 
ATOM     10  C10 UNL     1      14.345  12.238   6.860+99.99 +0.00    +0.012 C 
ATOM     11  C11 UNL     1      14.687   9.792   5.089+33.77 +0.00    +0.241 C 
ATOM     12  C12 UNL     1      13.304   9.920   2.999+31.62 +0.00    +0.176 C 
ATOM     13  C13 UNL     1      13.889  11.233   2.457+36.49 +0.00    +0.036 C 
ATOM     14  C14 UNL     1      13.241  11.707   1.144+15.68 +0.00    +0.022 C 
ATOM     15  C15 UNL     1      13.633  10.897  -0.091+99.99 +0.00    +0.121 C 
ATOM     16  C16 UNL     1      15.684  10.217  -1.044+99.99 +0.00    +0.121 C 
ATOM     17  C17 UNL     1      13.784   8.609   2.334+77.45 +0.00    +0.241 C 
ATOM     18  C18 UNL     1      15.798   7.195   1.982+99.99 +0.00    +0.205 C 
ATOM     19  C19 UNL     1      17.314   7.247   2.268 +0.09 +0.00    +0.146 C 
ATOM     20  C20 UNL     1      18.077   8.404   1.631 +1.44 +0.00    +0.042 C 
ATOM     21  C21 UNL     1      15.512   6.626   0.574+99.99 +0.00    +0.243 C 
ATOM     22  C22 UNL     1      13.824   5.343  -0.745+72.23 +0.00    +0.176 C 
ATOM     23  C23 UNL     1      13.246   3.940  -0.492+99.99 +0.00    +0.035 C 
ATOM     24  C24 UNL     1      14.310   2.890  -0.143+99.99 +0.00    +0.004 C 
ATOM     25  C25 UNL     1      14.787   2.039  -1.328+68.44 +0.00    +0.030 C 
ATOM     26  C26 UNL     1      15.488   2.831  -2.428+99.99 +0.00    +0.267 C 
ATOM     27  C27 UNL     1      12.733   6.220  -1.406 -0.03 +0.00    +0.240 C 
ATOM     28  C28 UNL     1      10.987   7.900  -1.000 +3.66 +0.00    +0.232 C 
ATOM     29  C29 UNL     1       9.763   7.185  -0.434 -0.26 +0.00    +0.158 C 
ATOM     30  C30 UNL     1      11.849   6.303   7.666 -0.04 +0.00    +0.241 C 
ATOM     31  C31 UNL     1      10.615   5.633   8.320 +1.74 +0.00    +0.177 C 
ATOM     32  C32 UNL     1      10.665   5.577   9.858+12.08 +0.00    +0.038 C 
ATOM     33  C33 UNL     1      10.295   6.873  10.612+99.99 -0.00    -0.020 C 
ATOM     34  C34 UNL     1       8.858   7.321  10.342+99.99 +0.00    +0.009 C 
ATOM     35  C35 UNL     1      11.270   8.018  10.357+99.99 +0.00    +0.009 C 
ATOM     36  C36 UNL     1      11.084   3.171   7.989 +0.29 +0.00    +0.240 C 
ATOM     37  C37 UNL     1      10.547   1.886   7.319+17.53 +0.00    +0.172 C 
ATOM     38  C38 UNL     1      11.134   0.639   7.964+99.99 +0.00    +0.042 C 
ATOM     39  C39 UNL     1      10.014   2.138   4.906+10.44 +0.00    +0.241 C 
ATOM     40  C40 UNL     1      10.632   2.670   3.593 +2.13 +0.00    +0.179 C 
ATOM     41  C41 UNL     1      11.392   1.571   2.849+11.56 +0.00    +0.037 C 
ATOM     42  C42 UNL     1      10.380   1.079   1.820 +0.52 +0.00    +0.022 C 
ATOM     43  C43 UNL     1       9.649   2.350   1.422 +2.27 +0.00    +0.127 C 
ATOM     44  C44 UNL     1       8.926   4.330   2.696 -0.11 +0.00    +0.243 C 
ATOM     45  C45 UNL     1       8.891   5.092   4.035 -0.19 +0.00    +0.176 C 
ATOM     46  C46 UNL     1       9.617   6.433   3.942 -0.31 +0.00    +0.036 C 
ATOM     47  C47 UNL     1       8.785   7.600   3.393 -0.35 +0.00    +0.022 C 
ATOM     48  C48 UNL     1       9.610   8.886   3.298 +0.56 +0.00    +0.121 C 
ATOM     49  C49 UNL     1       9.641   9.736   5.515+14.53 +0.00    +0.121 C 
ATOM     50  C50 UNL     1       7.100   4.982   5.751 -0.24 +0.00    +0.251 C 
ATOM     51  C51 UNL     1       5.572   5.098   5.973 -0.23 +0.00    +0.309 C 
ATOM     52  C52 UNL     1       5.175   6.583   6.009 +1.22 +0.00    +0.049 C 
ATOM     53  C53 UNL     1       3.670   6.922   5.954 -0.14 -0.00    -0.020 C 
ATOM     54  C54 UNL     1       2.902   6.510   7.208 -0.28 +0.00    +0.009 C 
ATOM     55  C55 UNL     1       2.992   6.364   4.702 -0.20 +0.00    +0.009 C 
ATOM     56  O1  UNL     1      16.188   7.473   7.207+99.99 -0.00    -0.271 OA
ATOM     57  O2  UNL     1      15.750   9.820   4.466 +0.64 -0.00    -0.271 OA
ATOM     58  O3  UNL     1      13.008   7.701   2.027 +0.77 -0.00    -0.271 OA
ATOM     59  O4  UNL     1      17.517   7.297   3.690 -0.61 -0.00    -0.393 OA
ATOM     60  O5  UNL     1      16.213   6.827  -0.415 +6.58 -0.00    -0.271 OA
ATOM     61  O6  UNL     1      12.287   5.961  -2.524 -0.15 -0.00    -0.271 OA
ATOM     62  O7  UNL     1       8.610   7.573  -0.547 -0.06 -0.00    -0.649 OA
ATOM     63  O8  UNL     1      10.048   6.059   0.254 +0.10 -0.00    -0.775 OA
ATOM     64  O9  UNL     1      11.741   7.343   7.014 -0.21 -0.00    -0.271 OA
ATOM     65  O10 UNL     1      12.146   3.210   8.611 +0.30 -0.00    -0.271 OA
ATOM     66  O11 UNL     1       8.811   1.954   5.062 +8.87 -0.00    -0.271 OA
ATOM     67  O12 UNL     1       8.292   4.755   1.721 -0.08 -0.00    -0.271 OA
ATOM     68  O13 UNL     1       7.885   4.718   6.664 -0.27 -0.00    -0.271 OA
ATOM     69  N1  UNL     1      14.125   8.405   6.988 +6.70 -0.00    -0.346 N 
ATOM     70  N2  UNL     1      13.464   9.783   4.450+54.32 -0.00    -0.346 N 
ATOM     71  N3  UNL     1      15.063  11.052  -0.304+13.53 -0.00    -0.372 N 
ATOM     72  H3  UNL     1      15.567  11.822   0.135 +0.11 +0.00    +0.161 HD
ATOM     73  N4  UNL     1      15.236   9.142  -1.727+99.99 -0.00    -0.279 NA
ATOM     74  N5  UNL     1      17.008  10.371  -1.250 +7.57 -0.00    -0.279 NA
ATOM     75  N6  UNL     1      15.146   8.487   2.195 +0.09 -0.00    -0.344 N 
ATOM     76  N7  UNL     1      14.341   5.895   0.509+99.99 -0.00    -0.346 N 
ATOM     77  N8  UNL     1      16.018   1.919  -3.436+99.99 +0.00    +0.078 N 
ATOM     78  N9  UNL     1      12.244   7.259  -0.645 +0.16 -0.00    -0.349 N 
ATOM     79  N10 UNL     1      13.058   5.695   7.894 -0.23 -0.00    -0.346 N 
ATOM     80  N11 UNL     1      10.361   4.311   7.723 -0.19 -0.00    -0.346 N 
ATOM     81  N12 UNL     1      10.940   1.953   5.911 +8.72 -0.00    -0.346 N 
ATOM     82  N13 UNL     1       9.644   3.156   2.628 +0.91 -0.00    -0.337 N 
ATOM     83  N14 UNL     1      10.273   9.143   4.575 -0.04 -0.00    -0.372 N 
ATOM     84  H14 UNL     1      11.240   8.850   4.716 +0.09 +0.00    +0.161 HD
ATOM     85  N15 UNL     1      10.198   9.807   6.743 +8.01 -0.00    -0.279 NA
ATOM     86  N16 UNL     1       8.411  10.290   5.532+99.99 -0.00    -0.279 NA
ATOM     87  N17 UNL     1       7.504   5.217   4.459 -0.07 -0.00    -0.346 N 
ATOM     88  N18 UNL     1       5.215   4.397   7.220 -0.40 +0.00    +0.092 N 
ATOM     89  H80 UNL     1      17.191   8.157   4.025 +0.14 +0.00    +0.210 HD
ATOM     90  H81 UNL     1       9.171   5.688   0.535 +0.08 +0.00    +0.167 HD
ATOM     91  H82 UNL     1      13.149   8.188   6.790 +0.13 +0.00    +0.163 HD
ATOM     92  H83 UNL     1      12.613   9.587   4.972 +0.78 +0.00    +0.163 HD
ATOM     93  H84 UNL     1      15.854   8.337  -1.588 +0.11 +0.00    +0.126 HD
ATOM     94  H85 UNL     1      14.291   8.856  -1.505+15.82 +0.00    +0.126 HD
ATOM     95  H86 UNL     1      17.311  11.286  -0.937 +0.85 +0.00    +0.126 HD
ATOM     96  H87 UNL     1      17.270  10.199  -2.213 +0.31 +0.00    +0.126 HD
ATOM     97  H88 UNL     1      15.663   9.146   2.781 +0.07 +0.00    +0.163 HD
ATOM     98  H89 UNL     1      13.684   6.043   1.274 +0.36 +0.00    +0.163 HD
ATOM     99  H90 UNL     1      16.478   2.461  -4.168 +9.49 +0.00    +0.312 HD
ATOM    100  H91 UNL     1      16.742   1.332  -3.024+99.99 +0.00    +0.312 HD
ATOM    101  H92 UNL     1      12.475   7.263   0.345 +0.06 +0.00    +0.163 HD
ATOM    102  H93 UNL     1      12.989   4.779   8.346 +0.13 +0.00    +0.163 HD
ATOM    103  H94 UNL     1       9.440   4.207   7.282 +0.12 +0.00    +0.163 HD
ATOM    104  H95 UNL     1      11.914   2.154   5.726 +0.47 +0.00    +0.163 HD
ATOM    105  H96 UNL     1       9.513   9.673   7.476 +0.19 +0.00    +0.126 HD
ATOM    106  H97 UNL     1      10.910   9.078   6.827 +0.07 +0.00    +0.126 HD
ATOM    107  H98 UNL     1       8.009  10.456   4.619 +3.54 +0.00    +0.126 HD
ATOM    108  H99 UNL     1       8.375  11.137   6.090+99.99 +0.00    +0.126 HD
ATOM    109  HA0 UNL     1       6.811   5.341   3.728 +0.08 +0.00    +0.163 HD
ATOM    110  HA1 UNL     1       5.528   3.427   7.138 +0.07 +0.00    +0.313 HD
ATOM    111  HA2 UNL     1       5.793   4.782   7.970 +0.19 +0.00    +0.313 HD
ENDROOT
TORSDOF 44
TER
