USER    Run = 1
USER    DPF = ligand_519_receptor.dpf
USER  
USER    Estimated Free Energy of Binding    =  +3.58e+003 kcal/mol  [=(1)+(2)+(3)-(4)]
USER    
USER    (1) Final Intermolecular Energy     =  +3.58e+003 kcal/mol
USER        vdW + Hbond + desolv Energy     =  +3.58e+003 kcal/mol
USER        Electrostatic Energy            =   +0.00 kcal/mol
USER    (2) Final Total Internal Energy     =   +0.00 kcal/mol
USER    (3) Torsional Free Energy           =   +1.19 kcal/mol
USER    (4) Unbound System's Energy  [=(2)] =   +0.00 kcal/mol
USER    
USER    
USER    NEWDPF move ligand_519.pdbqt
USER    NEWDPF about 0.000000 0.000000 0.000000
USER    NEWDPF tran0 17.888111 6.805097 2.204257
USER    NEWDPF quaternion0 0.116783 -0.662222 0.738115 0.054871
USER    NEWDPF axisangle0 0.116959 -0.663221 0.739228 173.709032
USER    NEWDPF quat0 0.116959 -0.663221 0.739228 173.709032
USER  keepresnum = 1 
USER  
REMARK  0 active torsions:
REMARK  status: ('A' for Active; 'I' for Inactive)
REMARK       I    between atoms: C2_2  and  O1_53 
REMARK       I    between atoms: C5_5  and  O1_53 
REMARK       I    between atoms: C5_5  and  N1_63 
REMARK       I    between atoms: C6_6  and  C7_7 
REMARK       I    between atoms: C6_6  and  N1_63 
REMARK       I    between atoms: C7_7  and  N2_64 
REMARK       I    between atoms: C8_8  and  C9_9 
REMARK       I    between atoms: C8_8  and  N2_64 
REMARK       I    between atoms: C9_9  and  S1_79 
REMARK       I    between atoms: C10_10  and  S1_79 
REMARK       I    between atoms: C11_11  and  N7_70 
REMARK       I    between atoms: C13_13  and  C22_22 
REMARK       I    between atoms: C15_15  and  N3_65 
REMARK       I    between atoms: C16_16  and  C17_17 
REMARK       I    between atoms: C16_16  and  N3_65 
REMARK       I    between atoms: C17_17  and  C18_18 
REMARK       I    between atoms: C18_18  and  C19_19 
REMARK       I    between atoms: C19_19  and  C20_20 
REMARK       I    between atoms: C20_20  and  N4_66 
REMARK       I    between atoms: C21_21  and  N4_66 
REMARK       I    between atoms: C21_21  and  N5_68 
REMARK       I    between atoms: C21_21  and  N6_69 
REMARK       I    between atoms: C23_23  and  C24_24 
REMARK       I    between atoms: C23_23  and  N7_70 
REMARK       I    between atoms: C26_26  and  C30_30 
REMARK       I    between atoms: C30_30  and  N8_71 
REMARK       I    between atoms: C31_31  and  N8_71 
REMARK       I    between atoms: C32_32  and  S2_80 
REMARK       I    between atoms: C33_33  and  N9_72 
REMARK       I    between atoms: C35_35  and  C37_37 
REMARK       I    between atoms: C38_38  and  C39_39 
REMARK       I    between atoms: C38_38  and  N9_72 
REMARK       I    between atoms: C39_39  and  C40_40 
REMARK       I    between atoms: C40_40  and  C41_41 
REMARK       I    between atoms: C41_41  and  C42_42 
REMARK       I    between atoms: C42_42  and  N10_73 
REMARK       I    between atoms: C43_43  and  N10_73 
REMARK       I    between atoms: C43_43  and  N12_76 
REMARK       I    between atoms: C44_44  and  C45_45 
REMARK       I    between atoms: C44_44  and  S2_80 
REMARK       I    between atoms: C45_45  and  N13_77 
REMARK       I    between atoms: C46_46  and  C47_47 
REMARK       I    between atoms: C46_46  and  N13_77 
REMARK       I    between atoms: C47_47  and  N14_78 
REMARK       I    between atoms: C48_48  and  O10_62 
REMARK       I    between atoms: C48_48  and  N14_78 
REMARK       I    between atoms: C49_49  and  O10_62 
USER                              x       y       z     vdW  Elec       q    Type
USER                           _______ _______ _______ _____ _____    ______ ____
ROOT
ATOM      1  C1  UNL     1      29.518   4.414   1.924 +5.31 +0.00    +0.046 C 
ATOM      2  C2  UNL     1      30.770   5.199   2.330 +0.87 +0.00    +0.061 C 
ATOM      3  C3  UNL     1      31.294   4.775   3.707+96.11 +0.00    +0.046 C 
ATOM      4  C4  UNL     1      31.871   4.937   1.290 -0.21 +0.00    +0.046 C 
ATOM      5  C5  UNL     1      29.602   7.201   3.071 +2.06 +0.00    +0.361 C 
ATOM      6  C6  UNL     1      28.394   9.303   3.307+17.95 +0.00    +0.227 C 
ATOM      7  C7  UNL     1      27.107   8.955   2.560 -0.13 +0.00    +0.235 C 
ATOM      8  C8  UNL     1      25.343   7.228   2.394 -0.31 +0.00    +0.133 C 
ATOM      9  C9  UNL     1      24.052   8.044   2.339 -0.31 +0.00    +0.099 C 
ATOM     10  C10 UNL     1      22.724   8.860   0.040 -0.43 +0.00    +0.054 A 
ATOM     11  C11 UNL     1      21.458   9.494   0.010 -0.09 +0.00    +0.054 A 
ATOM     12  C12 UNL     1      21.336  10.761  -0.568 +2.10 +0.00    +0.047 A 
ATOM     13  C13 UNL     1      22.454  11.427  -1.094 +2.22 +0.00    +0.052 A 
ATOM     14  C14 UNL     1      23.702  10.791  -1.070+26.03 +0.00    +0.047 A 
ATOM     15  C15 UNL     1      23.831   9.493  -0.565 +2.02 +0.00    +0.054 A 
ATOM     16  C16 UNL     1      25.329   7.709  -1.332 +1.67 +0.00    +0.222 C 
ATOM     17  C17 UNL     1      26.806   7.338  -1.390 +0.28 +0.00    +0.103 C 
ATOM     18  C18 UNL     1      27.090   6.345  -2.516 +4.56 +0.00    +0.011 C 
ATOM     19  C19 UNL     1      28.530   5.819  -2.558 -0.01 +0.00    +0.020 C 
ATOM     20  C20 UNL     1      29.599   6.910  -2.632 -0.20 +0.00    +0.121 C 
ATOM     21  C21 UNL     1      30.814   8.235  -1.104 -0.18 +0.00    +0.121 C 
ATOM     22  C22 UNL     1      22.305  12.816  -1.665 +5.38 +0.00    +0.417 C 
ATOM     23  C23 UNL     1      19.066   9.249   0.753 +2.67 +0.00    +0.256 C 
ATOM     24  C24 UNL     1      18.135   8.240   1.327 +5.85 +0.00    +0.033 A 
ATOM     25  C25 UNL     1      17.152   8.671   2.224 -0.49 +0.00    +0.034 A 
ATOM     26  C26 UNL     1      16.246   7.750   2.761 +0.01 +0.00    +0.033 A 
ATOM     27  C27 UNL     1      16.333   6.395   2.412+99.99 +0.00    +0.017 A 
ATOM     28  C28 UNL     1      17.307   5.969   1.507+23.87 +0.00    +0.002 A 
ATOM     29  C29 UNL     1      18.203   6.889   0.958+99.99 +0.00    +0.017 A 
ATOM     30  C30 UNL     1      15.220   8.237   3.722 -0.37 +0.00    +0.256 C 
ATOM     31  C31 UNL     1      12.814   7.873   4.353 -0.39 +0.00    +0.054 A 
ATOM     32  C32 UNL     1      11.609   7.260   3.934 -0.35 +0.00    +0.054 A 
ATOM     33  C33 UNL     1      10.424   7.410   4.692 -0.31 +0.00    +0.054 A 
ATOM     34  C34 UNL     1      10.457   8.189   5.851 +0.59 +0.00    +0.047 A 
ATOM     35  C35 UNL     1      11.646   8.803   6.277 +1.09 +0.00    +0.052 A 
ATOM     36  C36 UNL     1      12.816   8.643   5.518 +0.45 +0.00    +0.047 A 
ATOM     37  C37 UNL     1      11.658   9.657   7.523 +1.96 +0.00    +0.417 C 
ATOM     38  C38 UNL     1       7.985   6.775   4.797 +4.90 +0.00    +0.222 C 
ATOM     39  C39 UNL     1       7.018   5.927   3.982 -0.16 +0.00    +0.103 C 
ATOM     40  C40 UNL     1       5.610   5.842   4.566 -0.10 +0.00    +0.011 C 
ATOM     41  C41 UNL     1       5.551   4.968   5.825 -0.36 +0.00    +0.020 C 
ATOM     42  C42 UNL     1       4.131   4.794   6.365 -0.30 +0.00    +0.122 C 
ATOM     43  C43 UNL     1       3.715   6.684   7.739 +0.36 +0.00    +0.143 C 
ATOM     44  C44 UNL     1      10.906   7.544   1.275 +1.12 +0.00    +0.099 C 
ATOM     45  C45 UNL     1      10.809   7.015  -0.157 -0.24 +0.00    +0.133 C 
ATOM     46  C46 UNL     1       8.572   5.962  -0.240 -0.13 +0.00    +0.235 C 
ATOM     47  C47 UNL     1       7.841   4.629  -0.393 -0.07 +0.00    +0.227 C 
ATOM     48  C48 UNL     1       8.778   3.261   1.416 -0.01 +0.00    +0.361 C 
ATOM     49  C49 UNL     1       9.299   1.934   3.395+99.99 +0.00    +0.061 C 
ATOM     50  C50 UNL     1       8.486   1.549   4.639+99.99 +0.00    +0.046 C 
ATOM     51  C51 UNL     1       9.697   0.657   2.649+99.99 +0.00    +0.046 C 
ATOM     52  C52 UNL     1      10.523   2.741   3.841 +0.79 +0.00    +0.046 C 
ATOM     53  O1  UNL     1      30.531   6.630   2.272 -0.29 -0.00    -0.294 OA
ATOM     54  O2  UNL     1      28.929   6.640   3.924+99.99 -0.00    -0.238 OA
ATOM     55  O3  UNL     1      26.790   9.513   1.511 -0.03 -0.00    -0.272 OA
ATOM     56  O4  UNL     1      24.451   7.022  -1.844 -0.42 -0.00    -0.273 OA
ATOM     57  O5  UNL     1      18.632  10.368   0.508 -0.33 -0.00    -0.267 OA
ATOM     58  O6  UNL     1      15.537   9.106   4.524 -0.23 -0.00    -0.267 OA
ATOM     59  O7  UNL     1       7.650   7.382   5.807+99.99 -0.00    -0.273 OA
ATOM     60  O8  UNL     1       7.986   7.015  -0.003 -0.24 -0.00    -0.272 OA
ATOM     61  O9  UNL     1       9.875   3.157   0.889 +1.57 -0.00    -0.238 OA
ATOM     62  O10 UNL     1       8.394   2.744   2.600 -0.19 -0.00    -0.294 OA
ATOM     63  N1  UNL     1      29.474   8.519   2.750 +0.68 -0.00    -0.328 N 
ATOM     64  N2  UNL     1      26.415   7.892   3.119 -0.27 -0.00    -0.359 N 
ATOM     65  N3  UNL     1      25.109   8.902  -0.657 +2.92 -0.00    -0.326 N 
ATOM     66  N4  UNL     1      30.012   7.255  -1.274 -0.04 -0.00    -0.372 N 
ATOM     67  H4  UNL     1      29.665   6.723  -0.475 +0.07 +0.00    +0.161 HD
ATOM     68  N5  UNL     1      31.283   8.505   0.135 -0.10 -0.00    -0.279 NA
ATOM     69  N6  UNL     1      31.352   9.089  -2.001 -0.25 -0.00    -0.279 NA
ATOM     70  N7  UNL     1      20.360   8.806   0.582+42.37 -0.00    -0.322 N 
ATOM     71  N8  UNL     1      13.976   7.660   3.573 -0.26 -0.00    -0.322 N 
ATOM     72  N9  UNL     1       9.254   6.754   4.242 -0.09 -0.00    -0.326 N 
ATOM     73  N10 UNL     1       3.501   6.082   6.629 -0.12 -0.00    -0.367 N 
ATOM     74  H10 UNL     1       2.889   6.504   5.930 +0.06 +0.00    +0.162 HD
ATOM     75  N11 UNL     1       4.483   6.315   8.784+56.22 -0.00    -0.376 N 
ATOM     76  N12 UNL     1       3.093   7.860   7.970 -0.05 -0.00    -0.274 NA
ATOM     77  N13 UNL     1       9.944   5.859  -0.313 -0.06 -0.00    -0.359 N 
ATOM     78  N14 UNL     1       7.743   3.966   0.887 -0.00 -0.00    -0.328 N 
ATOM     79  S1  UNL     1      22.913   7.371   1.068 +0.47 -0.00    -0.124 SA
ATOM     80  S2  UNL     1      11.598   6.279   2.407 -0.38 -0.00    -0.124 SA
ATOM     81  F1  UNL     1      22.181  13.765  -0.697+99.99 -0.00    -0.166 F 
ATOM     82  F2  UNL     1      21.214  12.949  -2.469+19.52 -0.00    -0.166 F 
ATOM     83  F3  UNL     1      23.371  13.200  -2.425+56.71 -0.00    -0.166 F 
ATOM     84  F4  UNL     1      12.860   9.657   8.162 -0.26 -0.00    -0.166 F 
ATOM     85  F5  UNL     1      11.371  10.962   7.259+99.99 -0.00    -0.166 F 
ATOM     86  F6  UNL     1      10.748   9.254   8.455+18.59 -0.00    -0.166 F 
ATOM     87  H55 UNL     1      29.868   8.799   1.857 +0.13 +0.00    +0.165 HD
ATOM     88  H56 UNL     1      26.973   7.297   3.734 -0.31 +0.00    +0.162 HD
ATOM     89  H57 UNL     1      25.912   9.517  -0.556 +2.21 +0.00    +0.169 HD
ATOM     90  H58 UNL     1      31.133   7.681   0.719 +0.05 +0.00    +0.126 HD
ATOM     91  H59 UNL     1      32.275   8.712   0.113 +0.04 +0.00    +0.126 HD
ATOM     92  H60 UNL     1      31.423  10.036  -1.647 +0.03 +0.00    +0.126 HD
ATOM     93  H61 UNL     1      30.910   9.078  -2.911 +0.04 +0.00    +0.126 HD
ATOM     94  H62 UNL     1      20.605   7.893   0.952+99.99 +0.00    +0.169 HD
ATOM     95  H63 UNL     1      13.833   7.048   2.776 -0.35 +0.00    +0.169 HD
ATOM     96  H64 UNL     1       9.376   6.209   3.393 +0.09 +0.00    +0.169 HD
ATOM     97  H65 UNL     1       4.819   7.057   9.379+10.10 +0.00    +0.158 HD
ATOM     98  H66 UNL     1       5.186   5.614   8.594 +0.81 +0.00    +0.158 HD
ATOM     99  H67 UNL     1       3.705   8.598   8.287 +0.05 +0.00    +0.127 HD
ATOM    100  H68 UNL     1       2.602   8.149   7.129 +0.05 +0.00    +0.127 HD
ATOM    101  H69 UNL     1      10.344   4.934  -0.148 +0.02 +0.00    +0.162 HD
ATOM    102  H70 UNL     1       6.892   4.024   1.429 +0.07 +0.00    +0.165 HD
ENDROOT
TORSDOF 34
TER
