USER    Run = 1
USER    DPF = ligand_247_receptor.dpf
USER  
USER    Estimated Free Energy of Binding    = +299.63 kcal/mol  [=(1)+(2)+(3)-(4)]
USER    
USER    (1) Final Intermolecular Energy     = +298.44 kcal/mol
USER        vdW + Hbond + desolv Energy     = +298.44 kcal/mol
USER        Electrostatic Energy            =   +0.00 kcal/mol
USER    (2) Final Total Internal Energy     =   +1.24 kcal/mol
USER    (3) Torsional Free Energy           =   +1.19 kcal/mol
USER    (4) Unbound System's Energy  [=(2)] =   +1.24 kcal/mol
USER    
USER    
USER    NEWDPF move ligand_247.pdbqt
USER    NEWDPF about 0.000000 0.000000 0.000000
USER    NEWDPF tran0 10.956617 8.422306 1.846891
USER    NEWDPF quaternion0 -0.856963 -0.345903 0.042212 -0.379714
USER    NEWDPF axisangle0 -0.926343 -0.373908 0.045629 -135.368079
USER    NEWDPF quat0 -0.926343 -0.373908 0.045629 -135.368079
USER    NEWDPF dihe0 -40.14 30.95 169.29 34.94 107.40 -124.11 -83.13 50.62 -1.43 180.00 126.77 166.57 176.60 -65.72 144.28 126.65 180.00 31.97 8.92 -100.54 
USER  keepresnum = 1 
USER  
REMARK  20 active torsions:
REMARK  status: ('A' for Active; 'I' for Inactive)
REMARK    1  A    between atoms: C2_2  and  C3_3 
REMARK    2  A    between atoms: C3_3  and  C5_5 
REMARK    3  A    between atoms: C19_19  and  C49_49 
REMARK    4  A    between atoms: C26_26  and  C28_28 
REMARK    5  A    between atoms: C28_28  and  C29_29 
REMARK       I    between atoms: C29_29  and  N8_80 
REMARK    6  A    between atoms: C30_30  and  C31_31 
REMARK    7  A    between atoms: C30_30  and  N8_80 
REMARK    8  A    between atoms: C34_34  and  N9_81 
REMARK    9  A    between atoms: C37_37  and  C38_38 
REMARK       I    between atoms: C37_37  and  N9_81 
REMARK   10  A    between atoms: C38_38  and  N10_82 
REMARK   11  A    between atoms: C40_40  and  C41_41 
REMARK       I    between atoms: C40_40  and  N10_82 
REMARK   12  A    between atoms: C41_41  and  N11_83 
REMARK   13  A    between atoms: C42_42  and  C43_43 
REMARK       I    between atoms: C42_42  and  N11_83 
REMARK   14  A    between atoms: C43_43  and  C44_44 
REMARK   15  A    between atoms: C44_44  and  N12_84 
REMARK   16  A    between atoms: C47_47  and  S2_87 
REMARK   17  A    between atoms: C49_49  and  C50_50 
REMARK   18  A    between atoms: C50_50  and  C51_51 
REMARK   19  A    between atoms: C50_50  and  O15_72 
REMARK   20  A    between atoms: C51_51  and  O14_71 
USER                              x       y       z     vdW  Elec       q    Type
USER                           _______ _______ _______ _____ _____    ______ ____
ROOT
ATOM      1  C5  UNL     1       6.186   1.943  -1.135 -0.07 +0.00    +0.180 C 
ATOM      2  C6  UNL     1       7.634   1.540  -1.516 -0.06 +0.00    +0.241 C 
ATOM      3  C7  UNL     1      10.031   1.914  -1.046 -0.15 +0.00    +0.225 C 
ATOM      4  C8  UNL     1      10.701   3.164  -1.622 +0.23 +0.00    +0.236 C 
ATOM      5  C9  UNL     1      12.303   4.962  -1.104 +5.89 +0.00    +0.186 C 
ATOM      6  C10 UNL     1      11.728   6.188  -1.847 -0.30 +0.00    +0.116 C 
ATOM      7  C11 UNL     1       9.552   7.641  -0.812 -0.25 +0.00    +0.077 A 
ATOM      8  C12 UNL     1       8.651   7.514   0.230 -0.30 -0.00    -0.010 A 
ATOM      9  C13 UNL     1       9.029   7.202   1.644 -0.33 +0.00    +0.076 C 
ATOM     10  C14 UNL     1       8.102   6.332   2.485 -0.20 +0.00    +0.175 C 
ATOM     11  C15 UNL     1       7.706   4.989   1.836 -0.08 +0.00    +0.220 C 
ATOM     12  C16 UNL     1       6.395   3.031   2.530 -0.14 +0.00    +0.197 C 
ATOM     13  C17 UNL     1       6.130   2.139   1.316 -0.12 +0.00    +0.231 C 
ATOM     14  C18 UNL     1       8.231   5.528   4.861 -0.16 +0.00    +0.222 C 
ATOM     15  C19 UNL     1       9.203   4.826   5.820 -0.33 +0.00    +0.082 C 
ATOM     16  C20 UNL     1      10.412   5.731   6.181 -0.35 +0.00    +0.039 C 
ATOM     17  C21 UNL     1      11.761   4.972   6.129 -0.40 +0.00    +0.088 C 
ATOM     18  C22 UNL     1      12.603   5.252   7.384 -0.55 +0.00    +0.027 C 
ATOM     19  C23 UNL     1      14.026   5.012   6.904 -0.53 +0.00    +0.022 C 
ATOM     20  C24 UNL     1      14.004   5.627   5.514 +0.21 +0.00    +0.126 C 
ATOM     21  C25 UNL     1      12.300   5.240   3.698+14.70 +0.00    +0.243 C 
ATOM     22  C26 UNL     1      13.275   5.703   2.577+33.83 +0.00    +0.185 C 
ATOM     23  C27 UNL     1      13.229   5.333   0.077 +2.58 +0.00    +0.241 C 
ATOM     24  C52 UNL     1       7.362   7.848  -0.309 -0.44 -0.00    -0.000 A 
ATOM     25  C53 UNL     1       6.060   7.972   0.224 +0.88 +0.00    +0.014 A 
ATOM     26  C54 UNL     1       4.998   8.347  -0.609+71.38 +0.00    +0.001 A 
ATOM     27  C55 UNL     1       5.211   8.613  -1.957 +7.77 +0.00    +0.002 A 
ATOM     28  C56 UNL     1       6.489   8.513  -2.512+46.28 +0.00    +0.030 A 
ATOM     29  C57 UNL     1       7.538   8.130  -1.668 +1.74 +0.00    +0.043 A 
ATOM     30  O1  UNL     1       7.866   0.751  -2.430 -0.17 -0.00    -0.271 OA
ATOM     31  O2  UNL     1      10.694   3.443  -2.818 +0.12 -0.00    -0.272 OA
ATOM     32  O3  UNL     1       8.410   4.351   1.055 -0.07 -0.00    -0.278 OA
ATOM     33  O4  UNL     1       5.958   0.929   1.459 -0.04 -0.00    -0.272 OA
ATOM     34  O5  UNL     1       7.027   5.659   5.057 -0.16 -0.00    -0.273 OA
ATOM     35  O6  UNL     1      11.208   4.748   3.381 +0.51 -0.00    -0.271 OA
ATOM     36  O7  UNL     1      14.403   5.657  -0.079+19.08 -0.00    -0.271 OA
ATOM     37  N1  UNL     1       8.631   2.147  -0.785 -0.00 -0.00    -0.351 N 
ATOM     38  N2  UNL     1      11.294   3.984  -0.674 +0.19 -0.00    -0.346 N 
ATOM     39  N3  UNL     1       6.524   4.471   2.356 -0.04 -0.00    -0.252 NA
ATOM     40  N4  UNL     1       6.132   2.755   0.084 -0.00 -0.00    -0.346 N 
ATOM     41  N5  UNL     1       8.826   5.913   3.690 -0.07 -0.00    -0.348 N 
ATOM     42  N6  UNL     1      12.658   5.367   5.022 +0.02 -0.00    -0.346 N 
ATOM     43  N7  UNL     1      12.611   5.361   1.306 +3.77 -0.00    -0.346 N 
ATOM     44  N13 UNL     1       8.874   7.961  -1.949 -0.21 -0.00    -0.350 N 
ATOM     45  S1  UNL     1      11.283   7.636  -0.832 +2.38 -0.00    -0.109 SA
ATOM     46  H64 UNL     1       8.390   2.879  -0.120 +0.07 +0.00    +0.163 HD
ATOM     47  H65 UNL     1      11.386   3.595   0.259 +2.05 +0.00    +0.163 HD
ATOM     48  H66 UNL     1       6.201   4.984   3.176 +0.06 +0.00    +0.131 HD
ATOM     49  H67 UNL     1       6.465   3.712   0.053 +0.06 +0.00    +0.163 HD
ATOM     50  H68 UNL     1       9.756   5.519   3.527 +0.08 +0.00    +0.163 HD
ATOM     51  H69 UNL     1      11.599   5.271   1.345 -0.19 +0.00    +0.163 HD
ATOM     52  H74 UNL     1       9.298   8.124  -2.850 +0.09 +0.00    +0.166 HD
ENDROOT
BRANCH  22  53
ATOM     53  C28 UNL     1      13.699   7.173   2.617 +1.31 +0.00    +0.137 C 
BRANCH  53  54
ATOM     54  C29 UNL     1      13.982   7.777   1.259+16.91 +0.00    +0.220 C 
ATOM     55  O8  UNL     1      13.248   7.628   0.290 +2.97 -0.00    -0.274 OA
ATOM     56  N8  UNL     1      15.099   8.579   1.232 +2.92 -0.00    -0.357 N 
ATOM     57  H70 UNL     1      15.792   8.473   1.964 -0.01 +0.00    +0.162 HD
BRANCH  56  58
ATOM     58  C30 UNL     1      15.544   9.172  -0.007 +0.70 +0.00    +0.161 C 
BRANCH  58  59
ATOM     59  C31 UNL     1      17.042   9.297  -0.034 -0.47 -0.00    -0.040 A 
ATOM     60  C32 UNL     1      17.685  10.346   0.632 -0.49 +0.00    +0.011 A 
ATOM     61  C33 UNL     1      19.077  10.473   0.578 -0.49 +0.00    +0.030 A 
ATOM     62  C34 UNL     1      19.852   9.557  -0.144 +1.33 +0.00    +0.034 A 
ATOM     63  C35 UNL     1      19.209   8.518  -0.817+18.29 +0.00    +0.030 A 
ATOM     64  C36 UNL     1      17.816   8.389  -0.764 +3.72 +0.00    +0.011 A 
BRANCH  62  65
ATOM     65  N9  UNL     1      21.248   9.761  -0.156 -0.10 -0.00    -0.325 N 
ATOM     66  C37 UNL     1      21.928  10.894  -0.578 +1.03 +0.00    +0.244 C 
ATOM     67  O9  UNL     1      21.417  11.902  -1.063 +0.25 -0.00    -0.271 OA
ATOM     68  H71 UNL     1      21.812   8.970   0.127 +0.11 +0.00    +0.169 HD
BRANCH  66  69
ATOM     69  C38 UNL     1      23.459  10.798  -0.350 +6.13 +0.00    +0.172 C 
ATOM     70  C39 UNL     1      24.074   9.807  -1.330+17.85 +0.00    +0.042 C 
BRANCH  69  71
ATOM     71  N10 UNL     1      23.707  10.370   1.020 +0.41 -0.00    -0.347 N 
ATOM     72  C40 UNL     1      24.836  10.827   1.676 +1.48 +0.00    +0.236 C 
ATOM     73  O10 UNL     1      25.788  11.349   1.103 +6.85 -0.00    -0.272 OA
ATOM     74  H72 UNL     1      22.876  10.319   1.616 +0.15 +0.00    +0.163 HD
BRANCH  72  75
ATOM     75  C41 UNL     1      24.739  10.738   3.200 -0.18 +0.00    +0.225 C 
BRANCH  75  76
ATOM     76  N11 UNL     1      25.382   9.507   3.629 -0.06 -0.00    -0.352 N 
ATOM     77  C42 UNL     1      24.627   8.483   4.164 -0.28 +0.00    +0.219 C 
ATOM     78  O11 UNL     1      23.399   8.503   4.165 -0.04 -0.00    -0.274 OA
ATOM     79  H73 UNL     1      26.343   9.586   3.939 -0.14 +0.00    +0.162 HD
BRANCH  77  80
ATOM     80  C43 UNL     1      25.457   7.359   4.741 +1.11 +0.00    +0.123 C 
BRANCH  80  81
ATOM     81  C44 UNL     1      26.347   6.731   3.674 +5.38 +0.00    +0.144 C 
BRANCH  81  82
ATOM     82  N12 UNL     1      26.103   7.312   2.361 -0.22 -0.00    -0.287 N 
ATOM     83  C45 UNL     1      26.782   8.381   1.858 -0.32 +0.00    +0.228 A 
ATOM     84  C46 UNL     1      26.220   8.744   0.515 +0.08 +0.00    +0.128 A 
ATOM     85  O12 UNL     1      27.683   9.001   2.403 +0.06 -0.00    -0.273 OA
ATOM     86  C47 UNL     1      25.152   7.695   0.257 -0.29 +0.00    +0.145 A 
ATOM     87  C48 UNL     1      25.098   6.896   1.535 -0.21 +0.00    +0.240 A 
ATOM     88  O13 UNL     1      24.277   6.021   1.774 +0.09 -0.00    -0.272 OA
BRANCH  86  89
ATOM     89  S2  UNL     1      25.571   6.600  -1.135 -0.48 -0.00    -0.167 SA
ATOM     90  H75 UNL     1      25.409   5.446  -0.464 +0.07 +0.00    +0.102 HD
ENDBRANCH  86  89
ENDBRANCH  81  82
ENDBRANCH  80  81
ENDBRANCH  77  80
ENDBRANCH  75  76
ENDBRANCH  72  75
ENDBRANCH  69  71
ENDBRANCH  66  69
ENDBRANCH  62  65
ENDBRANCH  58  59
ENDBRANCH  56  58
ENDBRANCH  53  54
ENDBRANCH  22  53
BRANCH  15  91
ATOM     91  C49 UNL     1       8.485   4.346   7.098 -0.51 +0.00    +0.048 C 
BRANCH  91  92
ATOM     92  C50 UNL     1       8.588   2.834   7.318 +0.43 +0.00    +0.142 C 
BRANCH  92  93
ATOM     93  C51 UNL     1       9.696   2.486   8.318 +1.10 +0.00    +0.195 C 
BRANCH  93  94
ATOM     94  O14 UNL     1      10.965   2.730   7.706 -0.13 -0.00    -0.398 OA
ATOM     95  H62 UNL     1      10.912   2.405   6.789 +0.16 +0.00    +0.209 HD
ENDBRANCH  93  94
ENDBRANCH  92  93
BRANCH  92  96
ATOM     96  O15 UNL     1       8.882   2.202   6.068 +4.38 -0.00    -0.393 OA
ATOM     97  H63 UNL     1       8.452   2.755   5.383 -0.26 +0.00    +0.210 HD
ENDBRANCH  92  96
ENDBRANCH  91  92
ENDBRANCH  15  91
BRANCH   1  98
ATOM     98  C3  UNL     1       5.430   2.555  -2.340 -0.11 +0.00    +0.013 C 
ATOM     99  C4  UNL     1       5.321   1.564  -3.505 -0.09 +0.00    +0.012 C 
BRANCH  98 100
ATOM    100  C2  UNL     1       4.073   3.217  -2.029 -0.13 +0.00    +0.002 C 
ATOM    101  C1  UNL     1       3.354   2.722  -0.789 -0.11 +0.00    +0.005 C 
ENDBRANCH  98 100
ENDBRANCH   1  98
TORSDOF 20
TER
