USER    Run = 1
USER    DPF = ligand_124_receptor.dpf
USER  
USER    Estimated Free Energy of Binding    =  +43.88 kcal/mol  [=(1)+(2)+(3)-(4)]
USER    
USER    (1) Final Intermolecular Energy     =  +42.68 kcal/mol
USER        vdW + Hbond + desolv Energy     =  +42.68 kcal/mol
USER        Electrostatic Energy            =   +0.00 kcal/mol
USER    (2) Final Total Internal Energy     =   -1.03 kcal/mol
USER    (3) Torsional Free Energy           =   +1.19 kcal/mol
USER    (4) Unbound System's Energy  [=(2)] =   -1.03 kcal/mol
USER    
USER    
USER    NEWDPF move ligand_124.pdbqt
USER    NEWDPF about 0.000000 0.000000 0.000000
USER    NEWDPF tran0 13.845030 10.928774 1.696836
USER    NEWDPF quaternion0 0.158678 0.456782 0.811361 -0.328428
USER    NEWDPF axisangle0 0.167997 0.483608 0.859011 -141.653279
USER    NEWDPF quat0 0.167997 0.483608 0.859011 -141.653279
USER    NEWDPF dihe0 131.44 42.24 15.30 -170.29 -157.39 -46.24 -68.11 -109.77 180.00 125.68 -92.29 12.55 117.37 180.00 -141.72 -179.96 
USER  keepresnum = 1 
USER  
REMARK  16 active torsions:
REMARK  status: ('A' for Active; 'I' for Inactive)
REMARK    1  A    between atoms: C5_5  and  O5_48 
REMARK    2  A    between atoms: C18_18  and  C26_26 
REMARK       I    between atoms: C26_26  and  N1_49 
REMARK    3  A    between atoms: C27_27  and  C28_28 
REMARK    4  A    between atoms: C27_27  and  N1_49 
REMARK    5  A    between atoms: C28_28  and  C29_29 
REMARK    6  A    between atoms: C29_29  and  C30_30 
REMARK    7  A    between atoms: C30_30  and  C31_31 
REMARK    8  A    between atoms: C31_31  and  C32_32 
REMARK    9  A    between atoms: C32_32  and  C33_33 
REMARK   10  A    between atoms: C33_33  and  C34_34 
REMARK   11  A    between atoms: C34_34  and  C35_35 
REMARK   12  A    between atoms: C35_35  and  C36_36 
REMARK   13  A    between atoms: C36_36  and  C37_37 
REMARK       I    between atoms: C37_37  and  N2_50 
REMARK   14  A    between atoms: C38_38  and  C39_39 
REMARK   15  A    between atoms: C38_38  and  N2_50 
REMARK   16  A    between atoms: C39_39  and  O4_47 
USER                              x       y       z     vdW  Elec       q    Type
USER                           _______ _______ _______ _____ _____    ______ ____
ROOT
ATOM      1  C1  UNL     1      18.163  11.971   1.365 -0.72 +0.00    +0.016 C 
ATOM      2  C2  UNL     1      18.689  10.612   1.891 -0.53 -0.00    -0.035 C 
ATOM      3  C3  UNL     1      19.856  10.916   2.878 +0.80 +0.00    +0.012 C 
ATOM      4  C4  UNL     1      21.123  11.441   2.208 +3.51 +0.00    +0.033 C 
ATOM      5  C5  UNL     1      21.628  10.520   1.102 +0.26 +0.00    +0.126 C 
ATOM      6  C6  UNL     1      20.555  10.186   0.022 -0.17 -0.00    -0.017 C 
ATOM      7  C7  UNL     1      19.251   9.686   0.750 -0.04 +0.00    +0.004 C 
ATOM      8  C8  UNL     1      18.114   9.228  -0.186 -0.17 +0.00    +0.007 C 
ATOM      9  C9  UNL     1      17.097   8.380   0.582 -0.25 +0.00    +0.011 C 
ATOM     10  C10 UNL     1      16.451   9.084   1.809 -0.54 -0.00    -0.028 C 
ATOM     11  C11 UNL     1      17.571   9.780   2.672 -0.54 +0.00    +0.007 C 
ATOM     12  C12 UNL     1      16.941  10.525   3.867 -0.32 +0.00    +0.033 C 
ATOM     13  C13 UNL     1      15.880   9.742   4.582 +1.62 -0.00    -0.022 C 
ATOM     14  C14 UNL     1      15.302   8.606   4.143 -0.47 -0.00    -0.069 C 
ATOM     15  C15 UNL     1      15.658   8.005   2.758 -0.04 -0.00    -0.013 C 
ATOM     16  C16 UNL     1      14.349   7.526   2.055+10.01 +0.00    +0.016 C 
ATOM     17  C17 UNL     1      13.427   6.663   2.919 +0.62 +0.00    +0.021 C 
ATOM     18  C18 UNL     1      13.027   7.340   4.251 -0.48 +0.00    +0.048 C 
ATOM     19  C19 UNL     1      14.305   7.801   5.008 -0.48 +0.00    +0.033 C 
ATOM     20  C20 UNL     1      13.938   8.387   6.395 +1.42 +0.00    +0.019 C 
ATOM     21  C21 UNL     1      13.133   7.412   7.292 -0.50 -0.00    -0.047 C 
ATOM     22  C22 UNL     1      11.942   6.808   6.521 -0.43 +0.00    +0.010 C 
ATOM     23  C23 UNL     1      12.316   6.272   5.134 -0.42 +0.00    +0.020 C 
ATOM     24  C24 UNL     1      12.598   8.187   8.512 +0.33 +0.00    +0.015 C 
ATOM     25  C25 UNL     1      14.046   6.285   7.821 -0.67 +0.00    +0.015 C 
ATOM     26  C40 UNL     1      16.533   6.741   3.025+15.79 +0.00    +0.021 C 
ATOM     27  C41 UNL     1      15.453  10.141   1.252 +2.11 +0.00    +0.016 C 
ATOM     28  C42 UNL     1      21.125   9.038  -0.861 +3.94 +0.00    +0.018 C 
ATOM     29  C43 UNL     1      20.323  11.375  -0.931 +4.79 +0.00    +0.018 C 
ENDROOT
BRANCH  18  30
ATOM     30  C26 UNL     1      11.971   8.442   3.938 -0.22 +0.00    +0.227 C 
ATOM     31  O1  UNL     1      12.300   9.612   3.731 +3.95 -0.00    -0.273 OA
ATOM     32  N1  UNL     1      10.647   8.086   3.987 -0.23 -0.00    -0.360 N 
ATOM     33  H71 UNL     1      10.388   7.145   4.235 +0.10 +0.00    +0.162 HD
BRANCH  32  34
ATOM     34  C27 UNL     1       9.577   9.048   3.816 +0.33 +0.00    +0.122 C 
BRANCH  34  35
ATOM     35  C28 UNL     1       8.505   8.521   2.866 +0.70 +0.00    +0.020 C 
BRANCH  35  36
ATOM     36  C29 UNL     1       8.731   7.066   2.443 -0.39 +0.00    +0.002 C 
BRANCH  36  37
ATOM     37  C30 UNL     1       8.925   6.118   3.630 -0.29 +0.00    +0.000 C 
BRANCH  37  38
ATOM     38  C31 UNL     1       9.656   4.825   3.255 -0.23 +0.00    +0.000 C 
BRANCH  38  39
ATOM     39  C32 UNL     1       9.375   3.670   4.219 -0.40 +0.00    +0.000 C 
BRANCH  39  40
ATOM     40  C33 UNL     1       9.464   4.076   5.694 -0.45 +0.00    +0.000 C 
BRANCH  40  41
ATOM     41  C34 UNL     1       8.192   3.867   6.522 -0.47 +0.00    +0.000 C 
BRANCH  41  42
ATOM     42  C35 UNL     1       8.250   4.526   7.904 -0.57 +0.00    +0.009 C 
BRANCH  42  43
ATOM     43  C36 UNL     1       7.203   5.628   8.064 +0.13 +0.00    +0.103 C 
BRANCH  43  44
ATOM     44  C37 UNL     1       5.959   5.411   7.221 -0.32 +0.00    +0.217 C 
ATOM     45  O2  UNL     1       5.283   6.318   6.748 -0.28 -0.00    -0.274 OA
ATOM     46  N2  UNL     1       5.675   4.075   7.022 -0.25 -0.00    -0.351 N 
ATOM     47  H72 UNL     1       6.436   3.420   7.155 -0.11 +0.00    +0.163 HD
BRANCH  46  48
ATOM     48  C38 UNL     1       4.636   3.682   6.082 -0.29 +0.00    +0.232 C 
BRANCH  48  49
ATOM     49  C39 UNL     1       3.268   3.808   6.732 -0.30 +0.00    +0.158 C 
ATOM     50  O3  UNL     1       2.922   4.658   7.539 -0.07 -0.00    -0.649 OA
BRANCH  49  51
ATOM     51  O4  UNL     1       2.385   2.899   6.273 +0.03 -0.00    -0.775 OA
ATOM     52  H69 UNL     1       2.458   2.963   5.297 +0.06 +0.00    +0.167 HD
ENDBRANCH  49  51
ENDBRANCH  48  49
ENDBRANCH  46  48
ENDBRANCH  43  44
ENDBRANCH  42  43
ENDBRANCH  41  42
ENDBRANCH  40  41
ENDBRANCH  39  40
ENDBRANCH  38  39
ENDBRANCH  37  38
ENDBRANCH  36  37
ENDBRANCH  35  36
ENDBRANCH  34  35
ENDBRANCH  32  34
ENDBRANCH  18  30
BRANCH   5  53
ATOM     53  O5  UNL     1      22.779  11.143   0.532 +3.63 -0.00    -0.395 OA
ATOM     54  H70 UNL     1      22.870  10.825  -0.382 +0.17 +0.00    +0.210 HD
ENDBRANCH   5  53
TORSDOF 16
TER
