USER    Run = 1
USER    DPF = ligand_126_receptor.dpf
USER  
USER    Estimated Free Energy of Binding    =   -9.42 kcal/mol  [=(1)+(2)+(3)-(4)]
USER    Estimated Inhibition Constant, Ki   =  125.48 nM (nanomolar)  [Temperature = 298.15 K]
USER    
USER    (1) Final Intermolecular Energy     =  -10.61 kcal/mol
USER        vdW + Hbond + desolv Energy     =  -10.61 kcal/mol
USER        Electrostatic Energy            =   +0.00 kcal/mol
USER    (2) Final Total Internal Energy     =   -2.65 kcal/mol
USER    (3) Torsional Free Energy           =   +1.19 kcal/mol
USER    (4) Unbound System's Energy  [=(2)] =   -2.65 kcal/mol
USER    
USER    
USER    NEWDPF move ligand_126.pdbqt
USER    NEWDPF about 0.000000 0.000000 0.000000
USER    NEWDPF tran0 22.296851 9.245401 3.132017
USER    NEWDPF quaternion0 0.108477 0.944851 0.304491 0.052664
USER    NEWDPF axisangle0 0.108628 0.946164 0.304914 173.962328
USER    NEWDPF quat0 0.108628 0.946164 0.304914 173.962328
USER    NEWDPF dihe0 152.37 67.57 171.92 -72.92 79.92 -155.51 177.81 112.58 -146.11 -82.86 
USER  keepresnum = 1 
USER  
REMARK  10 active torsions:
REMARK  status: ('A' for Active; 'I' for Inactive)
REMARK    1  A    between atoms: C6_6  and  C7_7 
REMARK       I    between atoms: C7_7  and  N1_29 
REMARK    2  A    between atoms: C8_8  and  C9_9 
REMARK    3  A    between atoms: C8_8  and  N1_29 
REMARK    4  A    between atoms: C9_9  and  O2_25 
REMARK    5  A    between atoms: C11_11  and  C12_12 
REMARK       I    between atoms: C12_12  and  N3_31 
REMARK    6  A    between atoms: C13_13  and  N3_31 
REMARK    7  A    between atoms: C20_20  and  C21_21 
REMARK       I    between atoms: C21_21  and  N5_33 
REMARK    8  A    between atoms: C22_22  and  C23_23 
REMARK    9  A    between atoms: C22_22  and  N5_33 
REMARK   10  A    between atoms: C23_23  and  O5_28 
USER                              x       y       z     vdW  Elec       q    Type
USER                           _______ _______ _______ _____ _____    ______ ____
ROOT
ATOM      1  C12 UNL     1      22.617   9.569   3.065 -0.33 +0.00    +0.272 C 
ATOM      2  O3  UNL     1      22.553  10.198   4.114 -0.37 -0.00    -0.266 OA
ATOM      3  N3  UNL     1      21.545   9.278   2.239 -0.20 -0.00    -0.322 N 
ATOM      4  H21 UNL     1      21.770   8.965   1.305 +0.13 +0.00    +0.169 HD
ENDROOT
BRANCH   1   5
ATOM      5  C11 UNL     1      23.885   9.079   2.552 -0.42 +0.00    +0.102 A 
ATOM      6  C10 UNL     1      24.128   8.476   1.329 -0.41 +0.00    +0.049 A 
ATOM      7  C4  UNL     1      25.510   8.169   1.241 -0.43 -0.00    -0.006 A 
ATOM      8  C3  UNL     1      26.106   8.628   2.413 -0.53 +0.00    +0.043 A 
ATOM      9  C5  UNL     1      26.315   7.549   0.267 -0.36 +0.00    +0.030 A 
ATOM     10  C2  UNL     1      27.476   8.501   2.669 -0.30 +0.00    +0.031 A 
ATOM     11  N2  UNL     1      25.107   9.189   3.177 -0.31 -0.00    -0.351 N 
ATOM     12  C1  UNL     1      28.261   7.882   1.689 -0.40 +0.00    +0.019 A 
ATOM     13  C6  UNL     1      27.695   7.421   0.495 -0.34 +0.00    +0.033 A 
ATOM     14  H20 UNL     1      25.265   9.656   4.059 +0.12 +0.00    +0.166 HD
BRANCH  13  15
ATOM     15  C7  UNL     1      28.518   6.762  -0.555 -0.18 +0.00    +0.251 C 
ATOM     16  O1  UNL     1      29.689   7.082  -0.720 -0.11 -0.00    -0.268 OA
ATOM     17  N1  UNL     1      27.899   5.763  -1.279 -0.09 -0.00    -0.355 N 
ATOM     18  H19 UNL     1      27.017   5.392  -0.954 +0.09 +0.00    +0.162 HD
BRANCH  17  19
ATOM     19  C8  UNL     1      28.634   5.000  -2.268 -0.16 +0.00    +0.148 C 
BRANCH  19  20
ATOM     20  C9  UNL     1      28.024   3.624  -2.538 -0.19 +0.00    +0.183 C 
BRANCH  20  21
ATOM     21  O2  UNL     1      26.992   3.345  -1.598 -0.39 -0.00    -0.399 OA
ATOM     22  H17 UNL     1      27.124   2.426  -1.302 +0.05 +0.00    +0.209 HD
ENDBRANCH  20  21
ENDBRANCH  19  20
ENDBRANCH  17  19
ENDBRANCH  13  15
ENDBRANCH   1   5
BRANCH   3  23
ATOM     23  C13 UNL     1      20.177   9.530   2.483 -0.30 +0.00    +0.037 A 
ATOM     24  C14 UNL     1      19.320   8.606   3.092 -0.04 +0.00    +0.059 A 
ATOM     25  C15 UNL     1      17.976   8.971   3.269 -0.49 +0.00    +0.045 A 
ATOM     26  C16 UNL     1      17.465  10.199   2.864 -0.47 -0.00    -0.007 A 
ATOM     27  N4  UNL     1      16.937   8.268   3.829 -0.28 -0.00    -0.351 N 
ATOM     28  C17 UNL     1      18.331  11.117   2.247 -0.49 +0.00    +0.016 A 
ATOM     29  C19 UNL     1      16.083  10.210   3.204 -0.22 +0.00    +0.049 A 
ATOM     30  C18 UNL     1      19.677  10.770   2.064 -0.47 +0.00    +0.030 A 
ATOM     31  C20 UNL     1      15.770   9.003   3.808 -0.38 +0.00    +0.102 A 
ATOM     32  H22 UNL     1      17.006   7.334   4.216 +0.10 +0.00    +0.166 HD
BRANCH  31  33
ATOM     33  C21 UNL     1      14.540   8.467   4.347 -0.30 +0.00    +0.268 C 
ATOM     34  O4  UNL     1      14.040   8.891   5.385 -0.21 -0.00    -0.266 OA
ATOM     35  N5  UNL     1      13.968   7.448   3.626 -0.24 -0.00    -0.354 N 
ATOM     36  H23 UNL     1      14.369   7.213   2.729 -0.48 +0.00    +0.162 HD
BRANCH  35  37
ATOM     37  C22 UNL     1      12.669   6.880   3.955 -0.36 +0.00    +0.149 C 
BRANCH  37  38
ATOM     38  C23 UNL     1      11.777   6.636   2.731 -0.30 +0.00    +0.183 C 
BRANCH  38  39
ATOM     39  O5  UNL     1      12.497   6.785   1.512 -0.26 -0.00    -0.399 OA
ATOM     40  H18 UNL     1      13.448   6.640   1.715 -0.28 +0.00    +0.209 HD
ENDBRANCH  38  39
ENDBRANCH  37  38
ENDBRANCH  35  37
ENDBRANCH  31  33
ENDBRANCH   3  23
TORSDOF 10
TER
