USER    Run = 1
USER    DPF = ligand_66_receptor.dpf
USER  
USER    Estimated Free Energy of Binding    =  +24.86 kcal/mol  [=(1)+(2)+(3)-(4)]
USER    
USER    (1) Final Intermolecular Energy     =  +23.66 kcal/mol
USER        vdW + Hbond + desolv Energy     =  +23.66 kcal/mol
USER        Electrostatic Energy            =   +0.00 kcal/mol
USER    (2) Final Total Internal Energy     =   +1.00 kcal/mol
USER    (3) Torsional Free Energy           =   +1.19 kcal/mol
USER    (4) Unbound System's Energy  [=(2)] =   +1.00 kcal/mol
USER    
USER    
USER    NEWDPF move ligand_66.pdbqt
USER    NEWDPF about 0.000000 0.000000 0.000000
USER    NEWDPF tran0 17.004618 10.123130 -0.631273
USER    NEWDPF quaternion0 -0.622939 -0.218831 0.179315 0.729318
USER    NEWDPF axisangle0 -0.910498 -0.319847 0.262090 86.341422
USER    NEWDPF quat0 -0.910498 -0.319847 0.262090 86.341422
USER    NEWDPF dihe0 180.00 -169.68 89.45 119.50 -90.76 -78.06 15.72 -40.71 0.30 30.52 -37.68 139.71 84.07 179.91 
USER  keepresnum = 1 
USER  
REMARK  14 active torsions:
REMARK  status: ('A' for Active; 'I' for Inactive)
REMARK    1  A    between atoms: C4_4  and  O1_63 
REMARK    2  A    between atoms: C5_5  and  O1_63 
REMARK    3  A    between atoms: C7_7  and  O6_68 
REMARK    4  A    between atoms: C8_8  and  N2_42 
REMARK    5  A    between atoms: C10_10  and  C11_11 
REMARK    6  A    between atoms: C12_12  and  C13_13 
REMARK       I    between atoms: C12_12  and  N2_42 
REMARK    7  A    between atoms: C15_15  and  C17_17 
REMARK       I    between atoms: C17_17  and  N5_47 
REMARK    8  A    between atoms: C18_18  and  N5_47 
REMARK    9  A    between atoms: C19_19  and  O5_67 
REMARK   10  A    between atoms: C21_21  and  O4_66 
REMARK   11  A    between atoms: C22_22  and  C24_24 
REMARK   12  A    between atoms: C25_25  and  O4_66 
REMARK       I    between atoms: C29_29  and  N6_48 
REMARK       I    between atoms: C29_29  and  N7_49 
REMARK       I    between atoms: C29_29  and  N8_51 
REMARK   13  A    between atoms: C30_30  and  O5_67 
REMARK       I    between atoms: C34_34  and  N9_52 
REMARK       I    between atoms: C34_34  and  N10_53 
REMARK       I    between atoms: C34_34  and  N11_55 
REMARK   14  A    between atoms: C35_35  and  O6_68 
REMARK       I    between atoms: C39_39  and  N12_56 
REMARK       I    between atoms: C39_39  and  N13_57 
REMARK       I    between atoms: C39_39  and  N14_59 
REMARK       I    between atoms: C40_40  and  N1_41 
REMARK       I    between atoms: C40_40  and  N16_62 
USER                              x       y       z     vdW  Elec       q    Type
USER                           _______ _______ _______ _____ _____    ______ ____
ROOT
ATOM      1  C13 UNL     1      16.417   9.873   1.507 -0.40 +0.00    +0.104 A 
ATOM      2  C14 UNL     1      17.774   9.713   1.637 -0.40 +0.00    +0.070 A 
ATOM      3  C15 UNL     1      18.504  10.165   0.564 -0.39 +0.00    +0.104 A 
ATOM      4  C16 UNL     1      16.629  10.834  -0.555 +9.80 +0.00    +0.181 A 
ATOM      5  N3  UNL     1      17.963  10.732  -0.546 +0.12 -0.00    -0.348 N 
ATOM      6  H3  UNL     1      18.537  11.058  -1.323 +0.20 +0.00    +0.167 HD
ATOM      7  N4  UNL     1      15.813  10.423   0.421 +0.01 -0.00    -0.348 N 
ATOM      8  H4  UNL     1      14.799  10.516   0.356 -0.27 +0.00    +0.167 HD
ENDROOT
BRANCH   1   9
ATOM      9  C12 UNL     1      15.500   9.455   2.617 -0.15 +0.00    +0.272 C 
ATOM     10  N2  UNL     1      15.035   8.165   2.469 -0.06 -0.00    -0.319 N 
ATOM     11  H35 UNL     1      15.418   7.657   1.672 -0.40 +0.00    +0.169 HD
ATOM     12  O2  UNL     1      15.227  10.237   3.518 +1.06 -0.00    -0.266 OA
BRANCH  10  13
ATOM     13  C8  UNL     1      14.110   7.461   3.257 -0.17 +0.00    +0.069 A 
ATOM     14  C7  UNL     1      13.188   6.642   2.591 +0.50 +0.00    +0.098 A 
ATOM     15  C6  UNL     1      12.254   5.877   3.295 +1.17 +0.00    +0.076 A 
ATOM     16  C5  UNL     1      12.202   5.952   4.689 -0.24 +0.00    +0.087 A 
ATOM     17  C10 UNL     1      13.096   6.798   5.372 -0.37 +0.00    +0.083 A 
ATOM     18  C9  UNL     1      14.048   7.543   4.646 -0.45 +0.00    +0.051 A 
BRANCH  14  19
ATOM     19  O6  UNL     1      13.274   6.538   1.225 +0.75 -0.00    -0.342 OA
BRANCH  19  20
ATOM     20  C35 UNL     1      12.330   7.379   0.534 +2.71 +0.00    +0.148 C 
ATOM     21  C36 UNL     1      10.989   7.275   1.244 +0.06 +0.00    +0.054 C 
ATOM     22  C37 UNL     1      10.457   5.920   0.779 -0.24 +0.00    +0.128 C 
ATOM     23  N12 UNL     1      11.009   5.738  -0.564 -0.13 -0.00    -0.356 N 
ATOM     24  C38 UNL     1      12.009   6.772  -0.840 -0.31 +0.00    +0.157 C 
ATOM     25  C39 UNL     1      10.607   4.797  -1.453 -0.18 +0.00    +0.146 C 
ATOM     26  N13 UNL     1      10.963   4.703  -2.687 +0.22 -0.00    -0.376 N 
ATOM     27  N14 UNL     1       9.756   3.864  -0.984 -0.07 -0.00    -0.274 NA
ATOM     28  H43 UNL     1      11.576   5.485  -2.915 +0.08 +0.00    +0.158 HD
ATOM     29  H13 UNL     1      10.678   3.965  -3.331 +0.07 +0.00    +0.158 HD
ATOM     30  H44 UNL     1       9.607   3.150  -1.688 +0.06 +0.00    +0.127 HD
ATOM     31  H45 UNL     1      10.048   3.453  -0.109 -0.21 +0.00    +0.127 HD
ENDBRANCH  19  20
ENDBRANCH  14  19
BRANCH  16  32
ATOM     32  O1  UNL     1      11.329   5.257   5.478 -0.15 -0.00    -0.343 OA
BRANCH  32  33
ATOM     33  C4  UNL     1      10.026   4.961   4.988 -0.26 +0.00    +0.148 C 
ATOM     34  C1  UNL     1       9.395   6.249   4.473 -0.27 +0.00    +0.054 C 
ATOM     35  C2  UNL     1       7.912   5.918   4.474 -0.16 +0.00    +0.128 C 
ATOM     36  N1  UNL     1       7.733   5.049   5.636 -0.11 -0.00    -0.356 N 
ATOM     37  C3  UNL     1       9.033   4.550   6.086 -0.32 +0.00    +0.157 C 
ATOM     38  C40 UNL     1       6.545   4.513   6.022 -0.35 +0.00    +0.146 C 
ATOM     39  N15 UNL     1       6.356   3.636   6.944 -0.15 -0.00    -0.376 N 
ATOM     40  N16 UNL     1       5.452   4.954   5.368 -0.13 -0.00    -0.274 NA
ATOM     41  H46 UNL     1       7.244   3.403   7.384 +0.01 +0.00    +0.158 HD
ATOM     42  H15 UNL     1       5.453   3.235   7.195 -0.05 +0.00    +0.158 HD
ATOM     43  H47 UNL     1       4.632   4.555   5.817 +0.06 +0.00    +0.127 HD
ATOM     44  H48 UNL     1       5.381   5.962   5.375 +0.05 +0.00    +0.127 HD
ENDBRANCH  32  33
ENDBRANCH  16  32
BRANCH  17  45
ATOM     45  C11 UNL     1      13.048   6.899   6.879 -0.18 +0.00    +0.420 C 
ATOM     46  F1  UNL     1      14.213   6.518   7.474 -0.20 -0.00    -0.166 F 
ATOM     47  F2  UNL     1      12.083   6.118   7.445 -0.10 -0.00    -0.166 F 
ATOM     48  F3  UNL     1      12.791   8.164   7.318 -0.16 -0.00    -0.166 F 
ENDBRANCH  17  45
ENDBRANCH  10  13
ENDBRANCH   1   9
BRANCH   3  49
ATOM     49  C17 UNL     1      19.999  10.052   0.578 -0.20 +0.00    +0.272 C 
ATOM     50  N5  UNL     1      20.483   9.430   1.709 +0.13 -0.00    -0.319 N 
ATOM     51  H36 UNL     1      19.776   9.128   2.380 +0.12 +0.00    +0.169 HD
ATOM     52  O3  UNL     1      20.654  10.495  -0.357 +0.09 -0.00    -0.266 OA
BRANCH  50  53
ATOM     53  C18 UNL     1      21.816   9.149   2.067 -0.28 +0.00    +0.069 A 
ATOM     54  C19 UNL     1      22.671   8.701   1.041 -0.32 +0.00    +0.098 A 
ATOM     55  C20 UNL     1      24.001   8.410   1.338 -0.38 +0.00    +0.076 A 
ATOM     56  C21 UNL     1      24.461   8.488   2.655 -0.42 +0.00    +0.087 A 
ATOM     57  C22 UNL     1      23.645   8.980   3.678 -0.44 +0.00    +0.083 A 
ATOM     58  C23 UNL     1      22.310   9.298   3.368 -0.39 +0.00    +0.051 A 
BRANCH  54  59
ATOM     59  O5  UNL     1      22.098   8.581  -0.202 -0.16 -0.00    -0.342 OA
BRANCH  59  60
ATOM     60  C30 UNL     1      22.853   7.975  -1.249 +0.82 +0.00    +0.148 C 
ATOM     61  C31 UNL     1      22.500   6.494  -1.306 +0.36 +0.00    +0.054 C 
ATOM     62  C32 UNL     1      23.683   5.874  -2.038 +1.57 +0.00    +0.128 C 
ATOM     63  N9  UNL     1      24.821   6.727  -1.706 -0.25 -0.00    -0.356 N 
ATOM     64  C33 UNL     1      24.364   7.908  -0.975 -0.26 +0.00    +0.157 C 
ATOM     65  C34 UNL     1      26.121   6.368  -1.851 -0.19 +0.00    +0.146 C 
ATOM     66  N10 UNL     1      26.572   5.246  -2.288 +0.21 -0.00    -0.376 N 
ATOM     67  N11 UNL     1      27.041   7.297  -1.515 -0.00 -0.00    -0.274 NA
ATOM     68  H40 UNL     1      25.795   4.629  -2.514 +0.09 +0.00    +0.158 HD
ATOM     69  H10 UNL     1      27.558   5.010  -2.393 +0.07 +0.00    +0.158 HD
ATOM     70  H41 UNL     1      26.916   8.165  -2.026 +0.88 +0.00    +0.127 HD
ATOM     71  H42 UNL     1      27.952   6.914  -1.754 +0.04 +0.00    +0.127 HD
ENDBRANCH  59  60
ENDBRANCH  54  59
BRANCH  56  72
ATOM     72  O4  UNL     1      25.761   8.128   2.893 -0.34 -0.00    -0.343 OA
BRANCH  72  73
ATOM     73  C25 UNL     1      26.005   6.759   2.534 +0.37 +0.00    +0.148 C 
ATOM     74  C26 UNL     1      26.923   6.722   1.319 -0.14 +0.00    +0.054 C 
ATOM     75  C27 UNL     1      26.686   5.333   0.737 -0.06 +0.00    +0.128 C 
ATOM     76  N6  UNL     1      25.309   4.997   1.109 -0.19 -0.00    -0.356 N 
ATOM     77  C28 UNL     1      24.774   6.009   2.010 +0.95 +0.00    +0.157 C 
ATOM     78  C29 UNL     1      24.564   4.130   0.373 -0.39 +0.00    +0.146 C 
ATOM     79  N7  UNL     1      24.991   3.569  -0.702 -0.01 -0.00    -0.376 N 
ATOM     80  N8  UNL     1      23.329   3.873   0.861 -0.02 -0.00    -0.274 NA
ATOM     81  H37 UNL     1      24.266   2.977  -1.104 +0.20 +0.00    +0.158 HD
ATOM     82  H7  UNL     1      25.923   3.698  -1.096 +0.09 +0.00    +0.158 HD
ATOM     83  H38 UNL     1      23.347   3.744   1.867 +0.08 +0.00    +0.127 HD
ATOM     84  H39 UNL     1      22.895   3.063   0.436 +0.85 +0.00    +0.127 HD
ENDBRANCH  72  73
ENDBRANCH  56  72
BRANCH  57  85
ATOM     85  C24 UNL     1      24.170   9.168   5.077 +1.07 +0.00    +0.420 C 
ATOM     86  F4  UNL     1      23.529   8.400   6.000 +3.42 -0.00    -0.166 F 
ATOM     87  F5  UNL     1      24.052  10.456   5.509 +0.21 -0.00    -0.166 F 
ATOM     88  F6  UNL     1      25.493   8.863   5.207 +6.60 -0.00    -0.166 F 
ENDBRANCH  57  85
ENDBRANCH  50  53
ENDBRANCH   3  49
TORSDOF 14
TER
