USER    Run = 1
USER    DPF = ligand_348_receptor.dpf
USER  
USER    Estimated Free Energy of Binding    =  +1.92e+006 kcal/mol  [=(1)+(2)+(3)-(4)]
USER    
USER    (1) Final Intermolecular Energy     =  +1.92e+006 kcal/mol
USER        vdW + Hbond + desolv Energy     =  +1.10e+006 kcal/mol
USER        Electrostatic Energy            =  +8.18e+005 kcal/mol
USER    (2) Final Total Internal Energy     =   +0.00 kcal/mol
USER    (3) Torsional Free Energy           =   +1.19 kcal/mol
USER    (4) Unbound System's Energy  [=(2)] =   +0.00 kcal/mol
USER    
USER    
USER    NEWDPF move ligand_348.pdbqt
USER    NEWDPF about 0.000000 0.000000 0.000000
USER    NEWDPF tran0 17.001517 9.061638 1.918892
USER    NEWDPF quaternion0 0.142271 -0.203436 0.966487 0.065388
USER    NEWDPF axisangle0 0.142577 -0.203872 0.968560 172.501769
USER    NEWDPF quat0 0.142577 -0.203872 0.968560 172.501769
USER  keepresnum = 1 
USER  
REMARK  0 active torsions:
REMARK  status: ('A' for Active; 'I' for Inactive)
REMARK       I    between atoms: C2_2  and  C3_3 
REMARK       I    between atoms: C3_3  and  C5_5 
REMARK       I    between atoms: C5_5  and  C6_6 
REMARK       I    between atoms: C5_5  and  N4_93 
REMARK       I    between atoms: C6_6  and  C7_7 
REMARK       I    between atoms: C6_6  and  O7_78 
REMARK       I    between atoms: C7_7  and  C8_8 
REMARK       I    between atoms: C8_8  and  N1_90 
REMARK       I    between atoms: C12_12  and  C13_13 
REMARK       I    between atoms: C13_13  and  C14_14 
REMARK       I    between atoms: C13_13  and  O6_77 
REMARK       I    between atoms: C14_14  and  C16_16 
REMARK       I    between atoms: C16_16  and  N2_91 
REMARK       I    between atoms: C17_17  and  C18_18 
REMARK       I    between atoms: C17_17  and  C25_25 
REMARK       I    between atoms: C17_17  and  N2_91 
REMARK       I    between atoms: C18_18  and  C19_19 
REMARK       I    between atoms: C25_25  and  N3_92 
REMARK       I    between atoms: C26_26  and  S1_102 
REMARK       I    between atoms: C32_32  and  C33_33 
REMARK       I    between atoms: C32_32  and  N4_93 
REMARK       I    between atoms: C33_33  and  C34_34 
REMARK       I    between atoms: C33_33  and  N5_94 
REMARK       I    between atoms: C37_37  and  C38_38 
REMARK       I    between atoms: C37_37  and  N5_94 
REMARK       I    between atoms: C38_38  and  C39_39 
REMARK       I    between atoms: C38_38  and  N6_95 
REMARK       I    between atoms: C43_43  and  O11_82 
REMARK       I    between atoms: C43_43  and  N6_95 
REMARK       I    between atoms: C44_44  and  C45_45 
REMARK       I    between atoms: C44_44  and  O11_82 
REMARK       I    between atoms: C48_48  and  N7_96 
REMARK       I    between atoms: C51_51  and  C52_52 
REMARK       I    between atoms: C51_51  and  N7_96 
REMARK       I    between atoms: C52_52  and  C53_53 
REMARK       I    between atoms: C52_52  and  N10_99 
REMARK       I    between atoms: C53_53  and  C54_54 
REMARK       I    between atoms: C54_54  and  C55_55 
REMARK       I    between atoms: C55_55  and  N8_97 
REMARK       I    between atoms: C56_56  and  N8_97 
REMARK       I    between atoms: C56_56  and  N9_98 
REMARK       I    between atoms: C57_57  and  C58_58 
REMARK       I    between atoms: C57_57  and  N10_99 
REMARK       I    between atoms: C58_58  and  C59_59 
REMARK       I    between atoms: C58_58  and  N11_100 
REMARK       I    between atoms: C62_62  and  C63_63 
REMARK       I    between atoms: C62_62  and  N11_100 
REMARK       I    between atoms: C63_63  and  C64_64 
REMARK       I    between atoms: C64_64  and  C65_65 
REMARK       I    between atoms: C65_65  and  N12_101 
REMARK       I    between atoms: C68_68  and  C71_71 
REMARK       I    between atoms: C71_71  and  O18_89 
REMARK       I    between atoms: N3_92  and  S1_102 
USER                              x       y       z     vdW  Elec       q    Type
USER                           _______ _______ _______ _____ _____    ______ ____
ROOT
ATOM      1  C1  UNL     1      20.803   7.164   2.868+99.99 +0.00    +0.005 C 
ATOM      2  C2  UNL     1      22.076   7.055   2.043+97.03 +0.00    +0.002 C 
ATOM      3  C3  UNL     1      22.825   8.376   1.763 -0.40 +0.00    +0.006 C 
ATOM      4  C4  UNL     1      22.849   9.307   2.982 -0.56 +0.00    +0.012 C 
ATOM      5  C5  UNL     1      22.457   9.119   0.421 -0.41 +0.00    +0.119 C 
ATOM      6  C6  UNL     1      22.936   8.307  -0.842 -0.06 +0.00    +0.152 C 
ATOM      7  C7  UNL     1      22.723   9.037  -2.178+99.99 +0.00    +0.137 C 
ATOM      8  C8  UNL     1      23.885   9.890  -2.672+42.98 +0.00    +0.222 C 
ATOM      9  C9  UNL     1      22.936  12.007  -1.686 +2.78 +0.00    +0.126 C 
ATOM     10  C10 UNL     1      23.064  13.346  -2.392+99.99 +0.00    +0.022 C 
ATOM     11  C11 UNL     1      24.571  13.503  -2.509+99.99 +0.00    +0.029 C 
ATOM     12  C12 UNL     1      25.056  12.073  -2.816+69.63 +0.00    +0.117 C 
ATOM     13  C13 UNL     1      26.532  11.857  -2.347+99.99 +0.00    +0.156 C 
ATOM     14  C14 UNL     1      26.746  11.841  -0.809+99.99 +0.00    +0.105 C 
ATOM     15  C15 UNL     1      26.324  10.556  -0.099+99.99 +0.00    +0.022 C 
ATOM     16  C16 UNL     1      28.226  12.092  -0.524+70.35 +0.00    +0.224 C 
ATOM     17  C17 UNL     1      30.525  11.300  -1.032 +6.24 +0.00    +0.181 C 
ATOM     18  C18 UNL     1      31.142  11.216   0.375 +3.06 +0.00    +0.073 C 
ATOM     19  C19 UNL     1      32.370  12.082   0.521 +1.31 -0.00    -0.056 A 
ATOM     20  C20 UNL     1      33.650  11.559   0.303+99.99+99.99    +0.007 A 
ATOM     21  C21 UNL     1      34.776  12.375   0.423+99.99+99.99    +0.001 A 
ATOM     22  C22 UNL     1      34.632  13.720   0.761+99.99+99.99    +0.000 A 
ATOM     23  C23 UNL     1      33.362  14.251   0.975+99.99+99.99    +0.001 A 
ATOM     24  C24 UNL     1      32.235  13.438   0.853+33.08 +0.00    +0.007 A 
ATOM     25  C25 UNL     1      31.147  10.201  -1.918 +5.38 +0.00    +0.254 C 
ATOM     26  C26 UNL     1      29.414   6.575  -2.832 -0.11 +0.00    +0.130 A 
ATOM     27  C27 UNL     1      29.697   5.103  -2.713 -0.12 +0.00    +0.023 A 
ATOM     28  C28 UNL     1      29.106   5.852  -1.548 -0.18 +0.00    +0.023 A 
ATOM     29  C29 UNL     1      27.412  10.726  -4.287+99.99 +0.00    +0.202 C 
ATOM     30  C30 UNL     1      24.696   6.788  -1.398 -0.41 +0.00    +0.202 C 
ATOM     31  C31 UNL     1      20.844  10.933   1.042 -0.27 +0.00    +0.153 C 
ATOM     32  C32 UNL     1      19.997   8.870  -0.065+29.79 +0.00    +0.243 C 
ATOM     33  C33 UNL     1      18.503   9.342  -0.021 +0.26 +0.00    +0.180 C 
ATOM     34  C34 UNL     1      18.069  10.566  -0.865 +1.29 +0.00    +0.009 C 
ATOM     35  C35 UNL     1      18.679  10.524  -2.269+99.99 +0.00    +0.012 C 
ATOM     36  C36 UNL     1      16.539  10.626  -0.999+90.84 +0.00    +0.012 C 
ATOM     37  C37 UNL     1      17.745  10.244   2.232 -0.34 +0.00    +0.241 C 
ATOM     38  C38 UNL     1      17.218   9.814   3.641 -0.40 +0.00    +0.184 C 
ATOM     39  C39 UNL     1      16.253   8.593   3.703 -0.58 +0.00    +0.010 C 
ATOM     40  C40 UNL     1      15.952   8.177   5.147 +4.93 +0.00    +0.012 C 
ATOM     41  C41 UNL     1      14.943   8.739   2.933 -0.25 +0.00    +0.012 C 
ATOM     42  C42 UNL     1      17.534  11.256   5.665+53.41 +0.00    +0.156 C 
ATOM     43  C43 UNL     1      15.798  11.868   4.064+99.99 +0.00    +0.363 C 
ATOM     44  C44 UNL     1      14.376  12.555   2.295+99.99 +0.00    +0.219 C 
ATOM     45  C45 UNL     1      13.014  11.916   2.253+42.21 -0.00    -0.034 A 
ATOM     46  C46 UNL     1      12.158  12.003   3.355+99.99 +0.00    +0.011 A 
ATOM     47  C47 UNL     1      10.907  11.380   3.329+82.89 +0.00    +0.030 A 
ATOM     48  C48 UNL     1      10.493  10.650   2.207+99.99 +0.00    +0.034 A 
ATOM     49  C49 UNL     1      11.351  10.555   1.112+99.99 +0.00    +0.030 A 
ATOM     50  C50 UNL     1      12.603  11.180   1.134+99.99 +0.00    +0.011 A 
ATOM     51  C51 UNL     1       8.602   9.253   1.333+99.99 +0.00    +0.245 C 
ATOM     52  C52 UNL     1       7.176   8.792   1.728 +5.59 +0.00    +0.177 C 
ATOM     53  C53 UNL     1       6.169   9.950   1.648+99.99 +0.00    +0.036 C 
ATOM     54  C54 UNL     1       4.721   9.444   1.577+99.99 +0.00    +0.022 C 
ATOM     55  C55 UNL     1       3.706  10.525   1.931+99.99 +0.00    +0.124 C 
ATOM     56  C56 UNL     1       3.097  11.956   3.808 +5.07 +0.00    +0.313 C 
ATOM     57  C57 UNL     1       7.201   8.643   4.246+99.99 +0.00    +0.241 C 
ATOM     58  C58 UNL     1       6.847   7.709   5.426+99.99 +0.00    +0.180 C 
ATOM     59  C59 UNL     1       8.049   6.817   5.821+99.99 +0.00    +0.009 C 
ATOM     60  C60 UNL     1       9.339   7.625   6.017+99.99 +0.00    +0.012 C 
ATOM     61  C61 UNL     1       7.757   6.051   7.118 +1.46 +0.00    +0.012 C 
ATOM     62  C62 UNL     1       4.428   7.436   4.977+32.94 +0.00    +0.218 C 
ATOM     63  C63 UNL     1       3.314   6.438   4.743 -0.17 +0.00    +0.112 C 
ATOM     64  C64 UNL     1       2.944   5.702   6.027 -0.18 +0.00    +0.112 C 
ATOM     65  C65 UNL     1       3.903   4.564   6.342 -0.25 +0.00    +0.220 C 
ATOM     66  C66 UNL     1       2.374   3.844   8.198 -0.31 +0.00    +0.126 C 
ATOM     67  C67 UNL     1       2.510   3.504   9.681+59.33 +0.00    +0.035 C 
ATOM     68  C68 UNL     1       3.323   2.229   9.925+99.99 +0.00    +0.087 C 
ATOM     69  C69 UNL     1       4.665   2.325   9.199+99.99 +0.00    +0.035 C 
ATOM     70  C70 UNL     1       4.492   2.642   7.719+99.99 +0.00    +0.126 C 
ATOM     71  C71 UNL     1       2.549   0.992   9.518 +5.79 +0.00    +0.143 C 
ATOM     72  O1  UNL     1      24.679   9.398  -3.478+99.99 -0.00    -0.273 OA
ATOM     73  O2  UNL     1      28.619  13.088   0.071+12.63 -0.00    -0.273 OA
ATOM     74  O3  UNL     1      32.258  10.300  -2.418 -0.25 -0.00    -0.270 OA
ATOM     75  O4  UNL     1      31.187   7.936  -4.153 -0.14 -0.00    -0.205 OA
ATOM     76  O5  UNL     1      31.844   7.016  -1.880 -0.04 -0.00    -0.205 OA
ATOM     77  O6  UNL     1      27.161  10.671  -2.885+99.99 -0.00    -0.388 OA
ATOM     78  O7  UNL     1      24.322   7.953  -0.670 -0.22 -0.00    -0.388 OA
ATOM     79  O8  UNL     1      20.195   7.715  -0.463+99.99 -0.00    -0.271 OA
ATOM     80  O9  UNL     1      18.050  11.408   1.974 -0.33 -0.00    -0.271 OA
ATOM     81  O10 UNL     1      15.415  12.799   4.764+99.99 -0.00    -0.238 OA
ATOM     82  O11 UNL     1      15.315  11.612   2.824 +0.60 -0.00    -0.299 OA
ATOM     83  O12 UNL     1       9.052   8.958   0.226+48.76 -0.00    -0.271 OA
ATOM     84  O13 UNL     1       2.500  12.782   3.133 +1.15 -0.00    -0.248 OA
ATOM     85  O14 UNL     1       7.673   9.766   4.414+99.99 -0.00    -0.271 OA
ATOM     86  O15 UNL     1       4.211   8.640   5.086+53.22 -0.00    -0.274 OA
ATOM     87  O16 UNL     1       4.875   4.348   5.614 -0.18 -0.00    -0.273 OA
ATOM     88  O17 UNL     1       1.414   0.951   9.074+99.99+99.99    -0.650 OA
ATOM     89  O18 UNL     1       3.237  -0.145   9.730+10.28 -0.00    -0.776 OA
ATOM     90  N1  UNL     1      24.012  11.201  -2.243+11.76 -0.00    -0.345 N 
ATOM     91  N2  UNL     1      29.064  11.107  -1.002+99.99 -0.00    -0.347 N 
ATOM     92  N3  UNL     1      30.358   9.032  -2.028 -0.09 -0.00    -0.252 N 
ATOM     93  N4  UNL     1      21.059   9.662   0.364 -0.11 -0.00    -0.347 N 
ATOM     94  N5  UNL     1      17.949   9.222   1.333 -0.14 -0.00    -0.346 N 
ATOM     95  N6  UNL     1      16.796  10.983   4.444 +1.17 -0.00    -0.319 N 
ATOM     96  N7  UNL     1       9.222  10.051   2.270+99.99 -0.00    -0.325 N 
ATOM     97  N8  UNL     1       3.763  10.868   3.335 +0.06 -0.00    -0.343 N 
ATOM     98  N9  UNL     1       3.167  12.047   5.159 +1.24 -0.00    -0.352 N 
ATOM     99  N10 UNL     1       7.102   8.058   2.999 +1.33 -0.00    -0.346 N 
ATOM    100  N11 UNL     1       5.691   6.890   5.027+20.32 -0.00    -0.347 N 
ATOM    101  N12 UNL     1       3.662   3.826   7.500 -0.23 -0.00    -0.352 N 
ATOM    102  S1  UNL     1      30.892   7.644  -2.770 -0.18 +0.00    +0.237 S 
ATOM    103  HA1 UNL     1       2.619  -0.860   9.465 +1.87 +0.00    +0.167 HD
ATOM    104  HA2 UNL     1      28.656  10.626  -1.809+99.99 +0.00    +0.163 HD
ATOM    105  HA3 UNL     1      29.596   8.909  -1.368 +0.09 +0.00    +0.181 HD
ATOM    106  HA4 UNL     1      17.859   8.269   1.657 +0.11 +0.00    +0.163 HD
ATOM    107  HA5 UNL     1       8.703  10.198   3.139 +2.63 +0.00    +0.169 HD
ATOM    108  HA6 UNL     1       3.835  10.104   4.007 -0.01 +0.00    +0.164 HD
ATOM    109  HA7 UNL     1       2.832  12.930   5.521 +0.10 +0.00    +0.160 HD
ATOM    110  HA8 UNL     1       4.019  11.699   5.578 +0.08 +0.00    +0.160 HD
ATOM    111  HA9 UNL     1       6.571   7.194   2.988 +0.08 +0.00    +0.163 HD
ATOM    112  HB0 UNL     1       5.748   5.875   5.143 +0.07 +0.00    +0.163 HD
ENDROOT
TORSDOF 41
TER
