USER    Run = 1
USER    DPF = ligand_261_receptor.dpf
USER  
USER    Estimated Free Energy of Binding    =   +3.47 kcal/mol  [=(1)+(2)+(3)-(4)]
USER    
USER    (1) Final Intermolecular Energy     =   +2.27 kcal/mol
USER        vdW + Hbond + desolv Energy     =   +2.27 kcal/mol
USER        Electrostatic Energy            =   +0.00 kcal/mol
USER    (2) Final Total Internal Energy     =   -0.34 kcal/mol
USER    (3) Torsional Free Energy           =   +1.19 kcal/mol
USER    (4) Unbound System's Energy  [=(2)] =   -0.34 kcal/mol
USER    
USER    
USER    NEWDPF move ligand_261.pdbqt
USER    NEWDPF about 0.000000 0.000000 0.000000
USER    NEWDPF tran0 14.429598 8.625208 5.868996
USER    NEWDPF quaternion0 0.604435 0.210603 -0.198740 -0.742164
USER    NEWDPF axisangle0 0.901848 0.314230 -0.296530 -84.167900
USER    NEWDPF quat0 0.901848 0.314230 -0.296530 -84.167900
USER    NEWDPF dihe0 -142.60 107.36 -73.38 -122.55 179.83 -82.96 154.50 167.06 180.00 84.46 27.86 -35.91 135.94 
USER  keepresnum = 1 
USER  
REMARK  13 active torsions:
REMARK  status: ('A' for Active; 'I' for Inactive)
REMARK    1  A    between atoms: C2_2  and  C3_3 
REMARK    2  A    between atoms: C2_2  and  O4_50 
REMARK    3  A    between atoms: C3_3  and  C4_4 
REMARK    4  A    between atoms: C3_3  and  C8_8 
REMARK    5  A    between atoms: C4_4  and  C5_5 
REMARK    6  A    between atoms: C5_5  and  N1_34 
REMARK       I    between atoms: C8_8  and  N2_35 
REMARK    7  A    between atoms: C13_13  and  C14_14 
REMARK       I    between atoms: C13_13  and  N3_36 
REMARK    8  A    between atoms: C17_17  and  N4_37 
REMARK    9  A    between atoms: C20_20  and  C21_21 
REMARK       I    between atoms: C20_20  and  N4_37 
REMARK   10  A    between atoms: C23_23  and  C25_25 
REMARK   11  A    between atoms: C27_27  and  C28_28 
REMARK   12  A    between atoms: C29_29  and  N7_41 
REMARK   13  A    between atoms: C31_31  and  N10_46 
USER                              x       y       z     vdW  Elec       q    Type
USER                           _______ _______ _______ _____ _____    ______ ____
ROOT
ATOM      1  C20 UNL     1      17.105   7.921   3.103 -0.41 +0.00    +0.290 C 
ATOM      2  N4  UNL     1      16.108   8.803   3.483 -0.26 -0.00    -0.320 N 
ATOM      3  O3  UNL     1      16.980   6.704   3.012 -0.48 -0.00    -0.264 OA
ATOM      4  H35 UNL     1      16.416   9.775   3.481 +0.13 +0.00    +0.169 HD
ENDROOT
BRANCH   1   5
ATOM      5  C21 UNL     1      18.349   8.628   2.807 -0.27 +0.00    +0.177 A 
ATOM      6  N5  UNL     1      18.350   9.794   2.178 -0.17 -0.00    -0.345 N 
ATOM      7  C22 UNL     1      19.670  10.116   1.997 -0.35 +0.00    +0.120 A 
ATOM      8  H5  UNL     1      17.538  10.339   1.888 +0.14 +0.00    +0.167 HD
ATOM      9  C23 UNL     1      20.502   9.144   2.512 +0.10 +0.00    +0.065 A 
ATOM     10  N6  UNL     1      19.640   8.240   3.105 +0.59 -0.00    -0.331 N 
ATOM     11  C24 UNL     1      19.998   7.128   3.953 +5.75 +0.00    +0.158 C 
BRANCH   9  12
ATOM     12  C25 UNL     1      22.065   9.101   2.417 -0.39 +0.00    +0.043 A 
ATOM     13  C26 UNL     1      22.777   8.538   1.386 -0.27 +0.00    +0.134 A 
ATOM     14  N7  UNL     1      24.115   8.714   1.658 -0.24 -0.00    -0.250 N 
ATOM     15  N8  UNL     1      24.300   9.381   2.822 -0.29 -0.00    -0.288 N 
ATOM     16  C27 UNL     1      23.059   9.629   3.294 -0.41 +0.00    +0.146 A 
ATOM     17  H8  UNL     1      25.188   9.641   3.253 +0.14 +0.00    +0.187 HD
BRANCH  14  18
ATOM     18  C29 UNL     1      25.201   8.274   0.842 -0.30 +0.00    +0.126 A 
ATOM     19  C33 UNL     1      24.953   7.380  -0.196 -0.39 +0.00    +0.052 A 
ATOM     20  C32 UNL     1      26.025   6.955  -0.984 -0.33 +0.00    +0.028 A 
ATOM     21  C31 UNL     1      27.319   7.389  -0.704 -0.30 +0.00    +0.021 A 
ATOM     22  C30 UNL     1      27.452   8.328   0.318 -0.24 +0.00    +0.113 A 
ATOM     23  N9  UNL     1      26.441   8.763   1.110 -0.17 -0.00    -0.349 N 
ATOM     24  H9  UNL     1      26.603   9.425   1.869 +0.11 +0.00    +0.167 HD
BRANCH  21  25
ATOM     25  N10 UNL     1      28.376   7.070  -1.560 -0.19 -0.00    -0.302 NA
ATOM     26  H36 UNL     1      28.414   7.636  -2.404 +0.03 +0.00    +0.124 HD
ATOM     27  H37 UNL     1      28.473   6.078  -1.760 +0.05 +0.00    +0.124 HD
ENDBRANCH  21  25
ENDBRANCH  14  18
BRANCH  16  28
ATOM     28  C28 UNL     1      22.858  10.363   4.592 -0.07 +0.00    +0.434 C 
ATOM     29  F1  UNL     1      24.037  10.596   5.229 +0.04 -0.00    -0.165 F 
ATOM     30  F2  UNL     1      22.071   9.694   5.477 +0.68 -0.00    -0.165 F 
ATOM     31  F3  UNL     1      22.272  11.577   4.403 +0.57 -0.00    -0.165 F 
ENDBRANCH  16  28
ENDBRANCH   9  12
ENDBRANCH   1   5
BRANCH   2  32
ATOM     32  C17 UNL     1      14.777   8.531   3.841 -0.44 +0.00    +0.036 A 
ATOM     33  C16 UNL     1      14.076   7.619   3.040 -0.04 +0.00    +0.054 A 
ATOM     34  C15 UNL     1      12.745   7.293   3.325 -0.39 +0.00    +0.051 A 
ATOM     35  C14 UNL     1      12.105   7.894   4.411 -0.36 +0.00    +0.054 A 
ATOM     36 CL1  UNL     1      11.954   6.147   2.303 -0.04 -0.00    -0.083 Cl
ATOM     37  C19 UNL     1      12.803   8.788   5.228 +1.10 +0.00    +0.021 A 
ATOM     38  C18 UNL     1      14.132   9.110   4.938 +1.19 +0.00    +0.030 A 
BRANCH  35  39
ATOM     39  C13 UNL     1      10.711   7.581   4.772 -0.27 +0.00    +0.255 C 
ATOM     40  N3  UNL     1       9.759   7.490   3.760 -0.18 -0.00    -0.345 N 
ATOM     41  C10 UNL     1       8.371   7.258   4.156 +1.38 +0.00    +0.146 C 
ATOM     42  C11 UNL     1       9.922   8.075   2.423 +0.46 +0.00    +0.146 C 
ATOM     43  C9  UNL     1       7.579   6.491   3.090 -0.21 +0.00    +0.145 C 
ATOM     44  N2  UNL     1       7.741   7.056   1.743 -0.15 -0.00    -0.349 N 
ATOM     45  C8  UNL     1       6.833   6.849   0.698 -0.28 +0.00    +0.226 C 
ATOM     46  C12 UNL     1       9.135   7.306   1.356 -0.26 +0.00    +0.145 C 
ATOM     47  O1  UNL     1       7.186   6.981  -0.476 -0.20 -0.00    -0.273 OA
ATOM     48  O2  UNL     1      10.458   7.429   5.964 -0.17 -0.00    -0.267 OA
BRANCH  45  49
ATOM     49  C3  UNL     1       5.387   6.480   1.060 +0.01 +0.00    +0.108 C 
BRANCH  49  50
ATOM     50  C2  UNL     1       5.130   5.007   0.659 -0.19 +0.00    +0.127 C 
ATOM     51  C1  UNL     1       6.423   4.195   0.624 -0.13 +0.00    +0.040 C 
BRANCH  50  52
ATOM     52  O4  UNL     1       4.520   4.927  -0.627 -0.17 -0.00    -0.395 OA
ATOM     53  H38 UNL     1       4.944   5.581  -1.207 -0.42 +0.00    +0.210 HD
ENDBRANCH  50  52
ENDBRANCH  49  50
BRANCH  49  54
ATOM     54  C4  UNL     1       5.080   6.747   2.554 -0.23 +0.00    +0.047 C 
BRANCH  54  55
ATOM     55  C5  UNL     1       4.306   5.584   3.200 -0.13 +0.00    +0.272 C 
BRANCH  55  56
ATOM     56  N1  UNL     1       5.177   4.629   3.909 -0.14 +0.00    +0.080 N 
ATOM     57  C6  UNL     1       5.273   4.991   5.325 -0.16 +0.00    +0.309 C 
ATOM     58  C7  UNL     1       4.709   3.248   3.781 -0.09 +0.00    +0.309 C 
ENDBRANCH  55  56
ENDBRANCH  54  55
ENDBRANCH  49  54
ENDBRANCH  45  49
ENDBRANCH  35  39
ENDBRANCH   2  32
TORSDOF 13
TER
