USER    Run = 1
USER    DPF = ligand_510_receptor.dpf
USER  
USER    Estimated Free Energy of Binding    =   -6.07 kcal/mol  [=(1)+(2)+(3)-(4)]
USER    Estimated Inhibition Constant, Ki   =   35.45 uM (micromolar)  [Temperature = 298.15 K]
USER    
USER    (1) Final Intermolecular Energy     =   -7.26 kcal/mol
USER        vdW + Hbond + desolv Energy     =   -7.26 kcal/mol
USER        Electrostatic Energy            =   +0.00 kcal/mol
USER    (2) Final Total Internal Energy     =   -0.44 kcal/mol
USER    (3) Torsional Free Energy           =   +1.19 kcal/mol
USER    (4) Unbound System's Energy  [=(2)] =   -0.44 kcal/mol
USER    
USER    
USER    NEWDPF move ligand_510.pdbqt
USER    NEWDPF about 0.000000 0.000000 0.000000
USER    NEWDPF tran0 19.420691 9.091591 3.297054
USER    NEWDPF quaternion0 0.027336 0.707887 0.699931 0.090801
USER    NEWDPF axisangle0 0.027449 0.710824 0.702834 169.580597
USER    NEWDPF quat0 0.027449 0.710824 0.702834 169.580597
USER    NEWDPF dihe0 -180.00 -141.88 -117.60 64.74 -121.88 21.24 179.97 -173.53 15.55 
USER  keepresnum = 1 
USER  
REMARK  9 active torsions:
REMARK  status: ('A' for Active; 'I' for Inactive)
REMARK    1  A    between atoms: C2_2  and  C25_25 
REMARK    2  A    between atoms: C4_4  and  C5_5 
REMARK       I    between atoms: C5_5  and  N3_37 
REMARK    3  A    between atoms: C6_6  and  N3_37 
REMARK    4  A    between atoms: C9_9  and  C12_12 
REMARK       I    between atoms: C12_12  and  N4_38 
REMARK    5  A    between atoms: C13_13  and  N4_38 
REMARK       I    between atoms: C18_18  and  N5_39 
REMARK       I    between atoms: C18_18  and  N6_40 
REMARK    6  A    between atoms: C19_19  and  N6_40 
REMARK    7  A    between atoms: C27_27  and  C28_28 
REMARK    8  A    between atoms: C29_29  and  N8_42 
REMARK    9  A    between atoms: C31_31  and  N11_47 
USER                              x       y       z     vdW  Elec       q    Type
USER                           _______ _______ _______ _____ _____    ______ ____
ROOT
ATOM      1  C5  UNL     1      15.008   9.412   3.234 +0.08 +0.00    +0.290 C 
ATOM      2  N3  UNL     1      16.085   8.662   3.672 -0.27 -0.00    -0.320 N 
ATOM      3  O1  UNL     1      15.082  10.439   2.566 -0.10 -0.00    -0.264 OA
ATOM      4  H32 UNL     1      15.806   7.853   4.226 +0.10 +0.00    +0.169 HD
ENDROOT
BRANCH   2   5
ATOM      5  C6  UNL     1      17.456   8.885   3.469 -0.51 +0.00    +0.036 A 
ATOM      6  C7  UNL     1      17.994  10.088   3.008 -0.41 +0.00    +0.054 A 
ATOM      7  C8  UNL     1      19.379  10.237   2.832 -0.18 +0.00    +0.051 A 
ATOM      8  C9  UNL     1      20.247   9.178   3.127 -0.20 +0.00    +0.053 A 
ATOM      9 CL1  UNL     1      19.916  11.758   2.202 -0.46 -0.00    -0.083 Cl
ATOM     10  C10 UNL     1      19.700   7.964   3.574 +0.67 +0.00    +0.021 A 
ATOM     11  C11 UNL     1      18.320   7.822   3.745 -0.39 +0.00    +0.030 A 
BRANCH   8  12
ATOM     12  C12 UNL     1      21.730   9.218   2.993 -0.29 +0.00    +0.253 C 
ATOM     13  N4  UNL     1      22.367   8.048   2.628 +0.16 -0.00    -0.351 N 
ATOM     14  H33 UNL     1      21.824   7.197   2.527 +0.87 +0.00    +0.163 HD
ATOM     15  O2  UNL     1      22.328  10.279   3.160 -0.25 -0.00    -0.268 OA
BRANCH  13  16
ATOM     16  C13 UNL     1      23.786   7.977   2.497 -0.01 +0.00    +0.097 A 
ATOM     17  C14 UNL     1      24.532   9.131   1.876 -0.45 +0.00    +0.035 A 
ATOM     18  C15 UNL     1      24.701   8.844   3.327 -0.56 +0.00    +0.035 A 
ATOM     19  C17 UNL     1      25.834   8.908   1.186 -0.31 +0.00    +0.134 C 
ATOM     20  C16 UNL     1      26.127   8.462   3.559 -0.33 +0.00    +0.134 C 
ATOM     21  N5  UNL     1      26.716   8.383   2.225 -0.27 -0.00    -0.333 N 
ATOM     22  C18 UNL     1      28.036   8.049   2.093 -0.26 +0.00    +0.318 C 
ATOM     23  N6  UNL     1      28.504   8.020   0.800 -0.17 -0.00    -0.337 N 
ATOM     24  O3  UNL     1      28.769   7.794   3.044 -0.34 -0.00    -0.247 OA
ATOM     25  H34 UNL     1      27.801   7.752   0.126 +0.09 +0.00    +0.164 HD
BRANCH  23  26
ATOM     26  C19 UNL     1      29.875   7.613   0.565 -0.26 +0.00    +0.113 C 
ATOM     27  C20 UNL     1      30.838   8.141   1.616 -0.30 +0.00    +0.055 C 
ATOM     28  C21 UNL     1      32.100   7.352   1.335 -0.14 +0.00    +0.238 C 
ATOM     29  N7  UNL     1      31.607   5.936   0.963 -0.15 -0.00    -0.073 N 
ATOM     30  C22 UNL     1      30.105   6.102   0.630 -0.14 +0.00    +0.261 C 
ATOM     31  C23 UNL     1      31.793   4.981   2.130 -0.15 +0.00    +0.272 C 
ATOM     32  C24 UNL     1      32.369   5.413  -0.244 -0.01 +0.00    +0.272 C 
ENDBRANCH  23  26
ENDBRANCH  13  16
ENDBRANCH   8  12
ENDBRANCH   2   5
BRANCH   1  33
ATOM     33  C4  UNL     1      13.743   8.831   3.677 +0.12 +0.00    +0.177 C 
ATOM     34  N1  UNL     1      13.564   7.790   4.568 -0.22 -0.00    -0.331 N 
ATOM     35  C1  UNL     1      14.591   7.321   5.468 -0.20 +0.00    +0.158 C 
ATOM     36  C2  UNL     1      12.222   7.487   4.595 -0.41 +0.00    +0.065 C 
ATOM     37  C3  UNL     1      11.635   8.486   3.842 -0.28 +0.00    +0.120 C 
ATOM     38  N2  UNL     1      12.575   9.292   3.258 +1.43 -0.00    -0.345 N 
ATOM     39  H2  UNL     1      12.410  10.082   2.632 +0.52 +0.00    +0.167 HD
BRANCH  36  40
ATOM     40  C25 UNL     1      11.433   6.331   5.290 -0.30 +0.00    +0.043 A 
ATOM     41  C26 UNL     1      10.081   6.162   5.101 -0.20 +0.00    +0.134 A 
ATOM     42  N8  UNL     1       9.682   5.094   5.867 -0.15 -0.00    -0.250 N 
ATOM     43  N9  UNL     1      10.731   4.537   6.520 -0.19 -0.00    -0.288 N 
ATOM     44  C27 UNL     1      11.814   5.250   6.138 -0.29 +0.00    +0.146 A 
ATOM     45  H9  UNL     1      10.707   3.746   7.163 +0.13 +0.00    +0.187 HD
BRANCH  42  46
ATOM     46  C29 UNL     1       8.349   4.600   5.989 -0.28 +0.00    +0.126 A 
ATOM     47  C33 UNL     1       7.712   4.655   7.226 -0.45 +0.00    +0.052 A 
ATOM     48  C32 UNL     1       6.407   4.169   7.331 -0.28 +0.00    +0.028 A 
ATOM     49  C31 UNL     1       5.746   3.680   6.208 -0.25 +0.00    +0.021 A 
ATOM     50  C30 UNL     1       6.490   3.614   5.030 -0.07 +0.00    +0.113 A 
ATOM     51  N10 UNL     1       7.755   4.078   4.881 -0.11 -0.00    -0.349 N 
ATOM     52  H10 UNL     1       8.238   4.038   3.984 +0.09 +0.00    +0.167 HD
BRANCH  49  53
ATOM     53  N11 UNL     1       4.491   3.077   6.327 -0.74 -0.00    -0.302 NA
ATOM     54  H35 UNL     1       4.261   2.760   7.264 +0.05 +0.00    +0.124 HD
ATOM     55  H36 UNL     1       4.301   2.367   5.626 -0.04 +0.00    +0.124 HD
ENDBRANCH  49  53
ENDBRANCH  42  46
BRANCH  44  56
ATOM     56  C28 UNL     1      13.190   4.805   6.546 -0.25 +0.00    +0.434 C 
ATOM     57  F1  UNL     1      13.162   3.645   7.258 -0.20 -0.00    -0.165 F 
ATOM     58  F2  UNL     1      13.996   4.581   5.474 +0.49 -0.00    -0.165 F 
ATOM     59  F3  UNL     1      13.835   5.709   7.333 -0.20 -0.00    -0.165 F 
ENDBRANCH  44  56
ENDBRANCH  36  40
ENDBRANCH   1  33
TORSDOF 9
TER
