USER    Run = 1
USER    DPF = ligand_497_receptor.dpf
USER  
USER    Estimated Free Energy of Binding    =  +31.11 kcal/mol  [=(1)+(2)+(3)-(4)]
USER    
USER    (1) Final Intermolecular Energy     =  +29.92 kcal/mol
USER        vdW + Hbond + desolv Energy     =  +29.92 kcal/mol
USER        Electrostatic Energy            =   +0.00 kcal/mol
USER    (2) Final Total Internal Energy     =  +27.73 kcal/mol
USER    (3) Torsional Free Energy           =   +1.19 kcal/mol
USER    (4) Unbound System's Energy  [=(2)] =  +27.73 kcal/mol
USER    
USER    
USER    NEWDPF move ligand_497.pdbqt
USER    NEWDPF about 0.000000 0.000000 0.000000
USER    NEWDPF tran0 14.414588 8.276947 2.920438
USER    NEWDPF quaternion0 -0.215656 0.882632 -0.062806 0.412927
USER    NEWDPF axisangle0 -0.236786 0.969112 -0.068960 131.222302
USER    NEWDPF quat0 -0.236786 0.969112 -0.068960 131.222302
USER    NEWDPF dihe0 41.30 -176.95 125.34 100.15 -179.84 -152.45 180.00 140.30 180.00 -168.36 -170.15 94.95 -116.75 -179.73 -36.07 -179.87 180.00 -180.00 180.00 112.04 -140.16 180.00 143.00 -8.72 
USER  keepresnum = 1 
USER  
REMARK  24 active torsions:
REMARK  status: ('A' for Active; 'I' for Inactive)
REMARK    1  A    between atoms: C2_2  and  N1_50 
REMARK    2  A    between atoms: C3_3  and  C4_4 
REMARK       I    between atoms: C3_3  and  N1_50 
REMARK    3  A    between atoms: C5_5  and  O9_86 
REMARK    4  A    between atoms: C6_6  and  O8_85 
REMARK    5  A    between atoms: C7_7  and  N2_51 
REMARK    6  A    between atoms: C11_11  and  N18_74 
REMARK    7  A    between atoms: C12_12  and  N6_58 
REMARK    8  A    between atoms: C13_13  and  N6_58 
REMARK    9  A    between atoms: C16_16  and  N7_59 
REMARK       I    between atoms: C19_19  and  N7_59 
REMARK       I    between atoms: C19_19  and  N8_60 
REMARK   10  A    between atoms: C20_20  and  N8_60 
REMARK   11  A    between atoms: C23_23  and  N9_61 
REMARK   12  A    between atoms: C26_26  and  N9_61 
REMARK   13  A    between atoms: C27_27  and  N15_70 
REMARK   14  A    between atoms: C31_31  and  N13_68 
REMARK   15  A    between atoms: C32_32  and  O7_84 
REMARK   16  A    between atoms: C33_33  and  O6_83 
REMARK   17  A    between atoms: C34_34  and  C35_35 
REMARK       I    between atoms: C35_35  and  N14_69 
REMARK   18  A    between atoms: C36_36  and  N14_69 
REMARK   19  A    between atoms: C38_38  and  C39_39 
REMARK   20  A    between atoms: C38_38  and  N15_70 
REMARK   21  A    between atoms: C39_39  and  C40_40 
REMARK   22  A    between atoms: C44_44  and  C45_45 
REMARK   23  A    between atoms: C44_44  and  N18_74 
REMARK   24  A    between atoms: C45_45  and  C46_46 
USER                              x       y       z     vdW  Elec       q    Type
USER                           _______ _______ _______ _____ _____    ______ ____
ROOT
ATOM      1  C19 UNL     1      14.866   8.508   2.757 +0.15 +0.00    +0.316 C 
ATOM      2  N7  UNL     1      13.857   9.145   3.437 +0.46 -0.00    -0.339 N 
ATOM      3  N8  UNL     1      15.987   9.300   2.703 -0.20 -0.00    -0.339 N 
ATOM      4  O3  UNL     1      14.777   7.392   2.267 +5.76 -0.00    -0.247 OA
ATOM      5  H61 UNL     1      14.180   9.784   4.149 +0.26 +0.00    +0.164 HD
ATOM      6  H62 UNL     1      15.786  10.288   2.726 +0.10 +0.00    +0.164 HD
ENDROOT
BRANCH   2   7
ATOM      7  C16 UNL     1      12.585   8.474   3.687 -0.27 +0.00    +0.086 C 
ATOM      8  C15 UNL     1      11.419   9.473   3.582 +3.80 +0.00    +0.027 C 
ATOM      9  C14 UNL     1      10.121   8.786   3.174 +1.08 +0.00    +0.027 C 
ATOM     10  C13 UNL     1      10.232   8.142   1.779 +4.28 +0.00    +0.083 C 
ATOM     11  C18 UNL     1      11.664   7.656   1.470 +3.33 +0.00    +0.027 C 
ATOM     12  C17 UNL     1      12.424   7.275   2.738 -0.40 +0.00    +0.027 C 
BRANCH  10  13
ATOM     13  N6  UNL     1       9.327   7.004   1.676 -0.10 -0.00    -0.370 N 
ATOM     14  H60 UNL     1       9.019   6.739   0.742 +0.09 +0.00    +0.161 HD
BRANCH  13  15
ATOM     15  C12 UNL     1       9.615   5.869   2.436 -0.16 +0.00    +0.135 A 
ATOM     16  C9  UNL     1      10.344   5.961   3.635 -0.20 +0.00    +0.122 A 
ATOM     17  C10 UNL     1      10.577   4.779   4.313 -0.20 +0.00    +0.144 A 
ATOM     18  N3  UNL     1      10.880   7.033   4.316 -0.13 -0.00    -0.346 N 
ATOM     19  N2  UNL     1      11.285   5.137   5.426 -0.15 -0.00    -0.297 N 
ATOM     20  N4  UNL     1      10.177   3.556   3.948 -0.16 -0.00    -0.317 N 
ATOM     21  C8  UNL     1      11.461   6.499   5.370 -0.21 +0.00    +0.188 A 
ATOM     22  C11 UNL     1       9.487   3.553   2.797 +0.34 +0.00    +0.160 A 
ATOM     23  H4  UNL     1      10.375   2.714   4.487 -0.17 +0.00    +0.170 HD
ATOM     24  N5  UNL     1       9.192   4.636   2.049 -0.03 -0.00    -0.317 N 
ATOM     25  H5  UNL     1       8.650   4.530   1.191 +0.07 +0.00    +0.170 HD
ATOM     26  H3  UNL     1      10.837   8.019   4.060 +0.10 +0.00    +0.167 HD
BRANCH  19  27
ATOM     27  C7  UNL     1      11.755   4.303   6.514 -0.33 +0.00    +0.263 C 
ATOM     28  C6  UNL     1      12.657   4.933   7.579 -0.44 +0.00    +0.199 C 
ATOM     29  C5  UNL     1      11.645   5.452   8.583 -0.23 +0.00    +0.189 C 
ATOM     30  C4  UNL     1      10.576   4.361   8.538 +0.01 +0.00    +0.247 C 
ATOM     31  O2  UNL     1      10.595   3.802   7.214 -0.26 -0.00    -0.346 OA
BRANCH  28  32
ATOM     32  O8  UNL     1      13.463   3.913   8.209 -0.29 -0.00    -0.388 OA
ATOM     33  H69 UNL     1      13.055   3.748   9.083 +0.18 +0.00    +0.210 HD
ENDBRANCH  28  32
BRANCH  29  34
ATOM     34  O9  UNL     1      12.241   5.597   9.877 -0.07 -0.00    -0.390 OA
ATOM     35  H70 UNL     1      12.000   4.794  10.380 +0.21 +0.00    +0.210 HD
ENDBRANCH  29  34
BRANCH  30  36
ATOM     36  C3  UNL     1       9.204   4.940   8.915 +0.44 +0.00    +0.249 C 
ATOM     37  N1  UNL     1       8.252   4.810   7.921 -0.25 -0.00    -0.359 N 
ATOM     38  H59 UNL     1       8.518   4.383   7.039 +0.11 +0.00    +0.162 HD
ATOM     39  O1  UNL     1       8.975   5.486   9.991 +3.88 -0.00    -0.271 OA
BRANCH  37  40
ATOM     40  C2  UNL     1       6.911   5.334   8.067 +0.72 +0.00    +0.118 C 
ATOM     41  C1  UNL     1       5.902   4.514   7.285 -0.37 +0.00    +0.026 C 
ENDBRANCH  37  40
ENDBRANCH  30  36
ENDBRANCH  19  27
BRANCH  22  42
ATOM     42  N18 UNL     1       9.051   2.299   2.392 -0.00 -0.00    -0.264 NA
ATOM     43  H66 UNL     1       9.599   1.619   2.925 +0.21 +0.00    +0.130 HD
BRANCH  42  44
ATOM     44  C44 UNL     1       7.618   2.081   2.552 -0.21 +0.00    +0.101 C 
BRANCH  44  45
ATOM     45  C45 UNL     1       6.853   2.742   1.398 -0.15 +0.00    +0.073 C 
BRANCH  45  46
ATOM     46  C46 UNL     1       6.240   4.047   1.792 -0.10 +0.00    +0.026 A 
ATOM     47  C47 UNL     1       5.311   4.306   2.778 -0.09 +0.00    +0.116 A 
ATOM     48  N19 UNL     1       5.084   5.650   2.710 -0.08 -0.00    -0.355 N 
ATOM     49  C48 UNL     1       5.863   6.157   1.712 -0.18 +0.00    +0.182 A 
ATOM     50  C49 UNL     1       4.183   6.413   3.536 -0.16 +0.00    +0.156 C 
ATOM     51  N20 UNL     1       6.577   5.216   1.135 -0.04 -0.00    -0.354 N 
ATOM     52  H20 UNL     1       7.238   5.325   0.366 +0.06 +0.00    +0.166 HD
ENDBRANCH  45  46
ENDBRANCH  44  45
ENDBRANCH  42  44
ENDBRANCH  22  42
ENDBRANCH  13  15
ENDBRANCH  10  13
ENDBRANCH   2   7
BRANCH   3  53
ATOM     53  C20 UNL     1      17.165   8.875   1.951 -0.50 +0.00    +0.086 C 
ATOM     54  C21 UNL     1      16.902   8.870   0.440 -0.58 +0.00    +0.027 C 
ATOM     55  C22 UNL     1      16.790  10.279  -0.143 +0.23 +0.00    +0.022 C 
ATOM     56  C23 UNL     1      17.996  11.168   0.194 -0.36 +0.00    +0.062 C 
ATOM     57  C24 UNL     1      18.274  11.162   1.706 -0.59 +0.00    +0.022 C 
ATOM     58  C25 UNL     1      18.369   9.755   2.302 -0.50 +0.00    +0.027 C 
BRANCH  56  59
ATOM     59  N9  UNL     1      19.204  10.734  -0.504 +0.50 -0.00    -0.272 NA
ATOM     60  H63 UNL     1      19.611  11.394  -1.160 +0.18 +0.00    +0.129 HD
BRANCH  59  61
ATOM     61  C26 UNL     1      20.257  10.170   0.214 -0.24 +0.00    +0.114 A 
ATOM     62  C29 UNL     1      21.078   9.095  -0.177 +2.08 +0.00    +0.117 A 
ATOM     63  C28 UNL     1      22.071   8.730   0.716 +0.54 +0.00    +0.143 A 
ATOM     64  N12 UNL     1      21.125   8.283  -1.295 +1.85 -0.00    -0.346 N 
ATOM     65  N11 UNL     1      22.335   9.290   1.901 -0.21 -0.00    -0.317 N 
ATOM     66  N13 UNL     1      22.725   7.683   0.130 -0.12 -0.00    -0.297 N 
ATOM     67  C27 UNL     1      21.501  10.290   2.207 -0.07 +0.00    +0.160 A 
ATOM     68  H11 UNL     1      23.095   8.985   2.509 +0.13 +0.00    +0.170 HD
ATOM     69  N10 UNL     1      20.504  10.742   1.422 -0.24 -0.00    -0.321 N 
ATOM     70  H10 UNL     1      19.928  11.523   1.737 +0.14 +0.00    +0.169 HD
ATOM     71  C30 UNL     1      22.120   7.449  -1.077 +0.56 +0.00    +0.188 A 
ATOM     72  H12 UNL     1      20.517   8.322  -2.113 +0.76 +0.00    +0.167 HD
BRANCH  67  73
ATOM     73  N15 UNL     1      21.725  10.874   3.442 +0.59 -0.00    -0.264 NA
ATOM     74  H65 UNL     1      20.914  11.437   3.686 +0.92 +0.00    +0.130 HD
BRANCH  73  75
ATOM     75  C38 UNL     1      22.224  10.003   4.502 +0.87 +0.00    +0.101 C 
BRANCH  75  76
ATOM     76  C39 UNL     1      23.669  10.328   4.894 -0.37 +0.00    +0.073 C 
BRANCH  76  77
ATOM     77  C40 UNL     1      24.649   9.666   3.991 +0.26 +0.00    +0.026 A 
ATOM     78  C41 UNL     1      25.189  10.128   2.809 -0.47 +0.00    +0.116 A 
ATOM     79  N16 UNL     1      26.028   9.135   2.390 -0.28 -0.00    -0.355 N 
ATOM     80  C42 UNL     1      25.972   8.127   3.308 -0.42 +0.00    +0.182 A 
ATOM     81  C43 UNL     1      26.833   9.136   1.197 -0.04 +0.00    +0.156 C 
ATOM     82  N17 UNL     1      25.148   8.418   4.289 -0.22 -0.00    -0.354 N 
ATOM     83  H17 UNL     1      24.925   7.842   5.100 +0.12 +0.00    +0.166 HD
ENDBRANCH  76  77
ENDBRANCH  75  76
ENDBRANCH  73  75
ENDBRANCH  67  73
BRANCH  66  84
ATOM     84  C31 UNL     1      23.870   6.951   0.640 -0.32 +0.00    +0.263 C 
ATOM     85  C32 UNL     1      23.534   5.557   1.164 -0.17 +0.00    +0.199 C 
ATOM     86  C33 UNL     1      23.887   4.651   0.001 -0.19 +0.00    +0.189 C 
ATOM     87  C34 UNL     1      25.030   5.408  -0.672 -0.38 +0.00    +0.247 C 
ATOM     88  O4  UNL     1      24.859   6.812  -0.403 -0.21 -0.00    -0.346 OA
BRANCH  85  89
ATOM     89  O7  UNL     1      24.373   5.237   2.290 +3.92 -0.00    -0.388 OA
ATOM     90  H68 UNL     1      25.284   5.455   1.993 +0.15 +0.00    +0.210 HD
ENDBRANCH  85  89
BRANCH  86  91
ATOM     91  O6  UNL     1      24.270   3.358   0.479 +0.28 -0.00    -0.390 OA
ATOM     92  H67 UNL     1      24.269   3.420   1.456 +0.39 +0.00    +0.210 HD
ENDBRANCH  86  91
BRANCH  87  93
ATOM     93  C35 UNL     1      25.045   5.114  -2.177 -0.20 +0.00    +0.249 C 
ATOM     94  N14 UNL     1      25.325   3.796  -2.472 +0.05 -0.00    -0.359 N 
ATOM     95  H64 UNL     1      25.795   3.283  -1.732 +0.08 +0.00    +0.162 HD
ATOM     96  O5  UNL     1      24.776   5.967  -3.021 -0.02 -0.00    -0.271 OA
BRANCH  94  97
ATOM     97  C36 UNL     1      25.499   3.339  -3.834 +2.22 +0.00    +0.118 C 
ATOM     98  C37 UNL     1      26.821   2.618  -4.024 -0.23 +0.00    +0.026 C 
ENDBRANCH  94  97
ENDBRANCH  87  93
ENDBRANCH  66  84
ENDBRANCH  59  61
ENDBRANCH  56  59
ENDBRANCH   3  53
TORSDOF 24
TER
