USER    Run = 1
USER    DPF = ligand_340_receptor.dpf
USER  
USER    Estimated Free Energy of Binding    = +601.50 kcal/mol  [=(1)+(2)+(3)-(4)]
USER    
USER    (1) Final Intermolecular Energy     = +600.31 kcal/mol
USER        vdW + Hbond + desolv Energy     = +600.31 kcal/mol
USER        Electrostatic Energy            =   +0.00 kcal/mol
USER    (2) Final Total Internal Energy     =   +0.00 kcal/mol
USER    (3) Torsional Free Energy           =   +1.19 kcal/mol
USER    (4) Unbound System's Energy  [=(2)] =   +0.00 kcal/mol
USER    
USER    
USER    NEWDPF move ligand_340.pdbqt
USER    NEWDPF about 0.000000 0.000000 0.000000
USER    NEWDPF tran0 15.536368 6.599746 1.779332
USER    NEWDPF quaternion0 -0.150572 -0.038333 0.087520 -0.983971
USER    NEWDPF axisangle0 -0.844352 -0.214957 0.490779 -20.544885
USER    NEWDPF quat0 -0.844352 -0.214957 0.490779 -20.544885
USER  keepresnum = 1 
USER  
REMARK  0 active torsions:
REMARK  status: ('A' for Active; 'I' for Inactive)
REMARK       I    between atoms: C2_2  and  C3_3 
REMARK       I    between atoms: C2_2  and  N14_76 
REMARK       I    between atoms: C3_3  and  N1_62 
REMARK       I    between atoms: C4_4  and  C5_5 
REMARK       I    between atoms: C4_4  and  C9_9 
REMARK       I    between atoms: C4_4  and  N1_62 
REMARK       I    between atoms: C5_5  and  C6_6 
REMARK       I    between atoms: C6_6  and  C7_7 
REMARK       I    between atoms: C7_7  and  N2_63 
REMARK       I    between atoms: C8_8  and  N3_65 
REMARK       I    between atoms: C8_8  and  N4_66 
REMARK       I    between atoms: C9_9  and  N5_67 
REMARK       I    between atoms: C13_13  and  C14_14 
REMARK       I    between atoms: C14_14  and  N6_68 
REMARK       I    between atoms: C15_15  and  C16_16 
REMARK       I    between atoms: C15_15  and  C20_20 
REMARK       I    between atoms: C15_15  and  N6_68 
REMARK       I    between atoms: C16_16  and  C17_17 
REMARK       I    between atoms: C20_20  and  N7_69 
REMARK       I    between atoms: C21_21  and  C23_23 
REMARK       I    between atoms: C21_21  and  N7_69 
REMARK       I    between atoms: C23_23  and  N8_70 
REMARK       I    between atoms: C24_24  and  C25_25 
REMARK       I    between atoms: C24_24  and  C29_29 
REMARK       I    between atoms: C24_24  and  N8_70 
REMARK       I    between atoms: C25_25  and  C26_26 
REMARK       I    between atoms: C29_29  and  N9_71 
REMARK       I    between atoms: C30_30  and  C31_31 
REMARK       I    between atoms: C30_30  and  C45_45 
REMARK       I    between atoms: C30_30  and  N9_71 
REMARK       I    between atoms: C31_31  and  C32_32 
REMARK       I    between atoms: C32_32  and  C33_33 
REMARK       I    between atoms: C33_33  and  C34_34 
REMARK       I    between atoms: C34_34  and  N10_72 
REMARK       I    between atoms: C35_35  and  C36_36 
REMARK       I    between atoms: C35_35  and  N10_72 
REMARK       I    between atoms: C36_36  and  C37_37 
REMARK       I    between atoms: C37_37  and  C38_38 
REMARK       I    between atoms: C38_38  and  C39_39 
REMARK       I    between atoms: C39_39  and  C40_40 
REMARK       I    between atoms: C45_45  and  N13_75 
REMARK       I    between atoms: C46_46  and  C47_47 
REMARK       I    between atoms: C46_46  and  N14_76 
REMARK       I    between atoms: C47_47  and  C48_48 
REMARK       I    between atoms: C47_47  and  N15_77 
REMARK       I    between atoms: C48_48  and  C49_49 
USER                              x       y       z     vdW  Elec       q    Type
USER                           _______ _______ _______ _____ _____    ______ ____
ROOT
ATOM      1  C1  UNL     1       8.256   2.038   2.288 +0.01 +0.00    +0.042 C 
ATOM      2  C2  UNL     1       7.995   3.495   1.923 -0.14 +0.00    +0.172 C 
ATOM      3  C3  UNL     1       9.312   4.297   1.857 +0.26 +0.00    +0.240 C 
ATOM      4  C4  UNL     1      10.197   6.542   1.261 -0.24 +0.00    +0.176 C 
ATOM      5  C5  UNL     1      10.758   6.969  -0.104 -0.31 +0.00    +0.036 C 
ATOM      6  C6  UNL     1      11.906   6.092  -0.625 -0.47 +0.00    +0.022 C 
ATOM      7  C7  UNL     1      11.512   4.672  -1.029 +0.47 +0.00    +0.121 C 
ATOM      8  C8  UNL     1       9.584   3.857  -2.131 -0.17 +0.00    +0.121 C 
ATOM      9  C9  UNL     1       9.455   7.749   1.887 -0.00 +0.00    +0.243 C 
ATOM     10  C10 UNL     1       9.588   9.894   3.090+59.72 +0.00    +0.127 C 
ATOM     11  C11 UNL     1      10.679  10.580   3.900+45.96 +0.00    +0.022 C 
ATOM     12  C12 UNL     1      11.973  10.041   3.293+29.07 +0.00    +0.037 C 
ATOM     13  C13 UNL     1      11.610   8.598   2.941 +3.81 +0.00    +0.179 C 
ATOM     14  C14 UNL     1      11.848   7.690   4.170 -0.30 +0.00    +0.241 C 
ATOM     15  C15 UNL     1      13.626   6.507   5.449 -0.39 +0.00    +0.177 C 
ATOM     16  C16 UNL     1      13.509   4.979   5.325 +1.16 +0.00    +0.038 C 
ATOM     17  C17 UNL     1      12.092   4.404   5.520 -0.40 -0.00    -0.020 C 
ATOM     18  C18 UNL     1      11.563   4.622   6.939 -0.50 +0.00    +0.009 C 
ATOM     19  C19 UNL     1      12.097   2.905   5.205 +1.71 +0.00    +0.009 C 
ATOM     20  C20 UNL     1      15.098   6.946   5.590 +0.18 +0.00    +0.241 C 
ATOM     21  C21 UNL     1      17.048   7.368   4.188 +0.30 +0.00    +0.172 C 
ATOM     22  C22 UNL     1      18.111   6.567   3.452 +6.77 +0.00    +0.042 C 
ATOM     23  C23 UNL     1      16.483   8.482   3.274 -0.43 +0.00    +0.240 C 
ATOM     24  C24 UNL     1      16.935  10.721   2.302 -0.42 +0.00    +0.177 C 
ATOM     25  C25 UNL     1      15.883  11.604   2.997 +1.20 +0.00    +0.038 C 
ATOM     26  C26 UNL     1      16.311  12.314   4.301+33.23 -0.00    -0.020 C 
ATOM     27  C27 UNL     1      15.278  13.396   4.644+73.09 +0.00    +0.009 C 
ATOM     28  C28 UNL     1      16.444  11.363   5.491+54.43 +0.00    +0.009 C 
ATOM     29  C29 UNL     1      18.176  11.525   1.854 -0.43 +0.00    +0.241 C 
ATOM     30  C30 UNL     1      20.529  11.321   1.112 -0.30 +0.00    +0.176 C 
ATOM     31  C31 UNL     1      21.763  10.507   1.522 +0.99 +0.00    +0.035 C 
ATOM     32  C32 UNL     1      22.061  10.628   3.021 +1.16 +0.00    +0.004 C 
ATOM     33  C33 UNL     1      23.393   9.990   3.425 -0.58 +0.00    +0.020 C 
ATOM     34  C34 UNL     1      23.415   8.471   3.259 -0.16 +0.00    +0.122 C 
ATOM     35  C35 UNL     1      25.795   7.900   2.946 -0.45 +0.00    +0.217 C 
ATOM     36  C36 UNL     1      27.003   7.321   3.663 +4.07 +0.00    +0.103 C 
ATOM     37  C37 UNL     1      28.260   7.216   2.798 +4.51 +0.00    +0.009 C 
ATOM     38  C38 UNL     1      28.379   5.913   1.994+67.59 +0.00    +0.002 C 
ATOM     39  C39 UNL     1      27.318   5.764   0.897 +0.28 +0.00    +0.017 C 
ATOM     40  C40 UNL     1      27.488   4.502   0.036 -0.31 +0.00    +0.072 C 
ATOM     41  C41 UNL     1      26.339   4.364  -0.970 -0.38 +0.00    +0.123 C 
ATOM     42  C42 UNL     1      26.651   5.143  -2.267 +0.43 +0.00    +0.119 C 
ATOM     43  C43 UNL     1      28.136   5.508  -2.329 -0.09 +0.00    +0.101 C 
ATOM     44  C44 UNL     1      25.989   2.959  -2.804 -0.12 +0.00    +0.316 C 
ATOM     45  C45 UNL     1      20.346  11.298  -0.417 +0.40 +0.00    +0.238 C 
ATOM     46  C46 UNL     1       5.903   3.458   0.589 -0.05 +0.00    +0.251 C 
ATOM     47  C47 UNL     1       5.329   3.392  -0.841 -0.06 +0.00    +0.309 C 
ATOM     48  C48 UNL     1       5.489   1.991  -1.447 -0.10 +0.00    +0.049 C 
ATOM     49  C49 UNL     1       4.763   0.863  -0.683 -0.13 -0.00    -0.020 C 
ATOM     50  C50 UNL     1       5.071  -0.485  -1.339+12.45 +0.00    +0.009 C 
ATOM     51  C51 UNL     1       3.249   1.076  -0.630 -0.14 +0.00    +0.009 C 
ATOM     52  O1  UNL     1      10.331   3.974   2.462+15.68 -0.00    -0.271 OA
ATOM     53  O2  UNL     1       8.244   7.904   1.690 -0.22 -0.00    -0.271 OA
ATOM     54  O3  UNL     1      10.986   7.452   5.010 -0.24 -0.00    -0.271 OA
ATOM     55  O4  UNL     1      15.490   7.703   6.475+88.40 -0.00    -0.271 OA
ATOM     56  O5  UNL     1      15.369   8.402   2.751 -0.35 -0.00    -0.271 OA
ATOM     57  O6  UNL     1      18.143  12.713   1.541 -0.55 -0.00    -0.271 OA
ATOM     58  O7  UNL     1      25.816   8.322   1.796 -0.29 -0.00    -0.274 OA
ATOM     59  O8  UNL     1      25.652   1.988  -3.454 -0.11 -0.00    -0.247 OA
ATOM     60  O9  UNL     1      20.662  10.353  -1.131+29.05 -0.00    -0.271 OA
ATOM     61  O10 UNL     1       5.185   3.354   1.581 -0.05 -0.00    -0.271 OA
ATOM     62  N1  UNL     1       9.214   5.472   1.141 -0.04 -0.00    -0.346 N 
ATOM     63  N2  UNL     1      10.496   4.745  -2.072 -0.05 -0.00    -0.372 N 
ATOM     64  H2  UNL     1      10.515   5.505  -2.752 +0.08 +0.00    +0.161 HD
ATOM     65  N3  UNL     1       8.601   3.964  -3.051 -0.09 -0.00    -0.279 NA
ATOM     66  N4  UNL     1       9.384   2.750  -1.380 -0.07 -0.00    -0.279 NA
ATOM     67  N5  UNL     1      10.197   8.678   2.581 +4.35 -0.00    -0.337 N 
ATOM     68  N6  UNL     1      13.140   7.215   4.258 -0.21 -0.00    -0.346 N 
ATOM     69  N7  UNL     1      15.917   6.526   4.550+16.24 -0.00    -0.346 N 
ATOM     70  N8  UNL     1      17.335   9.543   3.071 -0.20 -0.00    -0.346 N 
ATOM     71  N9  UNL     1      19.313  10.752   1.696 -0.20 -0.00    -0.346 N 
ATOM     72  N10 UNL     1      24.660   7.902   3.731 +0.30 -0.00    -0.361 N 
ATOM     73  N11 UNL     1      26.262   4.211  -3.306 +8.23 -0.00    -0.336 N 
ATOM     74  N12 UNL     1      26.134   3.005  -1.435 +1.58 -0.00    -0.335 N 
ATOM     75  N13 UNL     1      19.677  12.376  -0.929 +1.97 -0.00    -0.368 N 
ATOM     76  N14 UNL     1       7.269   3.593   0.662 +0.01 -0.00    -0.346 N 
ATOM     77  N15 UNL     1       6.030   4.369  -1.722 +0.22 +0.00    +0.092 N 
ATOM     78  S1  UNL     1      28.971   4.582  -1.018 -0.20 -0.00    -0.160 SA
ATOM     79  H75 UNL     1       8.275   5.763   0.881 +0.08 +0.00    +0.163 HD
ATOM     80  H76 UNL     1       8.699   4.854  -3.531 +0.01 +0.00    +0.126 HD
ATOM     81  H77 UNL     1       7.676   3.946  -2.610 +0.01 +0.00    +0.126 HD
ATOM     82  H78 UNL     1      10.219   2.440  -0.896 +0.03 +0.00    +0.126 HD
ATOM     83  H79 UNL     1       9.015   1.995  -1.949 +0.05 +0.00    +0.126 HD
ATOM     84  H80 UNL     1      13.832   7.638   3.638 +0.07 +0.00    +0.163 HD
ATOM     85  H81 UNL     1      15.429   6.108   3.765 +3.52 +0.00    +0.163 HD
ATOM     86  H82 UNL     1      18.134   9.648   3.687 +0.12 +0.00    +0.163 HD
ATOM     87  H83 UNL     1      19.147   9.766   1.522 +0.12 +0.00    +0.163 HD
ATOM     88  H84 UNL     1      24.745   7.673   4.713 +0.11 +0.00    +0.162 HD
ATOM     89  H85 UNL     1      26.224   4.390  -4.300+18.75 +0.00    +0.164 HD
ATOM     90  H86 UNL     1      25.809   2.225  -0.879+18.12 +0.00    +0.164 HD
ATOM     91  H87 UNL     1      19.096  12.936  -0.306 +0.20 +0.00    +0.159 HD
ATOM     92  H88 UNL     1      19.399  12.323  -1.899 +0.25 +0.00    +0.159 HD
ATOM     93  H89 UNL     1       7.803   3.544  -0.206 +0.07 +0.00    +0.163 HD
ATOM     94  H90 UNL     1       5.980   5.281  -1.255 -0.46 +0.00    +0.313 HD
ATOM     95  H91 UNL     1       5.454   4.483  -2.561 -0.21 +0.00    +0.313 HD
ENDROOT
TORSDOF 35
TER
