USER    Run = 1
USER    DPF = ligand_351_receptor.dpf
USER  
USER    Estimated Free Energy of Binding    =  +6.85e+004 kcal/mol  [=(1)+(2)+(3)-(4)]
USER    
USER    (1) Final Intermolecular Energy     =  +6.85e+004 kcal/mol
USER        vdW + Hbond + desolv Energy     =  +6.85e+004 kcal/mol
USER        Electrostatic Energy            =   +0.00 kcal/mol
USER    (2) Final Total Internal Energy     =   +0.00 kcal/mol
USER    (3) Torsional Free Energy           =   +1.19 kcal/mol
USER    (4) Unbound System's Energy  [=(2)] =   +0.00 kcal/mol
USER    
USER    
USER    NEWDPF move ligand_351.pdbqt
USER    NEWDPF about 0.000000 0.000000 0.000000
USER    NEWDPF tran0 18.976298 6.580056 2.766097
USER    NEWDPF quaternion0 0.417948 0.053678 -0.760098 0.494662
USER    NEWDPF axisangle0 0.480905 0.061764 -0.874594 120.705135
USER    NEWDPF quat0 0.480905 0.061764 -0.874594 120.705135
USER  keepresnum = 1 
USER  
REMARK  0 active torsions:
REMARK  status: ('A' for Active; 'I' for Inactive)
REMARK       I    between atoms: C2_2  and  C3_3 
REMARK       I    between atoms: C2_2  and  O15_70 
REMARK       I    between atoms: C3_3  and  C4_4 
REMARK       I    between atoms: C3_3  and  N25_99 
REMARK       I    between atoms: C4_4  and  N1_71 
REMARK       I    between atoms: C8_8  and  C9_9 
REMARK       I    between atoms: C9_9  and  N2_72 
REMARK       I    between atoms: C10_10  and  C11_11 
REMARK       I    between atoms: C10_10  and  C15_15 
REMARK       I    between atoms: C10_10  and  N2_72 
REMARK       I    between atoms: C11_11  and  C12_12 
REMARK       I    between atoms: C12_12  and  C13_13 
REMARK       I    between atoms: C13_13  and  N3_73 
REMARK       I    between atoms: C14_14  and  N4_75 
REMARK       I    between atoms: C14_14  and  N5_76 
REMARK       I    between atoms: C15_15  and  N6_77 
REMARK       I    between atoms: C16_16  and  C17_17 
REMARK       I    between atoms: C16_16  and  C20_20 
REMARK       I    between atoms: C16_16  and  N6_77 
REMARK       I    between atoms: C17_17  and  C18_18 
REMARK       I    between atoms: C18_18  and  C19_19 
REMARK       I    between atoms: C19_19  and  O5_60 
REMARK       I    between atoms: C20_20  and  N7_78 
REMARK       I    between atoms: C21_21  and  C22_22 
REMARK       I    between atoms: C21_21  and  C26_26 
REMARK       I    between atoms: C21_21  and  N7_78 
REMARK       I    between atoms: C22_22  and  C23_23 
REMARK       I    between atoms: C23_23  and  C24_24 
REMARK       I    between atoms: C24_24  and  N8_79 
REMARK       I    between atoms: C25_25  and  N9_81 
REMARK       I    between atoms: C25_25  and  N10_82 
REMARK       I    between atoms: C26_26  and  N11_83 
REMARK       I    between atoms: C27_27  and  C28_28 
REMARK       I    between atoms: C27_27  and  C32_32 
REMARK       I    between atoms: C27_27  and  N11_83 
REMARK       I    between atoms: C28_28  and  C29_29 
REMARK       I    between atoms: C29_29  and  C30_30 
REMARK       I    between atoms: C30_30  and  N12_84 
REMARK       I    between atoms: C31_31  and  N13_86 
REMARK       I    between atoms: C31_31  and  N14_87 
REMARK       I    between atoms: C32_32  and  N15_88 
REMARK       I    between atoms: C33_33  and  C35_35 
REMARK       I    between atoms: C33_33  and  N15_88 
REMARK       I    between atoms: C35_35  and  N16_89 
REMARK       I    between atoms: C36_36  and  C37_37 
REMARK       I    between atoms: C36_36  and  C41_41 
REMARK       I    between atoms: C36_36  and  N16_89 
REMARK       I    between atoms: C37_37  and  C38_38 
REMARK       I    between atoms: C38_38  and  C39_39 
REMARK       I    between atoms: C39_39  and  C40_40 
REMARK       I    between atoms: C40_40  and  N17_90 
REMARK       I    between atoms: C41_41  and  N18_91 
REMARK       I    between atoms: C42_42  and  C43_43 
REMARK       I    between atoms: C42_42  and  C47_47 
REMARK       I    between atoms: C42_42  and  N18_91 
REMARK       I    between atoms: C43_43  and  C44_44 
REMARK       I    between atoms: C44_44  and  C45_45 
REMARK       I    between atoms: C45_45  and  C46_46 
REMARK       I    between atoms: C46_46  and  N19_92 
REMARK       I    between atoms: C47_47  and  N20_93 
REMARK       I    between atoms: C48_48  and  C49_49 
REMARK       I    between atoms: C48_48  and  C53_53 
REMARK       I    between atoms: C48_48  and  N20_93 
REMARK       I    between atoms: C49_49  and  C50_50 
REMARK       I    between atoms: C50_50  and  C51_51 
REMARK       I    between atoms: C51_51  and  N21_94 
REMARK       I    between atoms: C52_52  and  N22_96 
REMARK       I    between atoms: C52_52  and  N23_97 
REMARK       I    between atoms: C53_53  and  N24_98 
REMARK       I    between atoms: C54_54  and  C55_55 
REMARK       I    between atoms: C54_54  and  N24_98 
REMARK       I    between atoms: C55_55  and  O14_69 
USER                              x       y       z     vdW  Elec       q    Type
USER                           _______ _______ _______ _____ _____    ______ ____
ROOT
ATOM      1  C1  UNL     1      28.045   4.441  -0.880 -0.28 +0.00    +0.042 C 
ATOM      2  C2  UNL     1      27.323   5.775  -0.739 -0.27 +0.00    +0.155 C 
ATOM      3  C3  UNL     1      25.927   5.617  -0.087 -0.24 +0.00    +0.331 C 
ATOM      4  C4  UNL     1      25.379   7.027   0.237 -0.29 +0.00    +0.236 C 
ATOM      5  C5  UNL     1      25.531   6.949   2.644 -0.11 +0.00    +0.099 C 
ATOM      6  C6  UNL     1      25.809   8.367   3.175 -0.66 +0.00    +0.017 C 
ATOM      7  C7  UNL     1      24.944   9.307   2.326 -0.59 +0.00    +0.031 C 
ATOM      8  C8  UNL     1      23.931   8.358   1.718 -0.38 +0.00    +0.158 C 
ATOM      9  C9  UNL     1      23.057   8.887   0.573 -0.35 +0.00    +0.236 C 
ATOM     10  C10 UNL     1      21.487   8.152  -1.193 +3.10 +0.00    +0.176 C 
ATOM     11  C11 UNL     1      21.210   6.880  -2.002 +3.12 +0.00    +0.036 C 
ATOM     12  C12 UNL     1      20.262   5.844  -1.380+99.99 +0.00    +0.022 C 
ATOM     13  C13 UNL     1      20.584   5.351   0.032+99.99 +0.00    +0.121 C 
ATOM     14  C14 UNL     1      22.237   3.999   0.994 +5.90 +0.00    +0.121 C 
ATOM     15  C15 UNL     1      20.179   8.858  -0.773+10.44 +0.00    +0.241 C 
ATOM     16  C16 UNL     1      18.706  10.791  -1.284+21.56 +0.00    +0.177 C 
ATOM     17  C17 UNL     1      18.847  12.080  -2.116+77.08 +0.00    +0.045 C 
ATOM     18  C18 UNL     1      19.972  12.995  -1.614+99.99 +0.00    +0.112 C 
ATOM     19  C19 UNL     1      21.278  12.257  -1.508 +5.35 +0.00    +0.139 C 
ATOM     20  C20 UNL     1      17.296  10.173  -1.427 +8.23 +0.00    +0.241 C 
ATOM     21  C21 UNL     1      15.793   8.448  -0.430 -0.23 +0.00    +0.176 C 
ATOM     22  C22 UNL     1      15.929   7.274  -1.422 +2.84 +0.00    +0.036 C 
ATOM     23  C23 UNL     1      14.839   7.250  -2.503+99.99 +0.00    +0.022 C 
ATOM     24  C24 UNL     1      13.497   6.673  -2.048 +5.53 +0.00    +0.121 C 
ATOM     25  C25 UNL     1      11.640   7.547  -0.884 +2.62 +0.00    +0.121 C 
ATOM     26  C26 UNL     1      15.594   7.961   1.026 +3.25 +0.00    +0.241 C 
ATOM     27  C27 UNL     1      14.089   6.733   2.575+31.77 +0.00    +0.176 C 
ATOM     28  C28 UNL     1      12.805   5.897   2.451 +3.62 +0.00    +0.036 C 
ATOM     29  C29 UNL     1      12.173   5.391   3.750 +4.75 +0.00    +0.022 C 
ATOM     30  C30 UNL     1      11.927   6.476   4.799 -0.33 +0.00    +0.121 C 
ATOM     31  C31 UNL     1      12.068   5.251   6.821 -0.40 +0.00    +0.121 C 
ATOM     32  C32 UNL     1      15.175   5.979   3.398+99.99 +0.00    +0.241 C 
ATOM     33  C33 UNL     1      17.320   4.719   3.263+99.99 +0.00    +0.172 C 
ATOM     34  C34 UNL     1      17.621   3.436   2.496 +8.98 +0.00    +0.042 C 
ATOM     35  C35 UNL     1      18.585   5.609   3.368+54.06 +0.00    +0.240 C 
ATOM     36  C36 UNL     1      19.517   7.896   3.464 +1.26 +0.00    +0.176 C 
ATOM     37  C37 UNL     1      19.060   9.363   3.365 -0.19 +0.00    +0.035 C 
ATOM     38  C38 UNL     1      18.160   9.837   4.514 +2.60 +0.00    +0.004 C 
ATOM     39  C39 UNL     1      17.644  11.256   4.259 +5.48 +0.00    +0.030 C 
ATOM     40  C40 UNL     1      16.739  11.725   5.398+99.99 +0.00    +0.267 C 
ATOM     41  C41 UNL     1      20.475   7.747   4.668+99.99 +0.00    +0.241 C 
ATOM     42  C42 UNL     1      20.582   7.140   7.079+67.82 +0.00    +0.176 C 
ATOM     43  C43 UNL     1      19.812   7.685   8.295+99.99 +0.00    +0.035 C 
ATOM     44  C44 UNL     1      18.288   7.500   8.311+99.99 +0.00    +0.004 C 
ATOM     45  C45 UNL     1      17.811   6.049   8.297+99.99 +0.00    +0.030 C 
ATOM     46  C46 UNL     1      16.285   5.988   8.399+99.99 +0.00    +0.267 C 
ATOM     47  C47 UNL     1      21.043   5.681   7.299+13.99 +0.00    +0.241 C 
ATOM     48  C48 UNL     1      21.036   3.373   6.389+73.36 +0.00    +0.176 C 
ATOM     49  C49 UNL     1      19.882   2.442   6.009+99.99 +0.00    +0.036 C 
ATOM     50  C50 UNL     1      18.940   2.228   7.203+53.23 +0.00    +0.022 C 
ATOM     51  C51 UNL     1      17.657   1.498   6.819+99.99 +0.00    +0.121 C 
ATOM     52  C52 UNL     1      15.602   2.035   5.822+99.99 +0.00    +0.121 C 
ATOM     53  C53 UNL     1      22.250   3.252   5.442+99.99 +0.00    +0.240 C 
ATOM     54  C54 UNL     1      24.609   3.914   5.162+99.99 +0.00    +0.232 C 
ATOM     55  C55 UNL     1      25.502   2.829   5.746+99.99 +0.00    +0.158 C 
ATOM     56  O1  UNL     1      25.438   7.936  -0.593 -0.19 -0.00    -0.277 OA
ATOM     57  O2  UNL     1      22.920  10.082   0.313 -0.33 -0.00    -0.272 OA
ATOM     58  O3  UNL     1      19.560   8.589   0.257+59.56 -0.00    -0.271 OA
ATOM     59  O4  UNL     1      21.766  11.571  -2.394+99.99 -0.00    -0.650 OA
ATOM     60  O5  UNL     1      21.798  12.325  -0.271 +0.72 -0.00    -0.776 OA
ATOM     61  O6  UNL     1      16.517  10.452  -2.334+99.99 -0.00    -0.271 OA
ATOM     62  O7  UNL     1      16.330   8.279   1.962 -0.36 -0.00    -0.271 OA
ATOM     63  O8  UNL     1      15.104   5.848   4.621+24.64 -0.00    -0.271 OA
ATOM     64  O9  UNL     1      19.714   5.127   3.484+56.21 -0.00    -0.271 OA
ATOM     65  O10 UNL     1      21.657   8.081   4.622+99.99 -0.00    -0.271 OA
ATOM     66  O11 UNL     1      21.761   5.354   8.244 +4.81 -0.00    -0.271 OA
ATOM     67  O12 UNL     1      22.282   2.521   4.455+99.99 -0.00    -0.271 OA
ATOM     68  O13 UNL     1      26.603   2.513   5.319+99.99 -0.00    -0.649 OA
ATOM     69  O14 UNL     1      25.013   2.233   6.855+30.07 -0.00    -0.775 OA
ATOM     70  O15 UNL     1      27.212   6.345  -2.053 -0.14 -0.00    -0.393 OA
ATOM     71  N1  UNL     1      24.706   7.140   1.461 -0.23 -0.00    -0.238 NA
ATOM     72  N2  UNL     1      22.320   7.893  -0.035 +0.32 -0.00    -0.346 N 
ATOM     73  N3  UNL     1      21.973   4.885   0.100+10.65 -0.00    -0.372 N 
ATOM     74  H3  UNL     1      22.691   5.243  -0.529 +0.18 +0.00    +0.161 HD
ATOM     75  N4  UNL     1      21.436   3.480   1.952+26.71 -0.00    -0.279 NA
ATOM     76  N5  UNL     1      23.460   3.427   1.067 +0.84 -0.00    -0.279 NA
ATOM     77  N6  UNL     1      19.715   9.796  -1.673+99.99 -0.00    -0.346 N 
ATOM     78  N7  UNL     1      17.005   9.259  -0.441 -0.21 -0.00    -0.346 N 
ATOM     79  N8  UNL     1      12.914   7.535  -1.022 +2.95 -0.00    -0.372 N 
ATOM     80  H8  UNL     1      13.508   8.114  -0.428 -0.23 +0.00    +0.161 HD
ATOM     81  N9  UNL     1      10.688   6.816  -1.498 -0.16 -0.00    -0.279 NA
ATOM     82  N10 UNL     1      11.075   8.393   0.003+37.61 -0.00    -0.279 NA
ATOM     83  N11 UNL     1      14.553   7.077   1.218+99.99 -0.00    -0.346 N 
ATOM     84  N12 UNL     1      11.330   5.906   6.005 -0.07 -0.00    -0.372 N 
ATOM     85  H12 UNL     1      10.335   6.029   6.195 +0.11 +0.00    +0.161 HD
ATOM     86  N13 UNL     1      13.375   4.926   6.737 -0.33 -0.00    -0.279 NA
ATOM     87  N14 UNL     1      11.527   4.726   7.940 -0.24 -0.00    -0.279 NA
ATOM     88  N15 UNL     1      16.173   5.388   2.659+99.99 -0.00    -0.346 N 
ATOM     89  N16 UNL     1      18.372   6.966   3.526 +0.73 -0.00    -0.346 N 
ATOM     90  N17 UNL     1      16.262  13.078   5.143+99.99 +0.00    +0.078 N 
ATOM     91  N18 UNL     1      19.855   7.346   5.832+39.50 -0.00    -0.346 N 
ATOM     92  N19 UNL     1      15.791   4.613   8.391+99.99 +0.00    +0.078 N 
ATOM     93  N20 UNL     1      20.589   4.767   6.378 +4.88 -0.00    -0.346 N 
ATOM     94  N21 UNL     1      16.791   2.425   6.093+99.99 -0.00    -0.372 N 
ATOM     95  H21 UNL     1      17.121   3.349   5.812+99.99 +0.00    +0.161 HD
ATOM     96  N22 UNL     1      14.994   0.859   6.090+99.99 -0.00    -0.279 NA
ATOM     97  N23 UNL     1      14.746   2.853   5.176+99.99 -0.00    -0.279 NA
ATOM     98  N24 UNL     1      23.323   4.032   5.824+99.99 -0.00    -0.349 N 
ATOM     99  N25 UNL     1      24.975   4.936  -1.006 -0.45 +0.00    +0.094 N 
ATOM    100  H70 UNL     1      22.461  11.587  -0.191 +0.14 +0.00    +0.167 HD
ATOM    101  H71 UNL     1      25.699   1.575   7.093 +0.37 +0.00    +0.167 HD
ATOM    102  H72 UNL     1      26.721   7.188  -1.949 +0.11 +0.00    +0.210 HD
ATOM    103  H73 UNL     1      22.518   6.924   0.219 +0.12 +0.00    +0.163 HD
ATOM    104  H74 UNL     1      20.739   4.131   2.311+99.99 +0.00    +0.126 HD
ATOM    105  H75 UNL     1      21.943   3.103   2.756 +0.05 +0.00    +0.126 HD
ATOM    106  H76 UNL     1      23.410   2.428   1.227 +1.05 +0.00    +0.126 HD
ATOM    107  H77 UNL     1      24.019   3.619   0.233 +0.07 +0.00    +0.126 HD
ATOM    108  H78 UNL     1      20.373  10.076  -2.400+99.99 +0.00    +0.163 HD
ATOM    109  H79 UNL     1      17.776   8.967   0.165 +0.12 +0.00    +0.163 HD
ATOM    110  H80 UNL     1      11.021   5.995  -1.988 +0.07 +0.00    +0.126 HD
ATOM    111  H81 UNL     1       9.910   6.583  -0.891 +0.07 +0.00    +0.126 HD
ATOM    112  H82 UNL     1      10.239   8.835  -0.365 +0.23 +0.00    +0.126 HD
ATOM    113  H83 UNL     1      11.736   9.107   0.295+99.99 +0.00    +0.126 HD
ATOM    114  H84 UNL     1      13.824   7.159   0.501 -0.30 +0.00    +0.163 HD
ATOM    115  H85 UNL     1      13.878   4.888   7.628 +0.08 +0.00    +0.126 HD
ATOM    116  H86 UNL     1      13.926   5.482   6.082 +0.08 +0.00    +0.126 HD
ATOM    117  H87 UNL     1      11.856   3.792   8.142 +0.09 +0.00    +0.126 HD
ATOM    118  H88 UNL     1      10.515   4.774   7.902 +0.09 +0.00    +0.126 HD
ATOM    119  H89 UNL     1      16.210   5.620   1.673+99.99 +0.00    +0.163 HD
ATOM    120  H90 UNL     1      17.514   7.316   3.092 +0.08 +0.00    +0.163 HD
ATOM    121  H91 UNL     1      15.730  13.097   4.273 +0.65 +0.00    +0.312 HD
ATOM    122  H92 UNL     1      15.617  13.354   5.881 +0.71 +0.00    +0.312 HD
ATOM    123  H93 UNL     1      18.922   6.962   5.727 +1.06 +0.00    +0.163 HD
ATOM    124  H94 UNL     1      16.170   4.118   7.570+11.00 +0.00    +0.312 HD
ATOM    125  H95 UNL     1      16.194   4.110   9.183 +3.57 +0.00    +0.312 HD
ATOM    126  H96 UNL     1      20.314   5.138   5.469 +0.53 +0.00    +0.163 HD
ATOM    127  H97 UNL     1      14.330   0.603   5.368+99.99 +0.00    +0.126 HD
ATOM    128  H98 UNL     1      15.623   0.094   6.296 +0.02 +0.00    +0.126 HD
ATOM    129  H99 UNL     1      13.875   2.969   5.694 +0.08 +0.00    +0.126 HD
ATOM    130  HA0 UNL     1      15.140   3.789   5.097+99.99 +0.00    +0.126 HD
ATOM    131  HA1 UNL     1      23.310   4.390   6.776+99.99 +0.00    +0.163 HD
ATOM    132  HA2 UNL     1      25.171   5.292  -1.948 +0.22 +0.00    +0.314 HD
ATOM    133  HA3 UNL     1      24.020   5.263  -0.800 +0.24 +0.00    +0.314 HD
ENDROOT
TORSDOF 54
TER
