USER    Run = 1
USER    DPF = ligand_462_receptor.dpf
USER  
USER    Estimated Free Energy of Binding    =  +3.50e+005 kcal/mol  [=(1)+(2)+(3)-(4)]
USER    
USER    (1) Final Intermolecular Energy     =  +3.50e+005 kcal/mol
USER        vdW + Hbond + desolv Energy     =  +2.79e+005 kcal/mol
USER        Electrostatic Energy            =  +7.12e+004 kcal/mol
USER    (2) Final Total Internal Energy     =   +0.00 kcal/mol
USER    (3) Torsional Free Energy           =   +1.19 kcal/mol
USER    (4) Unbound System's Energy  [=(2)] =   +0.00 kcal/mol
USER    
USER    
USER    NEWDPF move ligand_462.pdbqt
USER    NEWDPF about 0.000000 0.000000 0.000000
USER    NEWDPF tran0 13.857699 6.457643 4.206932
USER    NEWDPF quaternion0 0.705000 -0.411700 0.566737 -0.110850
USER    NEWDPF axisangle0 0.709372 -0.414253 0.570251 -167.271386
USER    NEWDPF quat0 0.709372 -0.414253 0.570251 -167.271386
USER  keepresnum = 1 
USER  
REMARK  0 active torsions:
REMARK  status: ('A' for Active; 'I' for Inactive)
REMARK       I    between atoms: C6_6  and  O2_77 
REMARK       I    between atoms: C10_10  and  O12_87 
REMARK       I    between atoms: C11_11  and  O11_86 
REMARK       I    between atoms: C12_12  and  O10_85 
REMARK       I    between atoms: C15_15  and  O9_84 
REMARK       I    between atoms: C16_16  and  O8_83 
REMARK       I    between atoms: C17_17  and  O7_82 
REMARK       I    between atoms: C24_24  and  O48_123 
REMARK       I    between atoms: C25_25  and  O47_122 
REMARK       I    between atoms: C26_26  and  O46_121 
REMARK       I    between atoms: C29_29  and  O45_120 
REMARK       I    between atoms: C30_30  and  O44_119 
REMARK       I    between atoms: C31_31  and  O17_92 
REMARK       I    between atoms: C35_35  and  O17_92 
REMARK       I    between atoms: C36_36  and  O43_118 
REMARK       I    between atoms: C37_37  and  O42_117 
REMARK       I    between atoms: C38_38  and  O41_116 
REMARK       I    between atoms: C40_40  and  C41_41 
REMARK       I    between atoms: C41_41  and  O19_94 
REMARK       I    between atoms: C42_42  and  O19_94 
REMARK       I    between atoms: C43_43  and  O36_111 
REMARK       I    between atoms: C44_44  and  O31_106 
REMARK       I    between atoms: C51_51  and  O30_105 
REMARK       I    between atoms: C52_52  and  O29_104 
REMARK       I    between atoms: C53_53  and  O28_103 
REMARK       I    between atoms: C56_56  and  O27_102 
REMARK       I    between atoms: C57_57  and  O26_101 
REMARK       I    between atoms: C58_58  and  O25_100 
REMARK       I    between atoms: C62_62  and  C63_63 
REMARK       I    between atoms: C62_62  and  O31_106 
REMARK       I    between atoms: C65_65  and  O35_110 
REMARK       I    between atoms: C66_66  and  O34_109 
REMARK       I    between atoms: C67_67  and  O33_108 
REMARK       I    between atoms: C69_69  and  C70_70 
REMARK       I    between atoms: C69_69  and  O36_111 
REMARK       I    between atoms: C72_72  and  O40_115 
REMARK       I    between atoms: C73_73  and  O39_114 
REMARK       I    between atoms: C74_74  and  O38_113 
USER                              x       y       z     vdW  Elec       q    Type
USER                           _______ _______ _______ _____ _____    ______ ____
ROOT
ATOM      1  C1  UNL     1      16.248   6.646   9.307+99.99 +0.00    +0.213 C 
ATOM      2  C2  UNL     1      14.799   6.240   8.968 +0.12 +0.00    +0.181 C 
ATOM      3  C3  UNL     1      14.676   5.195   7.846 -0.13 +0.00    +0.195 C 
ATOM      4  C4  UNL     1      13.205   4.767   7.711 -0.50 +0.00    +0.198 C 
ATOM      5  C5  UNL     1      12.338   6.031   7.514 -0.32 +0.00    +0.219 C 
ATOM      6  C6  UNL     1      12.644   7.146   8.534 +0.15 +0.00    +0.289 C 
ATOM      7  C7  UNL     1      10.330   4.908   8.230 -0.18 +0.00    +0.295 C 
ATOM      8  C8  UNL     1       9.264   4.210   7.487 -0.47 +0.00    +0.056 A 
ATOM      9  C9  UNL     1       8.273   4.988   6.858 -0.38 +0.00    +0.058 A 
ATOM     10  C10 UNL     1       7.264   4.350   6.157 -0.33 +0.00    +0.102 A 
ATOM     11  C11 UNL     1       7.221   2.964   6.113+30.70 +0.00    +0.133 A 
ATOM     12  C12 UNL     1       8.210   2.199   6.731+72.76 +0.00    +0.114 A 
ATOM     13  C13 UNL     1       9.285   2.794   7.405 +0.10 +0.00    +0.030 A 
ATOM     14  C14 UNL     1      10.415   1.981   7.945 +4.72 +0.00    +0.030 A 
ATOM     15  C15 UNL     1      10.226   1.024   8.959+20.88 +0.00    +0.114 A 
ATOM     16  C16 UNL     1      11.307   0.351   9.536+23.27 +0.00    +0.133 A 
ATOM     17  C17 UNL     1      12.600   0.564   9.086+12.45 +0.00    +0.102 A 
ATOM     18  C18 UNL     1      12.831   1.447   8.050+99.99 +0.00    +0.058 A 
ATOM     19  C19 UNL     1      11.753   2.163   7.500+65.06 +0.00    +0.056 A 
ATOM     20  C20 UNL     1      12.070   3.040   6.352 +4.52 +0.00    +0.294 C 
ATOM     21  C21 UNL     1      16.290   3.618   7.148+99.99 +0.00    +0.294 C 
ATOM     22  C22 UNL     1      17.355   2.780   7.729+99.99 +0.00    +0.056 A 
ATOM     23  C23 UNL     1      16.962   1.672   8.502+99.99 +0.00    +0.058 A 
ATOM     24  C24 UNL     1      17.925   0.835   9.046+99.99 +0.00    +0.102 A 
ATOM     25  C25 UNL     1      19.270   1.113   8.838+17.06 +0.00    +0.133 A 
ATOM     26  C26 UNL     1      19.662   2.231   8.088+37.62 +0.00    +0.114 A 
ATOM     27  C27 UNL     1      18.719   3.092   7.495+99.99 +0.00    +0.030 A 
ATOM     28  C28 UNL     1      19.145   4.261   6.676+99.99 +0.00    +0.030 A 
ATOM     29  C29 UNL     1      19.820   4.097   5.452+87.31 +0.00    +0.114 A 
ATOM     30  C30 UNL     1      20.265   5.195   4.696+39.06 +0.00    +0.134 A 
ATOM     31  C31 UNL     1      20.023   6.499   5.120+99.08 +0.00    +0.113 A 
ATOM     32  C32 UNL     1      19.348   6.698   6.324+99.99 +0.00    +0.058 A 
ATOM     33  C33 UNL     1      18.917   5.598   7.085+52.09 +0.00    +0.056 A 
ATOM     34  C34 UNL     1      18.279   5.883   8.381+99.99 +0.00    +0.294 C 
ATOM     35  C35 UNL     1      20.414   7.705   3.128+25.45 +0.00    +0.128 A 
ATOM     36  C36 UNL     1      21.625   7.852   2.442+16.58 +0.00    +0.137 A 
ATOM     37  C37 UNL     1      21.641   7.995   1.061+45.13 +0.00    +0.135 A 
ATOM     38  C38 UNL     1      20.452   7.986   0.346+99.99 +0.00    +0.102 A 
ATOM     39  C39 UNL     1      19.240   7.820   1.000+99.99 +0.00    +0.060 A 
ATOM     40  C40 UNL     1      19.213   7.716   2.402+43.46 +0.00    +0.079 A 
ATOM     41  C41 UNL     1      17.906   7.780   3.086 -0.32 +0.00    +0.298 C 
ATOM     42  C42 UNL     1      15.649   7.201   2.841+12.51 +0.00    +0.302 C 
ATOM     43  C43 UNL     1      14.949   8.359   2.060 +2.20 +0.00    +0.220 C 
ATOM     44  C44 UNL     1      14.102   7.742   0.934+12.86 +0.00    +0.198 C 
ATOM     45  C45 UNL     1      13.007   6.868   1.569 +0.67 +0.00    +0.195 C 
ATOM     46  C46 UNL     1      13.573   6.043   2.742+12.49 +0.00    +0.181 C 
ATOM     47  C47 UNL     1      12.955   4.642   2.820+99.99 +0.00    +0.213 C 
ATOM     48  C48 UNL     1      10.731   5.247   3.492 -0.00 +0.00    +0.294 C 
ATOM     49  C49 UNL     1       9.336   5.116   3.007 -0.18 +0.00    +0.056 A 
ATOM     50  C50 UNL     1       8.919   3.817   2.648 -0.15 +0.00    +0.058 A 
ATOM     51  C51 UNL     1       7.651   3.621   2.135 -0.13 +0.00    +0.102 A 
ATOM     52  C52 UNL     1       6.795   4.696   1.981 -0.08 +0.00    +0.133 A 
ATOM     53  C53 UNL     1       7.187   5.983   2.359 -0.16 +0.00    +0.114 A 
ATOM     54  C54 UNL     1       8.471   6.241   2.892 -0.23 +0.00    +0.030 A 
ATOM     55  C55 UNL     1       8.863   7.622   3.298 -0.33 +0.00    +0.030 A 
ATOM     56  C56 UNL     1       8.179   8.283   4.336+58.90 +0.00    +0.114 A 
ATOM     57  C57 UNL     1       8.521   9.575   4.740+99.99 +0.00    +0.133 A 
ATOM     58  C58 UNL     1       9.558  10.263   4.130+99.99 +0.00    +0.102 A 
ATOM     59  C59 UNL     1      10.264   9.663   3.104+24.30 +0.00    +0.058 A 
ATOM     60  C60 UNL     1       9.919   8.353   2.696 +1.06 +0.00    +0.056 A 
ATOM     61  C61 UNL     1      10.765   7.751   1.650 +1.54 +0.00    +0.294 C 
ATOM     62  C62 UNL     1      14.077   9.161  -0.985+99.99 +0.00    +0.294 C 
ATOM     63  C63 UNL     1      13.173  10.052  -1.745+99.99 +0.00    +0.045 A 
ATOM     64  C64 UNL     1      11.786   9.814  -1.772+99.99 +0.00    +0.057 A 
ATOM     65  C65 UNL     1      10.967  10.666  -2.501 +2.73 +0.00    +0.102 A 
ATOM     66  C66 UNL     1      11.515  11.740  -3.194+32.92 +0.00    +0.132 A 
ATOM     67  C67 UNL     1      12.887  11.963  -3.173+40.82 +0.00    +0.102 A 
ATOM     68  C68 UNL     1      13.730  11.123  -2.458+99.99 +0.00    +0.057 A 
ATOM     69  C69 UNL     1      15.606  10.604   1.581 +0.03 +0.00    +0.294 C 
ATOM     70  C70 UNL     1      16.728  11.400   1.023 -0.51 +0.00    +0.045 A 
ATOM     71  C71 UNL     1      17.625  10.849   0.096 -0.17 +0.00    +0.057 A 
ATOM     72  C72 UNL     1      18.692  11.612  -0.359 +0.66 +0.00    +0.102 A 
ATOM     73  C73 UNL     1      18.848  12.930   0.066 +5.09 +0.00    +0.132 A 
ATOM     74  C74 UNL     1      17.940  13.491   0.961 +5.27 +0.00    +0.102 A 
ATOM     75  C75 UNL     1      16.877  12.729   1.446 +0.06 +0.00    +0.057 A 
ATOM     76  O1  UNL     1      14.045   7.414   8.603 -0.36 -0.00    -0.349 OA
ATOM     77  O2  UNL     1      12.183   6.853   9.836 +1.08 -0.00    -0.368 OA
ATOM     78  O3  UNL     1      10.928   5.748   7.362 -0.17 -0.00    -0.304 OA
ATOM     79  O4  UNL     1      10.698   4.593   9.344 +2.01 -0.00    -0.259 OA
ATOM     80  O5  UNL     1      11.495   2.888   5.282 -0.36 -0.00    -0.259 OA
ATOM     81  O6  UNL     1      13.088   3.922   6.521 -0.37 -0.00    -0.306 OA
ATOM     82  O7  UNL     1      13.647  -0.110   9.646+24.63 -0.00    -0.358 OA
ATOM     83  O8  UNL     1      11.102  -0.553  10.545+99.99 -0.00    -0.356 OA
ATOM     84  O9  UNL     1       8.985   0.670   9.433 -0.08 -0.00    -0.357 OA
ATOM     85  O10 UNL     1       8.093   0.832   6.678+99.99 -0.00    -0.357 OA
ATOM     86  O11 UNL     1       6.215   2.320   5.445+74.69 -0.00    -0.356 OA
ATOM     87  O12 UNL     1       6.291   5.045   5.498 -0.14 -0.00    -0.358 OA
ATOM     88  O13 UNL     1      15.501   4.056   8.161+11.13 -0.00    -0.307 OA
ATOM     89  O14 UNL     1      16.245   3.938   5.975+99.99 -0.00    -0.259 OA
ATOM     90  O15 UNL     1      18.726   5.479   9.439+22.48 -0.00    -0.259 OA
ATOM     91  O16 UNL     1      17.115   6.544   8.164+78.89 -0.00    -0.315 OA
ATOM     92  O17 UNL     1      20.479   7.642   4.500+67.41 -0.00    -0.304 OA
ATOM     93  O18 UNL     1      17.689   8.452   4.082 -0.41 -0.00    -0.259 OA
ATOM     94  O19 UNL     1      17.003   7.044   2.399 -0.59 -0.00    -0.283 OA
ATOM     95  O20 UNL     1      14.992   5.936   2.633+99.99 -0.00    -0.348 OA
ATOM     96  O21 UNL     1      11.534   4.612   2.603+40.64 -0.00    -0.315 OA
ATOM     97  O22 UNL     1      11.077   5.930   4.439 -0.19 -0.00    -0.259 OA
ATOM     98  O23 UNL     1      10.379   7.296   0.593 -0.23 -0.00    -0.259 OA
ATOM     99  O24 UNL     1      12.010   7.731   2.170 +0.01 -0.00    -0.307 OA
ATOM    100  O25 UNL     1       9.842  11.519   4.579+99.99 -0.00    -0.358 OA
ATOM    101  O26 UNL     1       7.800  10.153   5.751+99.99 -0.00    -0.356 OA
ATOM    102  O27 UNL     1       7.116   7.689   4.982+99.99 -0.00    -0.357 OA
ATOM    103  O28 UNL     1       6.225   6.950   2.170 -0.20 -0.00    -0.357 OA
ATOM    104  O29 UNL     1       5.544   4.475   1.469 -0.05 -0.00    -0.356 OA
ATOM    105  O30 UNL     1       7.252   2.368   1.780 -0.11 -0.00    -0.358 OA
ATOM    106  O31 UNL     1      13.432   8.731   0.123+99.99 -0.00    -0.306 OA
ATOM    107  O32 UNL     1      15.220   8.897  -1.309 +8.37 -0.00    -0.259 OA
ATOM    108  O33 UNL     1      13.418  13.014  -3.860+99.99 -0.00    -0.358 OA
ATOM    109  O34 UNL     1      10.714  12.586  -3.912+99.99 -0.00    -0.356 OA
ATOM    110  O35 UNL     1       9.614  10.482  -2.570 +2.43 -0.00    -0.358 OA
ATOM    111  O36 UNL     1      15.921   9.288   1.537 -0.27 -0.00    -0.304 OA
ATOM    112  O37 UNL     1      14.583  11.088   2.038 +0.34 -0.00    -0.259 OA
ATOM    113  O38 UNL     1      18.106  14.785   1.366+99.99+99.99    -0.358 OA
ATOM    114  O39 UNL     1      19.905  13.659  -0.408+65.02 -0.00    -0.356 OA
ATOM    115  O40 UNL     1      19.622  11.103  -1.225+11.29 -0.00    -0.358 OA
ATOM    116  O41 UNL     1      20.461   8.196  -1.004 +6.61 -0.00    -0.358 OA
ATOM    117  O42 UNL     1      22.819   8.161   0.386 -0.23 -0.00    -0.356 OA
ATOM    118  O43 UNL     1      22.831   7.871   3.096 +0.46 -0.00    -0.356 OA
ATOM    119  O44 UNL     1      20.979   4.941   3.556+13.50 -0.00    -0.356 OA
ATOM    120  O45 UNL     1      20.123   2.867   4.915+28.35 -0.00    -0.357 OA
ATOM    121  O46 UNL     1      21.021   2.411   7.970+76.76 -0.00    -0.357 OA
ATOM    122  O47 UNL     1      20.235   0.299   9.367+24.79 -0.00    -0.356 OA
ATOM    123  O48 UNL     1      17.556  -0.254   9.780+99.99 -0.00    -0.358 OA
ATOM    124  H26 UNL     1      12.072   7.705  10.287 +3.41 +0.00    +0.212 HD
ATOM    125  H27 UNL     1      13.225  -0.680  10.324+99.99 +0.00    +0.217 HD
ATOM    126  H28 UNL     1      10.134  -0.521  10.699 +0.95 +0.00    +0.218 HD
ATOM    127  H29 UNL     1       8.373   0.739   8.671 +0.79 +0.00    +0.217 HD
ATOM    128  H30 UNL     1       7.365   0.673   6.038+99.99 +0.00    +0.217 HD
ATOM    129  H31 UNL     1       5.695   3.041   5.030 -0.19 +0.00    +0.218 HD
ATOM    130  H32 UNL     1       6.604   5.964   5.365 +0.10 +0.00    +0.217 HD
ATOM    131  H33 UNL     1      10.615  11.863   4.091 +1.16 +0.00    +0.217 HD
ATOM    132  H34 UNL     1       8.206  11.038   5.868+99.99 +0.00    +0.218 HD
ATOM    133  H35 UNL     1       6.829   8.369   5.636+99.99 +0.00    +0.217 HD
ATOM    134  H36 UNL     1       6.444   7.719   2.723 +0.11 +0.00    +0.217 HD
ATOM    135  H37 UNL     1       5.141   5.368   1.427 +0.07 +0.00    +0.218 HD
ATOM    136  H38 UNL     1       6.347   2.482   1.423 +0.08 +0.00    +0.217 HD
ATOM    137  H39 UNL     1      12.653  13.449  -4.288+99.99 +0.00    +0.217 HD
ATOM    138  H40 UNL     1       9.811  12.225  -3.795+99.99 +0.00    +0.218 HD
ATOM    139  H41 UNL     1       9.393   9.648  -2.114 -0.09 +0.00    +0.217 HD
ATOM    140  H42 UNL     1      17.375  15.040   1.949+99.99+99.99    +0.217 HD
ATOM    141  H43 UNL     1      20.367  13.053  -1.020 +0.82 +0.00    +0.218 HD
ATOM    142  H44 UNL     1      19.513  10.132  -1.275 +3.63 +0.00    +0.217 HD
ATOM    143  H45 UNL     1      21.414   8.217  -1.238 +0.17 +0.00    +0.217 HD
ATOM    144  H46 UNL     1      23.503   8.145   1.088 +0.17 +0.00    +0.218 HD
ATOM    145  H47 UNL     1      22.633   7.662   4.030 +1.02 +0.00    +0.218 HD
ATOM    146  H48 UNL     1      20.978   3.965   3.464 +0.38 +0.00    +0.218 HD
ATOM    147  H49 UNL     1      19.676   2.163   5.418+99.99 +0.00    +0.217 HD
ATOM    148  H50 UNL     1      21.204   3.332   7.712+26.14 +0.00    +0.217 HD
ATOM    149  H51 UNL     1      21.086   0.708   9.115 +0.94 +0.00    +0.218 HD
ATOM    150  H52 UNL     1      16.587  -0.302   9.838 +5.72 +0.00    +0.217 HD
ENDROOT
TORSDOF 38
TER
