USER    Run = 1
USER    DPF = ligand_329_receptor.dpf
USER  
USER    Estimated Free Energy of Binding    =  +3.31e+003 kcal/mol  [=(1)+(2)+(3)-(4)]
USER    
USER    (1) Final Intermolecular Energy     =  +3.31e+003 kcal/mol
USER        vdW + Hbond + desolv Energy     =  +3.31e+003 kcal/mol
USER        Electrostatic Energy            =   +0.00 kcal/mol
USER    (2) Final Total Internal Energy     =   +0.00 kcal/mol
USER    (3) Torsional Free Energy           =   +1.19 kcal/mol
USER    (4) Unbound System's Energy  [=(2)] =   +0.00 kcal/mol
USER    
USER    
USER    NEWDPF move ligand_329.pdbqt
USER    NEWDPF about 0.000000 0.000000 0.000000
USER    NEWDPF tran0 17.597147 6.867921 2.463058
USER    NEWDPF quaternion0 -0.016106 0.212993 0.973914 0.076585
USER    NEWDPF axisangle0 -0.016154 0.213621 0.976783 171.215390
USER    NEWDPF quat0 -0.016154 0.213621 0.976783 171.215390
USER  keepresnum = 1 
USER  
REMARK  0 active torsions:
REMARK  status: ('A' for Active; 'I' for Inactive)
REMARK       I    between atoms: C2_2  and  C3_3 
REMARK       I    between atoms: C3_3  and  C4_4 
REMARK       I    between atoms: C3_3  and  N2_65 
REMARK       I    between atoms: C4_4  and  C5_5 
REMARK       I    between atoms: C5_5  and  C6_6 
REMARK       I    between atoms: C6_6  and  C7_7 
REMARK       I    between atoms: C7_7  and  N1_64 
REMARK       I    between atoms: C9_9  and  C10_10 
REMARK       I    between atoms: C9_9  and  N2_65 
REMARK       I    between atoms: C10_10  and  C11_11 
REMARK       I    between atoms: C11_11  and  C12_12 
REMARK       I    between atoms: C12_12  and  C13_13 
REMARK       I    between atoms: C13_13  and  C14_14 
REMARK       I    between atoms: C14_14  and  N3_66 
REMARK       I    between atoms: C15_15  and  C16_16 
REMARK       I    between atoms: C15_15  and  N3_66 
REMARK       I    between atoms: C16_16  and  C17_17 
REMARK       I    between atoms: C16_16  and  N4_67 
REMARK       I    between atoms: C18_18  and  C19_19 
REMARK       I    between atoms: C18_18  and  N4_67 
REMARK       I    between atoms: C19_19  and  C20_20 
REMARK       I    between atoms: C19_19  and  N5_68 
REMARK       I    between atoms: C20_20  and  C21_21 
REMARK       I    between atoms: C21_21  and  C22_22 
REMARK       I    between atoms: C22_22  and  O6_53 
REMARK       I    between atoms: C23_23  and  C24_24 
REMARK       I    between atoms: C23_23  and  N5_68 
REMARK       I    between atoms: C24_24  and  C25_25 
REMARK       I    between atoms: C25_25  and  C26_26 
REMARK       I    between atoms: C26_26  and  C27_27 
REMARK       I    between atoms: C27_27  and  C28_28 
REMARK       I    between atoms: C28_28  and  N6_69 
REMARK       I    between atoms: C29_29  and  C30_30 
REMARK       I    between atoms: C29_29  and  N6_69 
REMARK       I    between atoms: C33_33  and  C36_36 
REMARK       I    between atoms: C36_36  and  N7_70 
REMARK       I    between atoms: C37_37  and  C38_38 
REMARK       I    between atoms: C37_37  and  N7_70 
REMARK       I    between atoms: C38_38  and  C39_39 
REMARK       I    between atoms: C39_39  and  C40_40 
REMARK       I    between atoms: C40_40  and  C41_41 
REMARK       I    between atoms: C40_40  and  N8_71 
REMARK       I    between atoms: C41_41  and  O11_58 
REMARK       I    between atoms: C42_42  and  N8_71 
REMARK       I    between atoms: C42_42  and  N9_72 
REMARK       I    between atoms: C43_43  and  C44_44 
REMARK       I    between atoms: C43_43  and  C47_47 
REMARK       I    between atoms: C43_43  and  N9_72 
REMARK       I    between atoms: C44_44  and  C45_45 
REMARK       I    between atoms: C45_45  and  C46_46 
REMARK       I    between atoms: C46_46  and  O14_61 
REMARK       I    between atoms: C47_47  and  O16_63 
USER                              x       y       z     vdW  Elec       q    Type
USER                           _______ _______ _______ _____ _____    ______ ____
ROOT
ATOM      1  C1  UNL     1       8.946   1.044  -1.266 -0.17 +0.00    +0.093 C 
ATOM      2  C2  UNL     1       8.997   2.334  -2.042 -0.12 +0.00    +0.145 C 
ATOM      3  C3  UNL     1       8.419   3.576  -1.358 -0.10 +0.00    +0.153 C 
ATOM      4  C4  UNL     1       7.089   3.998  -1.996 -0.03 +0.00    +0.033 C 
ATOM      5  C5  UNL     1       5.953   3.011  -1.710 -0.12 +0.00    +0.004 C 
ATOM      6  C6  UNL     1       4.624   3.519  -2.275 -0.11 +0.00    +0.030 C 
ATOM      7  C7  UNL     1       3.469   2.518  -2.140 -0.04 +0.00    +0.269 C 
ATOM      8  C8  UNL     1       3.530   0.940  -0.295 -0.06 +0.00    +0.306 C 
ATOM      9  C9  UNL     1       9.515   5.673  -0.628 -0.14 +0.00    +0.218 C 
ATOM     10  C10 UNL     1      10.575   6.684  -1.017 -0.30 +0.00    +0.103 C 
ATOM     11  C11 UNL     1      10.948   7.650   0.107 +2.02 +0.00    +0.009 C 
ATOM     12  C12 UNL     1      11.640   7.012   1.318 -0.26 +0.00    +0.002 C 
ATOM     13  C13 UNL     1      12.924   6.255   0.965 +0.59 +0.00    +0.020 C 
ATOM     14  C14 UNL     1      13.679   5.776   2.206+84.55 +0.00    +0.122 C 
ATOM     15  C15 UNL     1      15.457   7.462   2.592+10.90 +0.00    +0.236 C 
ATOM     16  C16 UNL     1      15.804   8.735   3.411 -0.44 +0.00    +0.165 C 
ATOM     17  C17 UNL     1      17.296   9.130   3.245 -0.50 +0.00    +0.115 C 
ATOM     18  C18 UNL     1      14.288   8.954   5.360 +0.78 +0.00    +0.221 C 
ATOM     19  C19 UNL     1      14.333   9.515   6.795+18.94 +0.00    +0.171 C 
ATOM     20  C20 UNL     1      14.748   8.428   7.798+99.99 +0.00    +0.044 C 
ATOM     21  C21 UNL     1      13.711   7.308   7.890 -0.35 +0.00    +0.112 C 
ATOM     22  C22 UNL     1      14.083   6.294   8.937 -0.28 +0.00    +0.139 C 
ATOM     23  C23 UNL     1      15.255  11.560   7.858 +2.42 +0.00    +0.218 C 
ATOM     24  C24 UNL     1      16.272  12.674   7.723+19.72 +0.00    +0.103 C 
ATOM     25  C25 UNL     1      17.332  12.643   8.824+99.99 +0.00    +0.009 C 
ATOM     26  C26 UNL     1      18.602  11.868   8.452+46.74 +0.00    +0.002 C 
ATOM     27  C27 UNL     1      18.423  10.348   8.444+99.99 +0.00    +0.020 C 
ATOM     28  C28 UNL     1      19.717   9.613   8.104+38.36 +0.00    +0.122 C 
ATOM     29  C29 UNL     1      21.461   9.611   6.364+23.36 +0.00    +0.221 C 
ATOM     30  C30 UNL     1      21.702   9.775   4.863+18.34 +0.00    +0.078 C 
ATOM     31  C31 UNL     1      23.198   9.954   4.551 -0.67 +0.00    +0.014 C 
ATOM     32  C32 UNL     1      23.494   9.685   3.080 -0.59 +0.00    +0.007 C 
ATOM     33  C33 UNL     1      23.148   8.241   2.668 -0.29 +0.00    +0.003 C 
ATOM     34  C34 UNL     1      22.124   7.593   3.618+31.92 +0.00    +0.007 C 
ATOM     35  C35 UNL     1      21.079   8.600   4.086 +8.53 +0.00    +0.014 C 
ATOM     36  C36 UNL     1      24.417   7.382   2.557 +1.03 +0.00    +0.127 C 
ATOM     37  C37 UNL     1      25.101   5.081   2.021 +0.92 +0.00    +0.217 C 
ATOM     38  C38 UNL     1      24.688   3.843   1.239 +3.27 +0.00    +0.105 C 
ATOM     39  C39 UNL     1      25.808   2.805   1.131+99.99 +0.00    +0.045 C 
ATOM     40  C40 UNL     1      26.861   3.127   0.056+99.99 +0.00    +0.184 C 
ATOM     41  C41 UNL     1      28.001   2.109   0.194+14.36 +0.00    +0.163 C 
ATOM     42  C42 UNL     1      27.969   5.116  -0.872 -0.14 +0.00    +0.317 C 
ATOM     43  C43 UNL     1      28.993   7.249  -1.512 -0.22 +0.00    +0.184 C 
ATOM     44  C44 UNL     1      30.049   8.173  -0.879 -0.25 +0.00    +0.046 C 
ATOM     45  C45 UNL     1      29.517   9.295   0.014 +0.70 +0.00    +0.112 C 
ATOM     46  C46 UNL     1      28.861   8.777   1.259 +1.95 +0.00    +0.139 C 
ATOM     47  C47 UNL     1      27.957   8.054  -2.306 +3.95 +0.00    +0.163 C 
ATOM     48  O1  UNL     1       9.508   2.388  -3.164 +3.77 -0.00    -0.296 OA
ATOM     49  O2  UNL     1       8.787   5.778   0.353 -0.10 -0.00    -0.274 OA
ATOM     50  O3  UNL     1      16.100   7.085   1.612+62.37 -0.00    -0.272 OA
ATOM     51  O4  UNL     1      13.236   8.721   4.765 -0.16 -0.00    -0.278 OA
ATOM     52  O5  UNL     1      15.099   6.245   9.607 +0.98 -0.00    -0.650 OA
ATOM     53  O6  UNL     1      13.128   5.352   9.085 +0.50 -0.00    -0.776 OA
ATOM     54  O7  UNL     1      14.488  11.491   8.815 +1.47 -0.00    -0.274 OA
ATOM     55  O8  UNL     1      22.342   9.270   7.151 +1.32 -0.00    -0.273 OA
ATOM     56  O9  UNL     1      26.171   5.178   2.617+40.48 -0.00    -0.274 OA
ATOM     57  O10 UNL     1      27.904   0.904   0.009+35.19 -0.00    -0.648 OA
ATOM     58  O11 UNL     1      29.170   2.624   0.634 -0.05 -0.00    -0.775 OA
ATOM     59  O12 UNL     1      28.139   4.610  -1.973 -0.15 -0.00    -0.247 OA
ATOM     60  O13 UNL     1      27.701   8.406   1.341 -0.04 -0.00    -0.650 OA
ATOM     61  O14 UNL     1      29.693   8.699   2.310 +2.56 -0.00    -0.776 OA
ATOM     62  O15 UNL     1      28.208   8.837  -3.213+11.76 -0.00    -0.648 OA
ATOM     63  O16 UNL     1      26.684   7.887  -1.892+10.80 -0.00    -0.775 OA
ATOM     64  N1  UNL     1       3.083   2.243  -0.758 -0.07 +0.00    +0.079 N 
ATOM     65  N2  UNL     1       9.418   4.626  -1.513 -0.04 -0.00    -0.350 N 
ATOM     66  N3  UNL     1      14.265   6.862   2.953 +3.42 -0.00    -0.360 N 
ATOM     67  N4  UNL     1      15.517   8.608   4.848 +0.26 -0.00    -0.247 NA
ATOM     68  N5  UNL     1      15.258  10.650   6.831+19.65 -0.00    -0.348 N 
ATOM     69  N6  UNL     1      20.165   9.866   6.753+99.99 -0.00    -0.361 N 
ATOM     70  N7  UNL     1      24.145   6.072   1.996 +1.87 -0.00    -0.361 N 
ATOM     71  N8  UNL     1      27.332   4.501   0.168 -0.16 -0.00    -0.329 N 
ATOM     72  N9  UNL     1      28.388   6.370  -0.515 -0.09 -0.00    -0.329 N 
ATOM     73  S1  UNL     1      17.749  10.475   4.481 +1.08 -0.00    -0.096 SA
ATOM     74  H66 UNL     1      13.498   4.764   9.775 +3.75 +0.00    +0.167 HD
ATOM     75  H67 UNL     1      29.772   1.853   0.655 +0.08 +0.00    +0.167 HD
ATOM     76  H68 UNL     1      29.145   8.313   3.027 -0.16 +0.00    +0.167 HD
ATOM     77  H69 UNL     1      26.151   8.453  -2.487+97.49 +0.00    +0.167 HD
ATOM     78  H70 UNL     1       3.424   2.976  -0.136 +0.06 +0.00    +0.315 HD
ATOM     79  H71 UNL     1       9.967   4.628  -2.368 +0.07 +0.00    +0.163 HD
ATOM     80  H72 UNL     1      13.688   7.376   3.621 +0.06 +0.00    +0.162 HD
ATOM     81  H73 UNL     1      16.310   9.001   5.357 +0.31 +0.00    +0.131 HD
ATOM     82  H74 UNL     1      15.945  10.771   6.074 +0.51 +0.00    +0.163 HD
ATOM     83  H75 UNL     1      19.456  10.010   6.018+99.99 +0.00    +0.162 HD
ATOM     84  H76 UNL     1      23.405   6.002   1.309 +0.11 +0.00    +0.162 HD
ATOM     85  H77 UNL     1      27.618   4.808   1.094 +0.12 +0.00    +0.165 HD
ATOM     86  H78 UNL     1      27.729   6.821   0.117 +0.10 +0.00    +0.165 HD
ENDROOT
TORSDOF 44
TER
