USER    Run = 1
USER    DPF = ligand_65_receptor.dpf
USER  
USER    Estimated Free Energy of Binding    =  +89.15 kcal/mol  [=(1)+(2)+(3)-(4)]
USER    
USER    (1) Final Intermolecular Energy     =  +87.96 kcal/mol
USER        vdW + Hbond + desolv Energy     =  +87.96 kcal/mol
USER        Electrostatic Energy            =   +0.00 kcal/mol
USER    (2) Final Total Internal Energy     =  +19.34 kcal/mol
USER    (3) Torsional Free Energy           =   +1.19 kcal/mol
USER    (4) Unbound System's Energy  [=(2)] =  +19.34 kcal/mol
USER    
USER    
USER    NEWDPF move ligand_65.pdbqt
USER    NEWDPF about 0.000000 0.000000 0.000000
USER    NEWDPF tran0 13.571684 8.042988 3.054362
USER    NEWDPF quaternion0 0.444586 0.351005 -0.743444 -0.355569
USER    NEWDPF axisangle0 0.475671 0.375547 -0.795425 -138.343363
USER    NEWDPF quat0 0.475671 0.375547 -0.795425 -138.343363
USER    NEWDPF dihe0 -165.28 -43.93 113.41 153.89 69.62 101.27 179.75 -97.46 -51.03 173.73 19.75 -51.54 -118.59 9.52 39.95 99.41 -59.93 90.27 -125.91 -180.00 -133.29 -68.55 114.41 55.91 176.90 1.26 180.00 52.75 151.38 -132.52 -14.61 -57.94 
USER  keepresnum = 1 
USER  
REMARK  32 active torsions:
REMARK  status: ('A' for Active; 'I' for Inactive)
REMARK       I    between atoms: C2_2  and  N1_65 
REMARK    1  A    between atoms: C3_3  and  N1_65 
REMARK    2  A    between atoms: C5_5  and  C10_10 
REMARK    3  A    between atoms: C6_6  and  O2_54 
REMARK       I    between atoms: C10_10  and  N2_66 
REMARK    4  A    between atoms: C11_11  and  C12_12 
REMARK    5  A    between atoms: C11_11  and  C16_16 
REMARK    6  A    between atoms: C11_11  and  N2_66 
REMARK    7  A    between atoms: C12_12  and  C13_13 
REMARK    8  A    between atoms: C13_13  and  C14_14 
REMARK    9  A    between atoms: C14_14  and  N3_67 
REMARK       I    between atoms: C15_15  and  N4_69 
REMARK       I    between atoms: C15_15  and  N5_70 
REMARK       I    between atoms: C16_16  and  N6_71 
REMARK   10  A    between atoms: C17_17  and  N6_71 
REMARK   11  A    between atoms: C19_19  and  C24_24 
REMARK   12  A    between atoms: C20_20  and  O5_57 
REMARK       I    between atoms: C24_24  and  N7_72 
REMARK   13  A    between atoms: C25_25  and  C26_26 
REMARK   14  A    between atoms: C25_25  and  C30_30 
REMARK   15  A    between atoms: C25_25  and  N7_72 
REMARK   16  A    between atoms: C26_26  and  C27_27 
REMARK   17  A    between atoms: C27_27  and  C28_28 
REMARK   18  A    between atoms: C28_28  and  N8_73 
REMARK       I    between atoms: C29_29  and  N9_75 
REMARK       I    between atoms: C29_29  and  N10_76 
REMARK       I    between atoms: C30_30  and  N11_77 
REMARK   19  A    between atoms: C31_31  and  N11_77 
REMARK   20  A    between atoms: C33_33  and  C38_38 
REMARK   21  A    between atoms: C34_34  and  O8_60 
REMARK       I    between atoms: C38_38  and  N12_78 
REMARK   22  A    between atoms: C39_39  and  C40_40 
REMARK   23  A    between atoms: C39_39  and  C44_44 
REMARK   24  A    between atoms: C39_39  and  N12_78 
REMARK   25  A    between atoms: C40_40  and  C41_41 
REMARK   26  A    between atoms: C41_41  and  C42_42 
REMARK   27  A    between atoms: C42_42  and  N13_79 
REMARK   28  A    between atoms: C43_43  and  N13_79 
REMARK   29  A    between atoms: C43_43  and  N14_80 
REMARK       I    between atoms: C44_44  and  N15_81 
REMARK   30  A    between atoms: C45_45  and  N15_81 
REMARK   31  A    between atoms: C47_47  and  C52_52 
REMARK   32  A    between atoms: C48_48  and  O11_63 
REMARK       I    between atoms: C52_52  and  N16_82 
USER                              x       y       z     vdW  Elec       q    Type
USER                           _______ _______ _______ _____ _____    ______ ____
ROOT
ATOM      1  C25 UNL     1      15.550   8.399   3.171 -0.42 +0.00    +0.177 C 
ENDROOT
BRANCH   1   2
ATOM      2  C26 UNL     1      15.756   9.915   3.030 -0.36 +0.00    +0.036 C 
BRANCH   2   3
ATOM      3  C27 UNL     1      16.237  10.563   4.333 +5.94 +0.00    +0.022 C 
BRANCH   3   4
ATOM      4  C28 UNL     1      17.530  11.355   4.143 +5.36 +0.00    +0.121 C 
BRANCH   4   5
ATOM      5  N8  UNL     1      18.260  10.813   3.000 -0.12 -0.00    -0.372 N 
ATOM      6  C29 UNL     1      18.631  11.625   2.084 -0.55 +0.00    +0.121 C 
ATOM      7  N9  UNL     1      19.296  11.164   1.003 -0.31 -0.00    -0.279 NA
ATOM      8  N10 UNL     1      18.461  12.962   1.984 -0.50 -0.00    -0.279 NA
ATOM      9  H59 UNL     1      19.284  10.149   1.004 +0.10 +0.00    +0.126 HD
ATOM     10  H60 UNL     1      18.913  11.525   0.138 +0.09 +0.00    +0.126 HD
ATOM     11  H61 UNL     1      18.192  13.409   2.850 +0.06 +0.00    +0.126 HD
ATOM     12  H62 UNL     1      19.274  13.417   1.586 -0.00 +0.00    +0.126 HD
ATOM     13  H8  UNL     1      18.467   9.816   2.934 +0.12 +0.00    +0.161 HD
ENDBRANCH   4   5
ENDBRANCH   3   4
ENDBRANCH   2   3
ENDBRANCH   1   2
BRANCH   1  14
ATOM     14  C30 UNL     1      14.824   7.824   1.932 +5.46 +0.00    +0.245 C 
ATOM     15  O7  UNL     1      15.450   7.451   0.945+11.50 -0.00    -0.271 OA
ATOM     16  N11 UNL     1      13.442   7.862   2.064 +4.25 -0.00    -0.325 N 
ATOM     17  H63 UNL     1      13.105   8.306   2.911 -0.25 +0.00    +0.169 HD
BRANCH  16  18
ATOM     18  C31 UNL     1      12.468   7.410   1.154 +3.01 +0.00    +0.035 A 
ATOM     19  C32 UNL     1      11.181   7.007   1.518 -0.25 +0.00    +0.049 A 
ATOM     20  C33 UNL     1      10.253   6.586   0.545 -0.26 +0.00    +0.067 A 
ATOM     21  C34 UNL     1      10.650   6.541  -0.800 -0.27 +0.00    +0.084 A 
ATOM     22  C35 UNL     1      11.927   6.966  -1.171 -0.24 +0.00    +0.040 A 
ATOM     23  C36 UNL     1      12.830   7.393  -0.198 +1.65 +0.00    +0.032 A 
BRANCH  20  24
ATOM     24  C38 UNL     1       8.892   6.198   1.020 -0.14 +0.00    +0.255 C 
ATOM     25  O9  UNL     1       7.936   6.205   0.249 -0.14 -0.00    -0.268 OA
ATOM     26  N12 UNL     1       8.767   5.822   2.341 -0.05 -0.00    -0.344 N 
ATOM     27  H64 UNL     1       9.534   6.098   2.951 +0.09 +0.00    +0.163 HD
BRANCH  26  28
ATOM     28  C39 UNL     1       7.450   5.703   2.953 -0.15 +0.00    +0.177 C 
BRANCH  28  29
ATOM     29  C40 UNL     1       6.503   6.805   2.447 -0.31 +0.00    +0.036 C 
BRANCH  29  30
ATOM     30  C41 UNL     1       7.092   8.228   2.455 +0.02 +0.00    +0.033 C 
BRANCH  30  31
ATOM     31  C42 UNL     1       7.086   8.857   1.054 +8.56 +0.00    +0.272 C 
BRANCH  31  32
ATOM     32  N13 UNL     1       6.472   7.994   0.040 -0.41 +0.00    +0.111 N 
ATOM     33  H65 UNL     1       7.190   7.372  -0.334 +0.08 +0.00    +0.318 HD
BRANCH  32  34
ATOM     34  C43 UNL     1       5.396   7.189   0.564 +3.07 +0.00    +0.534 C 
BRANCH  34  35
ATOM     35  N14 UNL     1       5.141   6.208  -0.465 +0.15 +0.00    +0.106 N 
ATOM     36  H66 UNL     1       5.161   5.303   0.010 +0.07 +0.00    +0.315 HD
ATOM     37  H67 UNL     1       5.980   6.176  -1.043 -0.30 +0.00    +0.315 HD
ENDBRANCH  34  35
ENDBRANCH  32  34
ENDBRANCH  31  32
ENDBRANCH  30  31
ENDBRANCH  29  30
ENDBRANCH  28  29
BRANCH  28  38
ATOM     38  C44 UNL     1       6.889   4.289   2.675 -0.08 +0.00    +0.245 C 
ATOM     39  O10 UNL     1       7.138   3.348   3.426 -0.15 -0.00    -0.271 OA
ATOM     40  N15 UNL     1       6.194   4.207   1.479 -0.01 -0.00    -0.325 N 
ATOM     41  H68 UNL     1       5.916   5.084   1.055 +0.06 +0.00    +0.169 HD
BRANCH  40  42
ATOM     42  C45 UNL     1       5.755   3.034   0.828 -0.09 +0.00    +0.035 A 
ATOM     43  C46 UNL     1       5.816   2.838  -0.555 -0.08 +0.00    +0.049 A 
ATOM     44  C47 UNL     1       5.312   1.664  -1.139 -0.10 +0.00    +0.067 A 
ATOM     45  C48 UNL     1       4.772   0.665  -0.322 +0.05 +0.00    +0.084 A 
ATOM     46  C49 UNL     1       4.694   0.859   1.059 +0.14 +0.00    +0.040 A 
ATOM     47  C50 UNL     1       5.187   2.035   1.629 -0.16 +0.00    +0.032 A 
BRANCH  44  48
ATOM     48  C52 UNL     1       5.391   1.494  -2.612 -0.05 +0.00    +0.252 C 
ATOM     49  O12 UNL     1       5.132   2.401  -3.393 -0.05 -0.00    -0.268 OA
ATOM     50  N16 UNL     1       5.762   0.258  -3.066 -0.05 -0.00    -0.366 N 
ATOM     51  H69 UNL     1       6.200  -0.443  -2.465 +0.04 +0.00    +0.159 HD
ATOM     52  H70 UNL     1       5.940   0.175  -4.058 +0.04 +0.00    +0.159 HD
ENDBRANCH  44  48
BRANCH  45  53
ATOM     53  O11 UNL     1       4.204  -0.464  -0.846 +6.70 -0.00    -0.355 OA
ATOM     54  C51 UNL     1       3.036  -0.130  -1.600 +0.51 +0.00    +0.210 C 
ENDBRANCH  45  53
ENDBRANCH  40  42
ENDBRANCH  28  38
ENDBRANCH  26  28
ENDBRANCH  20  24
BRANCH  21  55
ATOM     55  O8  UNL     1       9.789   6.137  -1.789 -0.09 -0.00    -0.355 OA
ATOM     56  C37 UNL     1      10.513   5.479  -2.838 -0.17 +0.00    +0.210 C 
ENDBRANCH  21  55
ENDBRANCH  16  18
ENDBRANCH   1  14
BRANCH   1  57
ATOM     57  N7  UNL     1      14.726   8.073   4.342 -0.25 -0.00    -0.344 N 
ATOM     58  C24 UNL     1      15.091   7.129   5.271 -0.02 +0.00    +0.255 C 
ATOM     59  O6  UNL     1      16.206   6.615   5.285 +1.63 -0.00    -0.268 OA
ATOM     60  H58 UNL     1      13.728   8.262   4.282 +0.09 +0.00    +0.163 HD
BRANCH  58  61
ATOM     61  C19 UNL     1      14.066   6.732   6.294 -0.40 +0.00    +0.067 A 
ATOM     62  C18 UNL     1      12.780   6.454   5.793 -0.38 +0.00    +0.049 A 
ATOM     63  C17 UNL     1      11.746   6.023   6.628 -0.34 +0.00    +0.035 A 
ATOM     64  C22 UNL     1      11.999   5.891   7.989 -0.34 +0.00    +0.032 A 
ATOM     65  C21 UNL     1      13.266   6.186   8.510 -0.54 +0.00    +0.040 A 
ATOM     66  C20 UNL     1      14.309   6.612   7.677 -0.35 +0.00    +0.084 A 
BRANCH  63  67
ATOM     67  N6  UNL     1      10.513   5.740   6.021 -0.10 -0.00    -0.325 N 
ATOM     68  C16 UNL     1       9.245   6.138   6.412 +0.46 +0.00    +0.245 C 
ATOM     69  O4  UNL     1       8.990   6.885   7.354 +4.17 -0.00    -0.271 OA
ATOM     70  H57 UNL     1      10.530   5.121   5.215 +0.11 +0.00    +0.169 HD
BRANCH  68  71
ATOM     71  C11 UNL     1       8.130   5.605   5.470 -0.09 +0.00    +0.177 C 
BRANCH  71  72
ATOM     72  C12 UNL     1       6.866   5.289   6.278 -0.39 +0.00    +0.036 C 
BRANCH  72  73
ATOM     73  C13 UNL     1       7.074   5.450   7.789 -0.22 +0.00    +0.022 C 
BRANCH  73  74
ATOM     74  C14 UNL     1       7.667   4.198   8.433 +1.57 +0.00    +0.121 C 
BRANCH  74  75
ATOM     75  N3  UNL     1       8.531   3.509   7.481 -0.28 -0.00    -0.372 N 
ATOM     76  C15 UNL     1       9.770   3.332   7.730 -0.48 +0.00    +0.121 C 
ATOM     77  N4  UNL     1      10.534   2.653   6.846 +0.11 -0.00    -0.279 NA
ATOM     78  N5  UNL     1      10.526   3.718   8.781 +1.22 -0.00    -0.279 NA
ATOM     79  H53 UNL     1       9.935   2.228   6.144 +0.10 +0.00    +0.126 HD
ATOM     80  H54 UNL     1      11.095   1.942   7.300 +0.29 +0.00    +0.126 HD
ATOM     81  H55 UNL     1      10.119   4.455   9.341 +0.21 +0.00    +0.126 HD
ATOM     82  H56 UNL     1      11.465   3.972   8.498 +0.09 +0.00    +0.126 HD
ATOM     83  H3  UNL     1       8.140   3.165   6.604 -0.11 +0.00    +0.161 HD
ENDBRANCH  74  75
ENDBRANCH  73  74
ENDBRANCH  72  73
ENDBRANCH  71  72
BRANCH  71  84
ATOM     84  N2  UNL     1       8.586   4.427   4.729 -0.10 -0.00    -0.344 N 
ATOM     85  C10 UNL     1       9.735   4.415   3.974 -0.18 +0.00    +0.255 C 
ATOM     86  O3  UNL     1      10.423   5.413   3.788 -0.17 -0.00    -0.268 OA
ATOM     87  H52 UNL     1       8.078   3.554   4.851 +0.03 +0.00    +0.163 HD
BRANCH  85  88
ATOM     88  C5  UNL     1      10.123   3.114   3.358 +1.86 +0.00    +0.067 A 
ATOM     89  C4  UNL     1       9.487   2.784   2.148 +1.07 +0.00    +0.049 A 
ATOM     90  C3  UNL     1       9.779   1.592   1.482 +0.19 +0.00    +0.035 A 
ATOM     91  C8  UNL     1      10.723   0.731   2.040 +0.42 +0.00    +0.032 A 
ATOM     92  C7  UNL     1      11.375   1.059   3.237 +4.87 +0.00    +0.040 A 
ATOM     93  C6  UNL     1      11.093   2.255   3.905 +1.56 +0.00    +0.084 A 
BRANCH  90  94
ATOM     94  N1  UNL     1       9.091   1.338   0.277 -0.11 -0.00    -0.327 N 
ATOM     95  C2  UNL     1       9.402   1.808  -0.985 -0.12 +0.00    +0.218 C 
ATOM     96  C1  UNL     1       8.418   1.338  -2.028 -0.12 +0.00    +0.117 C 
ATOM     97  O1  UNL     1      10.337   2.541  -1.289 -0.18 -0.00    -0.274 OA
ATOM     98  H51 UNL     1       8.269   0.751   0.353 +0.08 +0.00    +0.169 HD
ENDBRANCH  90  94
BRANCH  93  99
ATOM     99  O2  UNL     1      11.712   2.647   5.064 +0.04 -0.00    -0.355 OA
ATOM    100  C9  UNL     1      12.374   3.910   5.057 +2.19 +0.00    +0.210 C 
ENDBRANCH  93  99
ENDBRANCH  85  88
ENDBRANCH  71  84
ENDBRANCH  68  71
ENDBRANCH  63  67
BRANCH  66 101
ATOM    101  O5  UNL     1      15.567   6.907   8.141 +2.78 -0.00    -0.355 OA
ATOM    102  C23 UNL     1      16.677   6.562   7.316+17.05 +0.00    +0.210 C 
ENDBRANCH  66 101
ENDBRANCH  58  61
ENDBRANCH   1  57
TORSDOF 32
TER
