USER    Run = 1
USER    DPF = ligand_305_receptor.dpf
USER  
USER    Estimated Free Energy of Binding    =  -12.08 kcal/mol  [=(1)+(2)+(3)-(4)]
USER    Estimated Inhibition Constant, Ki   =    1.40 nM (nanomolar)  [Temperature = 298.15 K]
USER    
USER    (1) Final Intermolecular Energy     =  -13.27 kcal/mol
USER        vdW + Hbond + desolv Energy     =  -13.27 kcal/mol
USER        Electrostatic Energy            =   +0.00 kcal/mol
USER    (2) Final Total Internal Energy     =   -2.89 kcal/mol
USER    (3) Torsional Free Energy           =   +1.19 kcal/mol
USER    (4) Unbound System's Energy  [=(2)] =   -2.89 kcal/mol
USER    
USER    
USER    NEWDPF move ligand_305.pdbqt
USER    NEWDPF about 0.000000 0.000000 0.000000
USER    NEWDPF tran0 14.589169 7.503620 1.337346
USER    NEWDPF quaternion0 0.294616 0.251524 0.358157 -0.849506
USER    NEWDPF axisangle0 0.558431 0.476751 0.678869 -63.684088
USER    NEWDPF quat0 0.558431 0.476751 0.678869 -63.684088
USER    NEWDPF dihe0 180.00 140.40 -82.77 88.16 137.18 -138.13 -27.39 -37.50 53.34 153.14 -29.18 153.14 129.90 -55.02 -54.70 
USER  keepresnum = 1 
USER  
REMARK  15 active torsions:
REMARK  status: ('A' for Active; 'I' for Inactive)
REMARK    1  A    between atoms: C3_3  and  N2_33 
REMARK    2  A    between atoms: C4_4  and  C5_5 
REMARK       I    between atoms: C4_4  and  N2_33 
REMARK    3  A    between atoms: C7_7  and  N3_34 
REMARK    4  A    between atoms: C8_8  and  C9_9 
REMARK       I    between atoms: C8_8  and  N3_34 
REMARK    5  A    between atoms: C11_11  and  N4_35 
REMARK    6  A    between atoms: C12_12  and  C13_13 
REMARK       I    between atoms: C12_12  and  N4_35 
REMARK    7  A    between atoms: C14_14  and  N6_38 
REMARK    8  A    between atoms: C15_15  and  C16_16 
REMARK    9  A    between atoms: C15_15  and  N6_38 
REMARK   10  A    between atoms: C16_16  and  N7_39 
REMARK   11  A    between atoms: C27_27  and  C28_28 
REMARK       I    between atoms: C28_28  and  N10_42 
REMARK   12  A    between atoms: C29_29  and  C30_30 
REMARK   13  A    between atoms: C29_29  and  N10_42 
REMARK   14  A    between atoms: C30_30  and  C31_31 
REMARK   15  A    between atoms: C31_31  and  O6_48 
USER                              x       y       z     vdW  Elec       q    Type
USER                           _______ _______ _______ _____ _____    ______ ____
ROOT
ATOM      1  C8  UNL     1      14.458   8.528   3.851 -0.29 +0.00    +0.273 C 
ATOM      2  N3  UNL     1      15.248   8.530   2.715 -0.21 -0.00    -0.320 N 
ATOM      3  O2  UNL     1      14.630   9.269   4.815 +0.12 -0.00    -0.266 OA
ATOM      4  H35 UNL     1      14.974   7.942   1.941 -0.37 +0.00    +0.169 HD
ENDROOT
BRANCH   1   5
ATOM      5  C9  UNL     1      13.357   7.568   3.803 -0.38 +0.00    +0.105 A 
ATOM      6  C10 UNL     1      12.540   7.192   2.740 -0.33 +0.00    +0.066 A 
ATOM      7  C11 UNL     1      11.614   6.218   3.189 -0.25 +0.00    +0.053 A 
ATOM      8  C22 UNL     1      11.882   6.007   4.517 -0.22 +0.00    +0.120 A 
ATOM      9  N8  UNL     1      12.936   6.807   4.881 -0.17 -0.00    -0.354 N 
ATOM     10  C23 UNL     1      13.493   6.842   6.219 -0.40 +0.00    +0.156 C 
BRANCH   7  11
ATOM     11  N4  UNL     1      10.650   5.620   2.407 -0.03 -0.00    -0.320 N 
ATOM     12  C12 UNL     1       9.740   6.261   1.582 -0.16 +0.00    +0.275 C 
ATOM     13  O3  UNL     1       9.658   7.474   1.420 -0.22 -0.00    -0.266 OA
ATOM     14  H36 UNL     1      10.584   4.607   2.429 -0.49 +0.00    +0.169 HD
BRANCH  12  15
ATOM     15  C13 UNL     1       8.845   5.303   0.894 -0.10 +0.00    +0.131 A 
ATOM     16  C21 UNL     1       7.497   5.546   0.446 -0.13 +0.00    +0.096 A 
ATOM     17  C14 UNL     1       6.940   4.421  -0.149 -0.09 +0.00    +0.091 A 
ATOM     18 CL1  UNL     1       6.648   7.029   0.631 -0.54 -0.00    -0.079 Cl
ATOM     19  S1  UNL     1       8.140   3.194  -0.132 -0.19 -0.00    -0.000 SA
ATOM     20  N5  UNL     1       9.304   4.064   0.646 +0.02 -0.00    -0.319 N 
ATOM     21  H5  UNL     1      10.230   3.717   0.899 -0.44 +0.00    +0.174 HD
BRANCH  17  22
ATOM     22  N6  UNL     1       5.689   4.311  -0.696 -0.08 -0.00    -0.283 NA
ATOM     23  H37 UNL     1       5.423   5.108  -1.287 -0.50 +0.00    +0.128 HD
BRANCH  22  24
ATOM     24  C15 UNL     1       4.535   3.960   0.140 -0.14 +0.00    +0.123 C 
BRANCH  24  25
ATOM     25  C16 UNL     1       4.332   5.024   1.243 -0.07 +0.00    +0.287 C 
BRANCH  25  26
ATOM     26  N7  UNL     1       5.085   4.727   2.483 -0.12 +0.00    +0.093 N 
ATOM     27  C17 UNL     1       5.249   3.265   2.645 -0.06 +0.00    +0.298 C 
ATOM     28  C18 UNL     1       5.975   2.920   3.954 -0.18 +0.00    +0.198 C 
ATOM     29  O4  UNL     1       5.267   3.444   5.087 -0.14 -0.00    -0.388 OA
ATOM     30  C19 UNL     1       5.149   4.868   4.972 -0.18 +0.00    +0.198 C 
ATOM     31  C20 UNL     1       4.406   5.262   3.685 -0.10 +0.00    +0.298 C 
ENDBRANCH  25  26
ENDBRANCH  24  25
ENDBRANCH  22  24
ENDBRANCH  17  22
ENDBRANCH  12  15
ENDBRANCH   7  11
ENDBRANCH   1   5
BRANCH   2  32
ATOM     32  C7  UNL     1      16.372   9.306   2.505 -0.44 +0.00    +0.053 A 
ATOM     33  C6  UNL     1      17.638   8.808   2.110 -0.40 +0.00    +0.066 A 
ATOM     34  C5  UNL     1      18.511   9.878   1.971 -0.36 +0.00    +0.105 A 
ATOM     35  N9  UNL     1      17.812  11.001   2.366 -0.18 -0.00    -0.354 N 
ATOM     36  C24 UNL     1      16.511  10.665   2.642 -0.36 +0.00    +0.120 A 
ATOM     37  C25 UNL     1      18.357  12.328   2.564 -0.44 +0.00    +0.156 C 
BRANCH  34  38
ATOM     38  C4  UNL     1      19.903   9.812   1.558 -0.07 +0.00    +0.273 C 
ATOM     39  N2  UNL     1      20.728   9.305   2.545 -0.18 -0.00    -0.320 N 
ATOM     40  H34 UNL     1      20.326   9.165   3.461 +0.11 +0.00    +0.169 HD
ATOM     41  O1  UNL     1      20.267  10.223   0.462 -0.34 -0.00    -0.266 OA
BRANCH  39  42
ATOM     42  C3  UNL     1      22.084   9.073   2.427 -0.38 +0.00    +0.053 A 
ATOM     43  C2  UNL     1      23.047   9.157   3.400 -0.39 +0.00    +0.120 A 
ATOM     44  N1  UNL     1      24.262   8.863   2.836 -0.21 -0.00    -0.354 N 
ATOM     45  C1  UNL     1      25.510   8.855   3.573 -0.51 +0.00    +0.156 C 
ATOM     46  C27 UNL     1      24.110   8.570   1.491 -0.36 +0.00    +0.104 A 
ATOM     47  C26 UNL     1      22.750   8.712   1.229 -0.36 +0.00    +0.066 A 
BRANCH  46  48
ATOM     48  C28 UNL     1      25.204   8.213   0.600 -0.24 +0.00    +0.268 C 
ATOM     49  N10 UNL     1      24.989   7.088  -0.167 -0.15 -0.00    -0.356 N 
ATOM     50  H38 UNL     1      24.155   6.542  -0.016 +0.12 +0.00    +0.162 HD
ATOM     51  O5  UNL     1      26.257   8.841   0.535 -0.20 -0.00    -0.266 OA
BRANCH  49  52
ATOM     52  C29 UNL     1      25.988   6.581  -1.086 -0.37 +0.00    +0.125 C 
BRANCH  52  53
ATOM     53  C30 UNL     1      25.703   5.158  -1.560 -0.49 +0.00    +0.046 C 
BRANCH  53  54
ATOM     54  C31 UNL     1      24.731   4.422  -0.649 -0.42 +0.00    +0.165 C 
BRANCH  54  55
ATOM     55  O6  UNL     1      25.072   4.657   0.712 -0.34 -0.00    -0.401 OA
ATOM     56  H39 UNL     1      25.261   3.793   1.119 +0.15 +0.00    +0.209 HD
ENDBRANCH  54  55
ENDBRANCH  53  54
ENDBRANCH  52  53
ENDBRANCH  49  52
ENDBRANCH  46  48
ENDBRANCH  39  42
ENDBRANCH  34  38
ENDBRANCH   2  32
TORSDOF 15
TER
