USER    Run = 1
USER    DPF = ligand_363_receptor.dpf
USER  
USER    Estimated Free Energy of Binding    =  +2.06e+003 kcal/mol  [=(1)+(2)+(3)-(4)]
USER    
USER    (1) Final Intermolecular Energy     =  +2.06e+003 kcal/mol
USER        vdW + Hbond + desolv Energy     =  +2.06e+003 kcal/mol
USER        Electrostatic Energy            =   +0.00 kcal/mol
USER    (2) Final Total Internal Energy     =   +0.00 kcal/mol
USER    (3) Torsional Free Energy           =   +1.19 kcal/mol
USER    (4) Unbound System's Energy  [=(2)] =   +0.00 kcal/mol
USER    
USER    
USER    NEWDPF move ligand_363.pdbqt
USER    NEWDPF about 0.000000 0.000000 0.000000
USER    NEWDPF tran0 14.691488 7.184373 3.112473
USER    NEWDPF quaternion0 -0.248029 -0.019541 -0.148190 0.957152
USER    NEWDPF axisangle0 -0.856493 -0.067481 -0.511728 33.666419
USER    NEWDPF quat0 -0.856493 -0.067481 -0.511728 33.666419
USER  keepresnum = 1 
USER  
REMARK  0 active torsions:
REMARK  status: ('A' for Active; 'I' for Inactive)
REMARK       I    between atoms: C2_2  and  C4_4 
REMARK       I    between atoms: C4_4  and  C5_5 
REMARK       I    between atoms: C5_5  and  C6_6 
REMARK       I    between atoms: C5_5  and  N15_81 
REMARK       I    between atoms: C6_6  and  N1_65 
REMARK       I    between atoms: C7_7  and  C8_8 
REMARK       I    between atoms: C7_7  and  C12_12 
REMARK       I    between atoms: C7_7  and  N1_65 
REMARK       I    between atoms: C8_8  and  C9_9 
REMARK       I    between atoms: C12_12  and  N2_66 
REMARK       I    between atoms: C13_13  and  C14_14 
REMARK       I    between atoms: C13_13  and  C23_23 
REMARK       I    between atoms: C13_13  and  N2_66 
REMARK       I    between atoms: C14_14  and  C15_15 
REMARK       I    between atoms: C23_23  and  N4_68 
REMARK       I    between atoms: C24_24  and  C25_25 
REMARK       I    between atoms: C24_24  and  C29_29 
REMARK       I    between atoms: C24_24  and  N4_68 
REMARK       I    between atoms: C25_25  and  C26_26 
REMARK       I    between atoms: C29_29  and  N5_69 
REMARK       I    between atoms: C30_30  and  C31_31 
REMARK       I    between atoms: C30_30  and  C35_35 
REMARK       I    between atoms: C30_30  and  N5_69 
REMARK       I    between atoms: C31_31  and  C32_32 
REMARK       I    between atoms: C32_32  and  C33_33 
REMARK       I    between atoms: C33_33  and  N6_70 
REMARK       I    between atoms: C34_34  and  N7_72 
REMARK       I    between atoms: C34_34  and  N8_73 
REMARK       I    between atoms: C35_35  and  N9_74 
REMARK       I    between atoms: C36_36  and  C37_37 
REMARK       I    between atoms: C36_36  and  C40_40 
REMARK       I    between atoms: C36_36  and  N9_74 
REMARK       I    between atoms: C40_40  and  N10_75 
REMARK       I    between atoms: C41_41  and  C42_42 
REMARK       I    between atoms: C41_41  and  C46_46 
REMARK       I    between atoms: C41_41  and  N10_75 
REMARK       I    between atoms: C42_42  and  C43_43 
REMARK       I    between atoms: C43_43  and  C44_44 
REMARK       I    between atoms: C44_44  and  C45_45 
REMARK       I    between atoms: C45_45  and  N11_76 
REMARK       I    between atoms: C46_46  and  N12_77 
REMARK       I    between atoms: C47_47  and  C48_48 
REMARK       I    between atoms: C47_47  and  N12_77 
REMARK       I    between atoms: C51_51  and  C54_54 
REMARK       I    between atoms: C54_54  and  N14_80 
REMARK       I    between atoms: C55_55  and  N15_81 
USER                              x       y       z     vdW  Elec       q    Type
USER                           _______ _______ _______ _____ _____    ______ ____
ROOT
ATOM      1  C1  UNL     1       3.426   4.789   4.065 -0.16 +0.00    +0.009 C 
ATOM      2  C2  UNL     1       4.213   4.062   2.971 -0.15 -0.00    -0.020 C 
ATOM      3  C3  UNL     1       3.953   2.559   3.063 -0.16 +0.00    +0.009 C 
ATOM      4  C4  UNL     1       5.708   4.426   3.082 -0.16 +0.00    +0.038 C 
ATOM      5  C5  UNL     1       6.581   3.845   1.960 -0.08 +0.00    +0.177 C 
ATOM      6  C6  UNL     1       7.832   4.731   1.757 -0.07 +0.00    +0.241 C 
ATOM      7  C7  UNL     1       8.646   6.867   0.841 -0.24 +0.00    +0.177 C 
ATOM      8  C8  UNL     1       8.594   7.536  -0.541 -0.42 +0.00    +0.038 C 
ATOM      9  C9  UNL     1       9.172   6.724  -1.719 -0.33 -0.00    -0.020 C 
ATOM     10  C10 UNL     1       8.411   5.428  -1.993 +0.16 +0.00    +0.009 C 
ATOM     11  C11 UNL     1      10.666   6.440  -1.553 -0.34 +0.00    +0.009 C 
ATOM     12  C12 UNL     1       8.438   7.947   1.923 +0.28 +0.00    +0.241 C 
ATOM     13  C13 UNL     1       9.698   9.705   3.191+19.64 +0.00    +0.181 C 
ATOM     14  C14 UNL     1       8.999   9.715   4.554+28.59 +0.00    +0.075 C 
ATOM     15  C15 UNL     1       9.640   8.881   5.622+37.12 -0.00    -0.028 A 
ATOM     16  C16 UNL     1      10.621   9.316   6.491 +2.59 +0.00    +0.096 A 
ATOM     17  C17 UNL     1      10.151   7.197   7.069 +5.58 +0.00    +0.042 A 
ATOM     18  C18 UNL     1      10.120   5.940   7.684 +1.19 +0.00    +0.030 A 
ATOM     19  C19 UNL     1       9.244   4.986   7.162 -0.41 +0.00    +0.002 A 
ATOM     20  C20 UNL     1       8.422   5.286   6.079 -0.29 +0.00    +0.001 A 
ATOM     21  C21 UNL     1       8.457   6.552   5.482 +6.86 +0.00    +0.014 A 
ATOM     22  C22 UNL     1       9.344   7.528   5.977+97.78 -0.00    -0.002 A 
ATOM     23  C23 UNL     1      11.188  10.113   3.298+29.75 +0.00    +0.241 C 
ATOM     24  C24 UNL     1      13.521   9.121   3.195 +2.32 +0.00    +0.177 C 
ATOM     25  C25 UNL     1      14.103  10.350   2.479+20.23 +0.00    +0.038 C 
ATOM     26  C26 UNL     1      15.586  10.209   2.066 -0.21 -0.00    -0.020 C 
ATOM     27  C27 UNL     1      15.793   9.127   1.003 +0.12 +0.00    +0.009 C 
ATOM     28  C28 UNL     1      16.103  11.550   1.537 -0.53 +0.00    +0.009 C 
ATOM     29  C29 UNL     1      14.118   8.966   4.611 +0.57 +0.00    +0.241 C 
ATOM     30  C30 UNL     1      15.587   7.514   5.995+33.04 +0.00    +0.176 C 
ATOM     31  C31 UNL     1      14.640   6.812   6.974 +0.82 +0.00    +0.036 C 
ATOM     32  C32 UNL     1      14.052   5.474   6.497 -0.45 +0.00    +0.022 C 
ATOM     33  C33 UNL     1      12.951   5.608   5.446 -0.35 +0.00    +0.121 C 
ATOM     34  C34 UNL     1      12.663   5.539   3.128+19.40 +0.00    +0.121 C 
ATOM     35  C35 UNL     1      16.869   6.691   5.740+27.43 +0.00    +0.241 C 
ATOM     36  C36 UNL     1      18.690   6.317   4.074+99.99 +0.00    +0.180 C 
ATOM     37  C37 UNL     1      18.385   4.911   3.508+99.97 +0.00    +0.009 C 
ATOM     38  C38 UNL     1      17.500   4.947   2.256+24.47 +0.00    +0.012 C 
ATOM     39  C39 UNL     1      19.654   4.103   3.230+99.99 +0.00    +0.012 C 
ATOM     40  C40 UNL     1      19.336   7.269   3.048+29.80 +0.00    +0.241 C 
ATOM     41  C41 UNL     1      21.469   7.934   1.962+45.34 +0.00    +0.176 C 
ATOM     42  C42 UNL     1      21.671   9.385   2.435 -0.48 +0.00    +0.035 C 
ATOM     43  C43 UNL     1      22.406   9.509   3.779 -0.45 +0.00    +0.004 C 
ATOM     44  C44 UNL     1      22.594  10.981   4.171 +0.25 +0.00    +0.030 C 
ATOM     45  C45 UNL     1      23.178  11.170   5.572+63.16 +0.00    +0.267 C 
ATOM     46  C46 UNL     1      22.810   7.208   1.722 +2.34 +0.00    +0.240 C 
ATOM     47  C47 UNL     1      24.984   7.395   0.592 -0.35 +0.00    +0.161 C 
ATOM     48  C48 UNL     1      25.813   8.163   1.592 -0.43 -0.00    -0.040 A 
ATOM     49  C49 UNL     1      25.822   9.567   1.584 -0.25 +0.00    +0.010 A 
ATOM     50  C50 UNL     1      26.518  10.275   2.565 +8.40 +0.00    +0.015 A 
ATOM     51  C51 UNL     1      27.234   9.585   3.548 +2.64 +0.00    +0.002 A 
ATOM     52  C52 UNL     1      27.272   8.190   3.536 +8.02 +0.00    +0.015 A 
ATOM     53  C53 UNL     1      26.555   7.482   2.568 -0.28 +0.00    +0.010 A 
ATOM     54  C54 UNL     1      27.925  10.337   4.630+57.00 +0.00    +0.081 C 
ATOM     55  C55 UNL     1       7.292   1.602   1.262 -0.16 +0.00    +0.214 C 
ATOM     56  C56 UNL     1       7.984   0.342   1.710+12.60 +0.00    +0.117 C 
ATOM     57  O1  UNL     1       8.930   4.464   2.249 -0.11 -0.00    -0.271 OA
ATOM     58  O2  UNL     1       7.323   8.348   2.246 -0.27 -0.00    -0.271 OA
ATOM     59  O3  UNL     1      11.533  11.279   3.448+56.38 -0.00    -0.271 OA
ATOM     60  O4  UNL     1      13.892   9.730   5.543 +5.13 -0.00    -0.271 OA
ATOM     61  O5  UNL     1      17.374   5.942   6.572+99.99 -0.00    -0.271 OA
ATOM     62  O6  UNL     1      18.674   8.071   2.389 +0.88 -0.00    -0.271 OA
ATOM     63  O7  UNL     1      23.148   6.235   2.394+16.32 -0.00    -0.271 OA
ATOM     64  O8  UNL     1       6.989   1.802   0.090 -0.09 -0.00    -0.274 OA
ATOM     65  N1  UNL     1       7.607   5.864   1.004 -0.04 -0.00    -0.346 N 
ATOM     66  N2  UNL     1       9.610   8.448   2.435 +0.78 -0.00    -0.346 N 
ATOM     67  N3  UNL     1      10.911   8.305   7.363 +4.92 -0.00    -0.365 N 
ATOM     68  N4  UNL     1      12.060   9.041   3.205 +1.03 -0.00    -0.346 N 
ATOM     69  N5  UNL     1      14.945   7.864   4.730 -0.23 -0.00    -0.346 N 
ATOM     70  N6  UNL     1      13.512   5.514   4.091 +7.44 -0.00    -0.372 N 
ATOM     71  H6  UNL     1      14.515   5.433   3.925 +1.84 +0.00    +0.161 HD
ATOM     72  N7  UNL     1      13.083   5.372   1.858+18.23 -0.00    -0.279 NA
ATOM     73  N8  UNL     1      11.329   5.765   3.158 -0.10 -0.00    -0.279 NA
ATOM     74  N9  UNL     1      17.474   6.974   4.537 +8.21 -0.00    -0.346 N 
ATOM     75  N10 UNL     1      20.695   7.145   2.910+99.99 -0.00    -0.346 N 
ATOM     76  N11 UNL     1      24.577  10.753   5.667+45.12 +0.00    +0.078 N 
ATOM     77  N12 UNL     1      23.585   7.748   0.719 -0.17 -0.00    -0.355 N 
ATOM     78  N13 UNL     1      29.002   9.856   5.156+99.99 -0.00    -0.389 N 
ATOM     79  H13 UNL     1      29.429   8.964   4.910 +1.60 +0.00    +0.157 HD
ATOM     80  N14 UNL     1      27.393  11.515   5.074+99.99 -0.00    -0.288 NA
ATOM     81  N15 UNL     1       7.046   2.499   2.279 -0.09 -0.00    -0.348 N 
ATOM     82  H72 UNL     1       6.651   6.189   0.906 +0.07 +0.00    +0.163 HD
ATOM     83  H73 UNL     1      10.476   8.131   2.012 +0.12 +0.00    +0.163 HD
ATOM     84  H74 UNL     1      11.594   8.361   8.106 +0.38 +0.00    +0.165 HD
ATOM     85  H75 UNL     1      11.687   8.168   3.577 +0.09 +0.00    +0.163 HD
ATOM     86  H76 UNL     1      14.707   7.057   4.150 +0.04 +0.00    +0.163 HD
ATOM     87  H77 UNL     1      14.093   5.362   1.771+53.45 +0.00    +0.126 HD
ATOM     88  H78 UNL     1      12.626   5.947   1.166 +0.00 +0.00    +0.126 HD
ATOM     89  H79 UNL     1      10.798   5.109   2.576 -0.40 +0.00    +0.126 HD
ATOM     90  H80 UNL     1      10.909   5.720   4.083 +0.06 +0.00    +0.126 HD
ATOM     91  H81 UNL     1      17.038   7.656   3.923 +0.09 +0.00    +0.163 HD
ATOM     92  H82 UNL     1      21.210   6.444   3.439 +0.80 +0.00    +0.163 HD
ATOM     93  H83 UNL     1      24.828  10.722   6.658 +2.21 +0.00    +0.312 HD
ATOM     94  H84 UNL     1      24.658   9.782   5.353 +0.50 +0.00    +0.312 HD
ATOM     95  H85 UNL     1      23.289   8.608   0.281 +0.12 +0.00    +0.162 HD
ATOM     96  H86 UNL     1      29.361  10.506   5.857 +0.67 +0.00    +0.157 HD
ATOM     97  H87 UNL     1      27.710  11.812   5.987+20.39 +0.00    +0.125 HD
ATOM     98  H88 UNL     1      26.364  11.528   5.045+18.34 +0.00    +0.125 HD
ATOM     99  H89 UNL     1       7.659   2.429   3.083 -0.00 +0.00    +0.163 HD
ENDROOT
TORSDOF 36
TER
