USER    Run = 1
USER    DPF = ligand_253_receptor.dpf
USER  
USER    Estimated Free Energy of Binding    =  +2.88e+005 kcal/mol  [=(1)+(2)+(3)-(4)]
USER    
USER    (1) Final Intermolecular Energy     =  +2.88e+005 kcal/mol
USER        vdW + Hbond + desolv Energy     =  +2.88e+005 kcal/mol
USER        Electrostatic Energy            =   +0.00 kcal/mol
USER    (2) Final Total Internal Energy     =   +0.00 kcal/mol
USER    (3) Torsional Free Energy           =   +1.19 kcal/mol
USER    (4) Unbound System's Energy  [=(2)] =   +0.00 kcal/mol
USER    
USER    
USER    NEWDPF move ligand_253.pdbqt
USER    NEWDPF about 0.000000 0.000000 0.000000
USER    NEWDPF tran0 15.075788 6.100301 4.314322
USER    NEWDPF quaternion0 0.168704 -0.871216 -0.457769 0.054493
USER    NEWDPF axisangle0 0.168955 -0.872512 -0.458451 173.752512
USER    NEWDPF quat0 0.168955 -0.872512 -0.458451 173.752512
USER  keepresnum = 1 
USER  
REMARK  0 active torsions:
REMARK  status: ('A' for Active; 'I' for Inactive)
REMARK       I    between atoms: C2_2  and  C3_3 
REMARK       I    between atoms: C2_2  and  N11_96 
REMARK       I    between atoms: C3_3  and  N1_84 
REMARK       I    between atoms: C4_4  and  C5_5 
REMARK       I    between atoms: C4_4  and  C8_8 
REMARK       I    between atoms: C4_4  and  N1_84 
REMARK       I    between atoms: C8_8  and  N2_85 
REMARK       I    between atoms: C9_9  and  C10_10 
REMARK       I    between atoms: C9_9  and  N2_85 
REMARK       I    between atoms: C10_10  and  N3_86 
REMARK       I    between atoms: C11_11  and  N3_86 
REMARK       I    between atoms: C12_12  and  N5_88 
REMARK       I    between atoms: C14_14  and  N4_87 
REMARK       I    between atoms: C17_17  and  C18_18 
REMARK       I    between atoms: C17_17  and  C22_22 
REMARK       I    between atoms: C17_17  and  N3_86 
REMARK       I    between atoms: C18_18  and  C19_19 
REMARK       I    between atoms: C22_22  and  N8_93 
REMARK       I    between atoms: C23_23  and  C24_24 
REMARK       I    between atoms: C23_23  and  C28_28 
REMARK       I    between atoms: C23_23  and  N8_93 
REMARK       I    between atoms: C24_24  and  C25_25 
REMARK       I    between atoms: C28_28  and  N9_94 
REMARK       I    between atoms: C29_29  and  C30_30 
REMARK       I    between atoms: C29_29  and  C33_33 
REMARK       I    between atoms: C29_29  and  N9_94 
REMARK       I    between atoms: C30_30  and  C31_31 
REMARK       I    between atoms: C31_31  and  S1_103 
REMARK       I    between atoms: C33_33  and  N10_95 
REMARK       I    between atoms: C34_34  and  C35_35 
REMARK       I    between atoms: C34_34  and  N11_96 
REMARK       I    between atoms: C35_35  and  C36_36 
REMARK       I    between atoms: C35_35  and  N13_98 
REMARK       I    between atoms: C36_36  and  C37_37 
REMARK       I    between atoms: C45_45  and  C46_46 
REMARK       I    between atoms: C45_45  and  N13_98 
REMARK       I    between atoms: C46_46  and  C47_47 
REMARK       I    between atoms: C46_46  and  N15_100 
REMARK       I    between atoms: C47_47  and  C48_48 
REMARK       I    between atoms: C48_48  and  C49_49 
REMARK       I    between atoms: C49_49  and  N14_99 
REMARK       I    between atoms: C50_50  and  C51_51 
REMARK       I    between atoms: C50_50  and  N15_100 
REMARK       I    between atoms: C51_51  and  C52_52 
REMARK       I    between atoms: C51_51  and  N17_102 
REMARK       I    between atoms: C52_52  and  C53_53 
REMARK       I    between atoms: C56_56  and  N16_101 
REMARK       I    between atoms: C59_59  and  C60_60 
REMARK       I    between atoms: C59_59  and  N16_101 
REMARK       I    between atoms: C61_61  and  C62_62 
REMARK       I    between atoms: C61_61  and  N16_101 
REMARK       I    between atoms: C63_63  and  O16_83 
REMARK       I    between atoms: C63_63  and  N17_102 
REMARK       I    between atoms: C64_64  and  O16_83 
USER                              x       y       z     vdW  Elec       q    Type
USER                           _______ _______ _______ _____ _____    ______ ____
ROOT
ATOM      1  C1  UNL     1      15.521   6.169   2.787+99.99 +0.00    +0.042 C 
ATOM      2  C2  UNL     1      14.738   5.888   4.064+45.32 +0.00    +0.172 C 
ATOM      3  C3  UNL     1      14.361   4.396   4.163+99.99 +0.00    +0.240 C 
ATOM      4  C4  UNL     1      12.907   2.615   3.203+99.99 +0.00    +0.180 C 
ATOM      5  C5  UNL     1      13.882   1.414   3.319+99.99 +0.00    +0.009 C 
ATOM      6  C6  UNL     1      15.134   1.594   2.446+20.46 +0.00    +0.012 C 
ATOM      7  C7  UNL     1      13.209   0.098   2.893+68.32 +0.00    +0.012 C 
ATOM      8  C8  UNL     1      11.741   2.607   4.242 +3.06 +0.00    +0.241 C 
ATOM      9  C9  UNL     1       9.666   3.863   4.705 -0.29 +0.00    +0.225 C 
ATOM     10  C10 UNL     1       9.321   5.086   5.571 -0.21 +0.00    +0.242 C 
ATOM     11  C11 UNL     1       7.564   6.615   6.300+36.79 +0.00    +0.071 A 
ATOM     12  C12 UNL     1       8.193   7.543   7.153+99.99 +0.00    +0.132 A 
ATOM     13  C13 UNL     1       7.496   8.147   8.220+82.14 +0.00    +0.074 A 
ATOM     14  C14 UNL     1       6.154   7.821   8.437 +2.28 +0.00    +0.105 A 
ATOM     15  C15 UNL     1       5.504   6.912   7.599 -0.11 +0.00    +0.038 A 
ATOM     16  C16 UNL     1       6.207   6.318   6.545 +0.56 +0.00    +0.035 A 
ATOM     17  C17 UNL     1       7.627   6.063   3.871 -0.15 +0.00    +0.190 C 
ATOM     18  C18 UNL     1       8.463   6.985   2.970 -0.31 +0.00    +0.094 C 
ATOM     19  C19 UNL     1       9.714   6.390   2.472 -0.31 +0.00    +0.028 C 
ATOM     20  C20 UNL     1      11.039   6.682   2.727 -0.32 +0.00    +0.114 C 
ATOM     21  C21 UNL     1      10.955   5.123   1.216 +6.07 +0.00    +0.180 C 
ATOM     22  C22 UNL     1       7.001   4.780   3.271 -0.10 +0.00    +0.242 C 
ATOM     23  C23 UNL     1       6.580   3.417   1.262 -0.07 +0.00    +0.177 C 
ATOM     24  C24 UNL     1       5.075   3.115   1.427 -0.12 +0.00    +0.038 C 
ATOM     25  C25 UNL     1       4.096   4.304   1.307 -0.13 -0.00    -0.020 C 
ATOM     26  C26 UNL     1       4.132   4.982  -0.060 +0.05 +0.00    +0.009 C 
ATOM     27  C27 UNL     1       2.672   3.821   1.599 +0.14 +0.00    +0.009 C 
ATOM     28  C28 UNL     1       7.004   3.374  -0.226 -0.04 +0.00    +0.241 C 
ATOM     29  C29 UNL     1       7.490   1.829  -2.129 -0.08 +0.00    +0.177 C 
ATOM     30  C30 UNL     1       7.971   0.373  -2.260 -0.19 +0.00    +0.045 C 
ATOM     31  C31 UNL     1       6.895  -0.721  -2.245 -0.02 +0.00    +0.076 C 
ATOM     32  C32 UNL     1       4.349  -0.299  -1.240+10.01 +0.00    +0.089 C 
ATOM     33  C33 UNL     1       6.494   2.210  -3.251 -0.09 +0.00    +0.238 C 
ATOM     34  C34 UNL     1      15.803   7.453   5.693 +9.39 +0.00    +0.241 C 
ATOM     35  C35 UNL     1      16.423   7.531   7.105+99.99 +0.00    +0.181 C 
ATOM     36  C36 UNL     1      15.338   7.759   8.162+99.99 +0.00    +0.075 C 
ATOM     37  C37 UNL     1      14.352   6.638   8.213 -0.51 -0.00    -0.028 A 
ATOM     38  C38 UNL     1      13.132   6.613   7.567 -0.42 +0.00    +0.096 A 
ATOM     39  C39 UNL     1      13.370   4.615   8.562 +0.05 +0.00    +0.042 A 
ATOM     40  C40 UNL     1      13.197   3.300   9.010 +1.22 +0.00    +0.030 A 
ATOM     41  C41 UNL     1      14.207   2.747   9.803+88.91 +0.00    +0.002 A 
ATOM     42  C42 UNL     1      15.343   3.481  10.130+99.99 +0.00    +0.001 A 
ATOM     43  C43 UNL     1      15.505   4.793   9.667+57.75 +0.00    +0.014 A 
ATOM     44  C44 UNL     1      14.499   5.374   8.867 +2.04 -0.00    -0.002 A 
ATOM     45  C45 UNL     1      18.578   8.454   6.401+99.99 +0.00    +0.241 C 
ATOM     46  C46 UNL     1      19.306   9.740   5.934+99.99 +0.00    +0.177 C 
ATOM     47  C47 UNL     1      18.720  10.163   4.572+83.30 +0.00    +0.044 C 
ATOM     48  C48 UNL     1      18.587   9.046   3.522 -0.41 +0.00    +0.113 C 
ATOM     49  C49 UNL     1      19.874   8.319   3.253 +0.98 +0.00    +0.311 C 
ATOM     50  C50 UNL     1      21.470   9.195   6.954 +2.38 +0.00    +0.241 C 
ATOM     51  C51 UNL     1      23.004   9.148   6.793+50.87 +0.00    +0.183 C 
ATOM     52  C52 UNL     1      23.598  10.207   7.744+99.99 +0.00    +0.073 C 
ATOM     53  C53 UNL     1      25.107  10.168   7.802+99.99 -0.00    -0.056 A 
ATOM     54  C54 UNL     1      25.874  11.184   7.234+99.99 +0.00    +0.009 A 
ATOM     55  C55 UNL     1      27.275  11.126   7.270+99.99 +0.00    +0.030 A 
ATOM     56  C56 UNL     1      27.972  10.065   7.871+99.99 +0.00    +0.030 A 
ATOM     57  C57 UNL     1      27.172   9.064   8.447+99.99 +0.00    +0.030 A 
ATOM     58  C58 UNL     1      25.771   9.107   8.418+99.99 +0.00    +0.009 A 
ATOM     59  C59 UNL     1      30.198  11.180   7.553+34.54 +0.00    +0.138 C 
ATOM     60  C60 UNL     1      30.135  12.286   8.610 +0.47 +0.00    +0.134 C 
ATOM     61  C61 UNL     1      30.065   8.722   8.061+99.99 +0.00    +0.138 C 
ATOM     62  C62 UNL     1      30.464   8.420   9.509+33.46 +0.00    +0.134 C 
ATOM     63  C63 UNL     1      23.436   8.310   4.522 +5.34 +0.00    +0.362 C 
ATOM     64  C64 UNL     1      24.765   7.489   2.637 +0.16 +0.00    +0.061 C 
ATOM     65  C65 UNL     1      23.618   7.281   1.645 -0.26 +0.00    +0.046 C 
ATOM     66  C66 UNL     1      25.187   6.175   3.302+23.05 +0.00    +0.046 C 
ATOM     67  C67 UNL     1      25.971   8.071   1.884 -0.52 +0.00    +0.046 C 
ATOM     68  O1  UNL     1      14.796   3.686   5.071+99.99 -0.00    -0.271 OA
ATOM     69  O2  UNL     1      11.345   1.593   4.813 +8.84 -0.00    -0.271 OA
ATOM     70  O3  UNL     1       9.962   5.279   6.617 -0.20 -0.00    -0.271 OA
ATOM     71  O4  UNL     1       4.256   8.073   9.748+99.99 -0.00    -0.532 OA
ATOM     72  O5  UNL     1       6.001   9.329  10.192+16.12 -0.00    -0.532 OA
ATOM     73  O6  UNL     1       9.874   8.258   5.731 +2.84 -0.00    -0.532 OA
ATOM     74  O7  UNL     1      10.236   8.313   7.895+99.99 -0.00    -0.532 OA
ATOM     75  O8  UNL     1       6.435   3.964   4.004 -0.12 -0.00    -0.271 OA
ATOM     76  O9  UNL     1       7.258   4.367  -0.905 -0.08 -0.00    -0.271 OA
ATOM     77  O10 UNL     1       6.368   1.581  -4.300 -0.22 -0.00    -0.271 OA
ATOM     78  O11 UNL     1      15.636   8.460   5.003 +0.28 -0.00    -0.271 OA
ATOM     79  O12 UNL     1      18.984   7.342   6.044+99.99 -0.00    -0.271 OA
ATOM     80  O13 UNL     1      20.804   8.776   2.613 +0.01 -0.00    -0.266 OA
ATOM     81  O14 UNL     1      20.922   8.992   8.034 -0.07 -0.00    -0.271 OA
ATOM     82  O15 UNL     1      22.639   7.380   4.550+99.99 -0.00    -0.238 OA
ATOM     83  O16 UNL     1      24.432   8.491   3.634 -0.43 -0.00    -0.294 OA
ATOM     84  N1  UNL     1      13.545   3.935   3.163+99.99 -0.00    -0.346 N 
ATOM     85  N2  UNL     1      11.063   3.809   4.326 -0.08 -0.00    -0.351 N 
ATOM     86  N3  UNL     1       8.198   5.861   5.252 -0.03 -0.00    -0.300 N 
ATOM     87  N4  UNL     1       5.418   8.451   9.540+99.99 -0.00    -0.116 N 
ATOM     88  N5  UNL     1       9.544   8.040   6.904+36.67 -0.00    -0.113 N 
ATOM     89  N6  UNL     1      11.791   5.759   2.071 +0.30 -0.00    -0.360 N 
ATOM     90  H6  UNL     1      12.787   5.582   2.198 +0.05 +0.00    +0.166 HD
ATOM     91  N7  UNL     1       9.687   5.363   1.592 -0.03 -0.00    -0.354 N 
ATOM     92  H7  UNL     1       8.857   4.863   1.273 +0.06 +0.00    +0.166 HD
ATOM     93  N8  UNL     1       7.027   4.647   1.903 -0.00 -0.00    -0.346 N 
ATOM     94  N9  UNL     1       7.007   2.111  -0.780 +0.00 -0.00    -0.346 N 
ATOM     95  N10 UNL     1       5.829   3.391  -3.087 -0.05 -0.00    -0.368 N 
ATOM     96  N11 UNL     1      15.533   6.180   5.261 +6.13 -0.00    -0.346 N 
ATOM     97  N12 UNL     1      12.549   5.392   7.778 -0.18 -0.00    -0.365 N 
ATOM     98  N13 UNL     1      17.380   8.647   7.046+99.99 -0.00    -0.346 N 
ATOM     99  N14 UNL     1      20.140   7.022   3.799 +5.66 -0.00    -0.017 N 
ATOM    100  N15 UNL     1      20.747   9.498   5.811+99.99 -0.00    -0.346 N 
ATOM    101  N16 UNL     1      29.363  10.015   7.915+99.99 -0.00    -0.379 N 
ATOM    102  N17 UNL     1      23.463   9.346   5.411 +0.03 -0.00    -0.323 N 
ATOM    103  S1  UNL     1       5.980  -0.847  -0.670+43.56 -0.00    -0.173 SA
ATOM    104 CL1  UNL     1      31.131  13.680   8.112 -0.38 -0.00    -0.129 Cl
ATOM    105 CL2  UNL     1      31.916   9.327  10.009+99.99 -0.00    -0.129 Cl
ATOM    106  H78 UNL     1      13.015   4.665   2.651+99.99 +0.00    +0.163 HD
ATOM    107  H79 UNL     1      11.320   4.492   3.610 -0.34 +0.00    +0.163 HD
ATOM    108  H80 UNL     1       7.909   5.009   1.489 +0.07 +0.00    +0.163 HD
ATOM    109  H81 UNL     1       6.738   1.317  -0.205 +0.06 +0.00    +0.163 HD
ATOM    110  H82 UNL     1       6.229   4.076  -2.443 -0.14 +0.00    +0.159 HD
ATOM    111  H83 UNL     1       5.336   3.753  -3.891 +0.03 +0.00    +0.159 HD
ATOM    112  H84 UNL     1      15.460   5.447   5.970 +0.98 +0.00    +0.163 HD
ATOM    113  H85 UNL     1      11.649   5.103   7.401 +0.13 +0.00    +0.165 HD
ATOM    114  H86 UNL     1      16.950   9.564   6.968+99.99 +0.00    +0.163 HD
ATOM    115  H87 UNL     1      19.909   6.281   3.144 +7.10 +0.00    +0.284 HD
ATOM    116  H88 UNL     1      21.149   7.002   4.020 +5.19 +0.00    +0.284 HD
ATOM    117  H89 UNL     1      19.648   6.893   4.700 +0.34 +0.00    +0.284 HD
ATOM    118  H90 UNL     1      21.284  10.058   5.151 +6.27 +0.00    +0.163 HD
ATOM    119  H91 UNL     1      24.332   9.860   5.301 +0.10 +0.00    +0.165 HD
ENDROOT
TORSDOF 43
TER
