USER    Run = 1
USER    DPF = ligand_529_receptor.dpf
USER  
USER    Estimated Free Energy of Binding    =  +22.60 kcal/mol  [=(1)+(2)+(3)-(4)]
USER    
USER    (1) Final Intermolecular Energy     =  +21.40 kcal/mol
USER        vdW + Hbond + desolv Energy     =  +21.40 kcal/mol
USER        Electrostatic Energy            =   +0.00 kcal/mol
USER    (2) Final Total Internal Energy     =  +15.17 kcal/mol
USER    (3) Torsional Free Energy           =   +1.19 kcal/mol
USER    (4) Unbound System's Energy  [=(2)] =  +15.17 kcal/mol
USER    
USER    
USER    NEWDPF move ligand_529.pdbqt
USER    NEWDPF about 0.000000 0.000000 0.000000
USER    NEWDPF tran0 21.250112 7.724041 2.744852
USER    NEWDPF quaternion0 0.015723 -0.260287 -0.957050 0.126725
USER    NEWDPF axisangle0 0.015851 -0.262403 -0.964828 165.439259
USER    NEWDPF quat0 0.015851 -0.262403 -0.964828 165.439259
USER    NEWDPF dihe0 166.04 62.66 100.66 101.91 171.88 52.19 168.94 -6.53 82.23 -140.36 -180.00 42.13 107.91 -157.48 -162.14 76.29 -133.41 180.00 -20.21 169.24 -180.00 -51.44 147.71 63.51 -180.00 -23.28 
USER  keepresnum = 1 
USER  
REMARK  26 active torsions:
REMARK  status: ('A' for Active; 'I' for Inactive)
REMARK    1  A    between atoms: C3_3  and  C5_5 
REMARK    2  A    between atoms: C5_5  and  C6_6 
REMARK    3  A    between atoms: C6_6  and  N3_53 
REMARK    4  A    between atoms: C7_7  and  N3_53 
REMARK    5  A    between atoms: C10_10  and  N6_58 
REMARK    6  A    between atoms: C11_11  and  N6_58 
REMARK    7  A    between atoms: C14_14  and  N7_59 
REMARK       I    between atoms: C17_17  and  N7_59 
REMARK       I    between atoms: C17_17  and  N8_60 
REMARK    8  A    between atoms: C18_18  and  N8_60 
REMARK    9  A    between atoms: C21_21  and  N9_61 
REMARK   10  A    between atoms: C24_24  and  N9_61 
REMARK   11  A    between atoms: C25_25  and  N15_70 
REMARK   12  A    between atoms: C29_29  and  N13_68 
REMARK   13  A    between atoms: C31_31  and  N14_69 
REMARK   14  A    between atoms: C32_32  and  O3_80 
REMARK   15  A    between atoms: C33_33  and  O2_79 
REMARK   16  A    between atoms: C34_34  and  C35_35 
REMARK       I    between atoms: C34_34  and  N14_69 
REMARK   17  A    between atoms: C35_35  and  O5_82 
REMARK   18  A    between atoms: C36_36  and  C37_37 
REMARK   19  A    between atoms: C36_36  and  N15_70 
REMARK   20  A    between atoms: C37_37  and  C38_38 
REMARK   21  A    between atoms: C43_43  and  N19_76 
REMARK   22  A    between atoms: C45_45  and  N20_77 
REMARK   23  A    between atoms: C46_46  and  O7_84 
REMARK   24  A    between atoms: C47_47  and  O6_83 
REMARK   25  A    between atoms: C48_48  and  C49_49 
REMARK       I    between atoms: C48_48  and  N20_77 
REMARK   26  A    between atoms: C49_49  and  O9_86 
USER                              x       y       z     vdW  Elec       q    Type
USER                           _______ _______ _______ _____ _____    ______ ____
ROOT
ATOM      1  C17 UNL     1      20.984   8.938   2.814 +0.01 +0.00    +0.316 C 
ATOM      2  N7  UNL     1      21.879   7.954   2.473 +1.99 -0.00    -0.339 N 
ATOM      3  N8  UNL     1      19.686   8.523   2.653 +0.99 -0.00    -0.339 N 
ATOM      4  O1  UNL     1      21.304  10.060   3.181 -0.27 -0.00    -0.247 OA
ATOM      5  H59 UNL     1      21.534   7.008   2.462 +5.16 +0.00    +0.164 HD
ATOM      6  H60 UNL     1      19.526   7.529   2.618 +1.12 +0.00    +0.164 HD
ENDROOT
BRANCH   2   7
ATOM      7  C14 UNL     1      23.315   8.148   2.642 -0.19 +0.00    +0.086 C 
ATOM      8  C13 UNL     1      23.990   8.502   1.303 -0.49 +0.00    +0.027 C 
ATOM      9  C12 UNL     1      24.122  10.012   1.119 +0.04 +0.00    +0.022 C 
ATOM     10  C11 UNL     1      24.992  10.655   2.219 -0.06 +0.00    +0.062 C 
ATOM     11  C16 UNL     1      24.915   9.885   3.551 -0.45 +0.00    +0.022 C 
ATOM     12  C15 UNL     1      23.566   9.202   3.730 -0.61 +0.00    +0.027 C 
BRANCH  10  13
ATOM     13  N6  UNL     1      26.371  10.710   1.745 +6.59 -0.00    -0.272 NA
ATOM     14  H58 UNL     1      26.620  11.524   1.185 +1.18 +0.00    +0.129 HD
BRANCH  13  15
ATOM     15  C10 UNL     1      26.895   9.551   1.167 +1.52 +0.00    +0.114 A 
ATOM     16  C9  UNL     1      26.456   8.276   1.559 -0.38 +0.00    +0.117 A 
ATOM     17  C8  UNL     1      27.020   7.199   0.905 -0.28 +0.00    +0.141 A 
ATOM     18  N18 UNL     1      25.542   7.855   2.503 -0.21 -0.00    -0.346 N 
ATOM     19  N4  UNL     1      27.952   7.233  -0.057 -0.14 -0.00    -0.317 N 
ATOM     20  N19 UNL     1      26.415   6.098   1.447 +0.21 -0.00    -0.320 N 
ATOM     21  C7  UNL     1      28.343   8.486  -0.347 +0.45 +0.00    +0.160 A 
ATOM     22  H4  UNL     1      28.323   6.402  -0.518 +0.09 +0.00    +0.170 HD
ATOM     23  N5  UNL     1      27.848   9.615   0.199 +2.50 -0.00    -0.321 N 
ATOM     24  H5  UNL     1      28.191  10.523  -0.116 +1.51 +0.00    +0.169 HD
ATOM     25  C42 UNL     1      25.549   6.541   2.414 +0.20 +0.00    +0.185 A 
ATOM     26  H18 UNL     1      24.985   8.433   3.132 +0.13 +0.00    +0.167 HD
BRANCH  21  27
ATOM     27  N3  UNL     1      29.349   8.702  -1.274 +0.71 -0.00    -0.264 NA
ATOM     28  H57 UNL     1      29.379   7.880  -1.865 +0.05 +0.00    +0.130 HD
BRANCH  27  29
ATOM     29  C6  UNL     1      30.627   9.208  -0.794 -0.23 +0.00    +0.101 C 
BRANCH  29  30
ATOM     30  C5  UNL     1      31.691   8.106  -0.808 -0.14 +0.00    +0.073 C 
BRANCH  30  31
ATOM     31  C3  UNL     1      31.390   7.024   0.171 -0.12 +0.00    +0.026 A 
ATOM     32  C2  UNL     1      31.909   5.747   0.238 -0.05 +0.00    +0.116 A 
ATOM     33  N1  UNL     1      31.282   5.162   1.301 -0.09 -0.00    -0.355 N 
ATOM     34  C1  UNL     1      31.476   3.818   1.782 -0.18 +0.00    +0.156 C 
ATOM     35  C4  UNL     1      30.426   6.078   1.836 -0.13 +0.00    +0.182 A 
ATOM     36  N2  UNL     1      30.485   7.223   1.190 -0.13 -0.00    -0.354 N 
ATOM     37  H2  UNL     1      29.969   8.078   1.400 +0.08 +0.00    +0.166 HD
ENDBRANCH  30  31
ENDBRANCH  29  30
ENDBRANCH  27  29
ENDBRANCH  21  27
BRANCH  20  38
ATOM     38  C43 UNL     1      26.577   4.719   1.036 +1.74 +0.00    +0.125 C 
ATOM     39  C44 UNL     1      28.014   4.337   0.640 +0.10 +0.00    +0.056 C 
ATOM     40  C45 UNL     1      27.851   3.390  -0.550 -0.05 +0.00    +0.118 C 
ATOM     41  C46 UNL     1      26.640   3.972  -1.290 -0.27 +0.00    +0.171 C 
ATOM     42  C47 UNL     1      25.677   4.348  -0.159 -0.35 +0.00    +0.172 C 
BRANCH  40  43
ATOM     43  N20 UNL     1      29.036   3.335  -1.380 -0.06 -0.00    -0.352 N 
ATOM     44  C48 UNL     1      29.454   4.389  -2.149 -0.07 +0.00    +0.241 C 
ATOM     45  O8  UNL     1      28.854   5.460  -2.231 -0.16 -0.00    -0.271 OA
ATOM     46  H64 UNL     1      29.610   2.484  -1.353 +0.05 +0.00    +0.163 HD
BRANCH  44  47
ATOM     47  C49 UNL     1      30.742   4.132  -2.933 -0.01 +0.00    +0.266 C 
BRANCH  47  48
ATOM     48  O9  UNL     1      31.351   2.899  -2.567 +0.00 -0.00    -0.392 OA
ATOM     49  H70 UNL     1      31.914   2.650  -3.329 +0.03 +0.00    +0.210 HD
ENDBRANCH  47  48
ENDBRANCH  44  47
ENDBRANCH  40  43
BRANCH  41  50
ATOM     50  O7  UNL     1      26.045   3.030  -2.179 -0.36 -0.00    -0.391 OA
ATOM     51  H69 UNL     1      25.082   3.194  -2.121 +0.14 +0.00    +0.210 HD
ENDBRANCH  41  50
BRANCH  42  52
ATOM     52  O6  UNL     1      24.884   3.192   0.170 +0.40 -0.00    -0.391 OA
ATOM     53  H68 UNL     1      24.381   2.947  -0.629 +0.16 +0.00    +0.210 HD
ENDBRANCH  42  52
ENDBRANCH  20  38
ENDBRANCH  13  15
ENDBRANCH  10  13
ENDBRANCH   2   7
BRANCH   3  54
ATOM     54  C18 UNL     1      18.570   9.375   3.043 -0.45 +0.00    +0.086 C 
ATOM     55  C19 UNL     1      17.552   9.447   1.896 -0.52 +0.00    +0.027 C 
ATOM     56  C20 UNL     1      16.158   9.790   2.406 -0.50 +0.00    +0.027 C 
ATOM     57  C21 UNL     1      15.614   8.705   3.355 -0.49 +0.00    +0.083 C 
ATOM     58  C22 UNL     1      16.741   7.988   4.128 -0.55 +0.00    +0.027 C 
ATOM     59  C23 UNL     1      17.943   8.899   4.367 -0.31 +0.00    +0.027 C 
BRANCH  57  60
ATOM     60  N9  UNL     1      14.694   9.291   4.323 +0.41 -0.00    -0.370 N 
ATOM     61  H61 UNL     1      14.602  10.302   4.313 +1.46 +0.00    +0.161 HD
BRANCH  60  62
ATOM     62  C24 UNL     1      13.440   8.729   4.538 +0.25 +0.00    +0.135 A 
ATOM     63  C27 UNL     1      12.702   7.931   3.644 -0.33 +0.00    +0.122 A 
ATOM     64  C26 UNL     1      11.469   7.490   4.092 -0.30 +0.00    +0.142 A 
ATOM     65  N12 UNL     1      12.927   7.484   2.354 +0.08 -0.00    -0.346 N 
ATOM     66  N11 UNL     1      10.897   7.743   5.275 -0.19 -0.00    -0.317 N 
ATOM     67  N13 UNL     1      10.947   6.758   3.061 -0.16 -0.00    -0.320 N 
ATOM     68  C25 UNL     1      11.660   8.520   6.058 +0.11 +0.00    +0.160 A 
ATOM     69  H11 UNL     1       9.983   7.384   5.551 +0.11 +0.00    +0.170 HD
ATOM     70  N10 UNL     1      12.877   9.004   5.745 +1.31 -0.00    -0.317 N 
ATOM     71  H10 UNL     1      13.380   9.582   6.419 +0.15 +0.00    +0.170 HD
ATOM     72  C28 UNL     1      11.863   6.774   2.044 -0.24 +0.00    +0.185 A 
ATOM     73  H12 UNL     1      13.742   7.666   1.769 -0.27 +0.00    +0.167 HD
BRANCH  68  74
ATOM     74  N15 UNL     1      11.196   8.897   7.310 +0.39 -0.00    -0.264 NA
ATOM     75  H63 UNL     1      10.340   8.369   7.453 +0.55 +0.00    +0.130 HD
BRANCH  74  76
ATOM     76  C36 UNL     1      12.157   8.809   8.407 +1.84 +0.00    +0.101 C 
BRANCH  76  77
ATOM     77  C37 UNL     1      13.515   8.231   7.986 -0.17 +0.00    +0.073 C 
BRANCH  77  78
ATOM     78  C38 UNL     1      13.492   6.764   7.718 -0.52 +0.00    +0.026 A 
ATOM     79  C39 UNL     1      13.081   6.097   6.584 -0.37 +0.00    +0.116 A 
ATOM     80  N16 UNL     1      13.270   4.774   6.857 -0.28 -0.00    -0.355 N 
ATOM     81  C40 UNL     1      13.743   4.675   8.132 -0.34 +0.00    +0.182 A 
ATOM     82  C41 UNL     1      13.022   3.676   5.959 +0.26 +0.00    +0.156 C 
ATOM     83  N17 UNL     1      13.900   5.862   8.681 -0.21 -0.00    -0.354 N 
ATOM     84  H17 UNL     1      14.247   6.070   9.617 +0.18 +0.00    +0.166 HD
ENDBRANCH  77  78
ENDBRANCH  76  77
ENDBRANCH  74  76
ENDBRANCH  68  74
BRANCH  67  85
ATOM     85  C29 UNL     1       9.647   6.116   3.016 -0.24 +0.00    +0.125 C 
ATOM     86  C30 UNL     1       9.726   4.646   2.568 +0.26 +0.00    +0.056 C 
ATOM     87  C31 UNL     1       8.590   4.459   1.564 -0.13 +0.00    +0.118 C 
ATOM     88  C32 UNL     1       8.441   5.836   0.911 -0.15 +0.00    +0.171 C 
ATOM     89  C33 UNL     1       8.649   6.809   2.073 -0.25 +0.00    +0.172 C 
BRANCH  87  90
ATOM     90  N14 UNL     1       8.872   3.424   0.587 -0.01 -0.00    -0.352 N 
ATOM     91  C34 UNL     1       8.149   2.247   0.549 -0.11 +0.00    +0.241 C 
ATOM     92  O4  UNL     1       7.128   2.050   1.197 -0.13 -0.00    -0.271 OA
ATOM     93  H62 UNL     1       9.815   3.330   0.216 -0.26 +0.00    +0.163 HD
BRANCH  91  94
ATOM     94  C35 UNL     1       8.745   1.218  -0.417 -0.11 +0.00    +0.266 C 
BRANCH  94  95
ATOM     95  O5  UNL     1      10.097   1.518  -0.754 -0.10 -0.00    -0.392 OA
ATOM     96  H67 UNL     1      10.408   0.746  -1.286 +0.14 +0.00    +0.210 HD
ENDBRANCH  94  95
ENDBRANCH  91  94
ENDBRANCH  87  90
BRANCH  88  97
ATOM     97  O3  UNL     1       7.146   6.015   0.334 -0.09 -0.00    -0.391 OA
ATOM     98  H66 UNL     1       6.745   6.775   0.794 +0.10 +0.00    +0.210 HD
ENDBRANCH  88  97
BRANCH  89  99
ATOM     99  O2  UNL     1       7.404   6.995   2.766 -0.15 -0.00    -0.391 OA
ATOM    100  H65 UNL     1       6.825   6.276   2.431 +0.09 +0.00    +0.210 HD
ENDBRANCH  89  99
ENDBRANCH  67  85
ENDBRANCH  60  62
ENDBRANCH  57  60
ENDBRANCH   3  54
TORSDOF 26
TER
