USER    Run = 1
USER    DPF = ligand_409_receptor.dpf
USER  
USER    Estimated Free Energy of Binding    =  +1.06e+005 kcal/mol  [=(1)+(2)+(3)-(4)]
USER    
USER    (1) Final Intermolecular Energy     =  +1.06e+005 kcal/mol
USER        vdW + Hbond + desolv Energy     =  +1.06e+005 kcal/mol
USER        Electrostatic Energy            =   +0.00 kcal/mol
USER    (2) Final Total Internal Energy     =   +0.00 kcal/mol
USER    (3) Torsional Free Energy           =   +1.19 kcal/mol
USER    (4) Unbound System's Energy  [=(2)] =   +0.00 kcal/mol
USER    
USER    
USER    NEWDPF move ligand_409.pdbqt
USER    NEWDPF about 0.000000 0.000000 0.000000
USER    NEWDPF tran0 15.059961 5.454486 3.637267
USER    NEWDPF quaternion0 -0.008004 -0.309410 0.084830 -0.947104
USER    NEWDPF axisangle0 -0.024942 -0.964111 0.264327 -37.438081
USER    NEWDPF quat0 -0.024942 -0.964111 0.264327 -37.438081
USER  keepresnum = 1 
USER  
REMARK  0 active torsions:
REMARK  status: ('A' for Active; 'I' for Inactive)
REMARK       I    between atoms: C2_2  and  C3_3 
REMARK       I    between atoms: C3_3  and  C5_5 
REMARK       I    between atoms: C5_5  and  C6_6 
REMARK       I    between atoms: C5_5  and  N13_95 
REMARK       I    between atoms: C6_6  and  N1_81 
REMARK       I    between atoms: C7_7  and  C8_8 
REMARK       I    between atoms: C7_7  and  C10_10 
REMARK       I    between atoms: C7_7  and  N1_81 
REMARK       I    between atoms: C8_8  and  C9_9 
REMARK       I    between atoms: C9_9  and  O3_68 
REMARK       I    between atoms: C10_10  and  N2_82 
REMARK       I    between atoms: C11_11  and  C12_12 
REMARK       I    between atoms: C11_11  and  C16_16 
REMARK       I    between atoms: C11_11  and  N2_82 
REMARK       I    between atoms: C12_12  and  C13_13 
REMARK       I    between atoms: C13_13  and  C14_14 
REMARK       I    between atoms: C14_14  and  N3_83 
REMARK       I    between atoms: C15_15  and  N4_85 
REMARK       I    between atoms: C15_15  and  N5_86 
REMARK       I    between atoms: C16_16  and  N6_87 
REMARK       I    between atoms: C17_17  and  C18_18 
REMARK       I    between atoms: C17_17  and  C22_22 
REMARK       I    between atoms: C17_17  and  N6_87 
REMARK       I    between atoms: C18_18  and  C20_20 
REMARK       I    between atoms: C22_22  and  N7_88 
REMARK       I    between atoms: C23_23  and  C24_24 
REMARK       I    between atoms: C23_23  and  C25_25 
REMARK       I    between atoms: C23_23  and  N7_88 
REMARK       I    between atoms: C24_24  and  S1_106 
REMARK       I    between atoms: C25_25  and  N8_89 
REMARK       I    between atoms: C26_26  and  C27_27 
REMARK       I    between atoms: C26_26  and  C34_34 
REMARK       I    between atoms: C26_26  and  N8_89 
REMARK       I    between atoms: C27_27  and  C28_28 
REMARK       I    between atoms: C34_34  and  N9_90 
REMARK       I    between atoms: C35_35  and  C36_36 
REMARK       I    between atoms: C35_35  and  C40_40 
REMARK       I    between atoms: C35_35  and  N9_90 
REMARK       I    between atoms: C36_36  and  C37_37 
REMARK       I    between atoms: C37_37  and  C38_38 
REMARK       I    between atoms: C38_38  and  N10_91 
REMARK       I    between atoms: C39_39  and  N11_93 
REMARK       I    between atoms: C39_39  and  N12_94 
REMARK       I    between atoms: C41_41  and  C42_42 
REMARK       I    between atoms: C41_41  and  N13_95 
REMARK       I    between atoms: C42_42  and  C43_43 
REMARK       I    between atoms: C42_42  and  N17_100 
REMARK       I    between atoms: C43_43  and  C44_44 
REMARK       I    between atoms: C44_44  and  C45_45 
REMARK       I    between atoms: C45_45  and  N14_96 
REMARK       I    between atoms: C46_46  and  N15_98 
REMARK       I    between atoms: C46_46  and  N16_99 
REMARK       I    between atoms: C47_47  and  C48_48 
REMARK       I    between atoms: C47_47  and  N17_100 
REMARK       I    between atoms: C48_48  and  N18_101 
REMARK       I    between atoms: C49_49  and  C50_50 
REMARK       I    between atoms: C49_49  and  N18_101 
REMARK       I    between atoms: C50_50  and  N19_102 
REMARK       I    between atoms: C51_51  and  C52_52 
REMARK       I    between atoms: C51_51  and  N19_102 
REMARK       I    between atoms: C52_52  and  C53_53 
REMARK       I    between atoms: C52_52  and  N20_103 
REMARK       I    between atoms: C53_53  and  C54_54 
REMARK       I    between atoms: C60_60  and  C61_61 
REMARK       I    between atoms: C60_60  and  N20_103 
REMARK       I    between atoms: C61_61  and  N21_104 
REMARK       I    between atoms: C63_63  and  C64_64 
REMARK       I    between atoms: C63_63  and  N21_104 
REMARK       I    between atoms: C64_64  and  C65_65 
REMARK       I    between atoms: C64_64  and  N22_105 
REMARK       I    between atoms: C65_65  and  S2_107 
USER                              x       y       z     vdW  Elec       q    Type
USER                           _______ _______ _______ _____ _____    ______ ____
ROOT
ATOM      1  C1  UNL     1       7.260  -0.289  10.358+24.88 +0.00    +0.005 C 
ATOM      2  C2  UNL     1       7.223   1.198  10.039+84.27 +0.00    +0.002 C 
ATOM      3  C3  UNL     1       7.418   1.521   8.542+70.48 +0.00    +0.013 C 
ATOM      4  C4  UNL     1       7.230   3.030   8.326 +4.50 +0.00    +0.012 C 
ATOM      5  C5  UNL     1       8.751   0.985   7.964+99.99 +0.00    +0.180 C 
ATOM      6  C6  UNL     1       9.991   1.638   8.639+11.70 +0.00    +0.241 C 
ATOM      7  C7  UNL     1      11.655   3.498   8.306 +0.50 +0.00    +0.186 C 
ATOM      8  C8  UNL     1      12.911   2.700   7.963+17.67 +0.00    +0.144 C 
ATOM      9  C9  UNL     1      14.144   3.551   7.988 +6.17 +0.00    +0.141 C 
ATOM     10  C10 UNL     1      11.555   4.816   7.499 -0.33 +0.00    +0.241 C 
ATOM     11  C11 UNL     1      11.884   7.278   7.627 +1.15 +0.00    +0.176 C 
ATOM     12  C12 UNL     1      12.034   8.282   8.778+20.79 +0.00    +0.036 C 
ATOM     13  C13 UNL     1      11.596   9.700   8.392 +2.11 +0.00    +0.022 C 
ATOM     14  C14 UNL     1      11.723  10.683   9.555+22.58 +0.00    +0.121 C 
ATOM     15  C15 UNL     1      13.872  11.678   9.422 +1.61 +0.00    +0.121 C 
ATOM     16  C16 UNL     1      12.908   7.584   6.515 -0.31 +0.00    +0.241 C 
ATOM     17  C17 UNL     1      15.249   7.324   5.746 +2.64 +0.00    +0.180 C 
ATOM     18  C18 UNL     1      16.218   8.448   6.193+99.99 +0.00    +0.013 C 
ATOM     19  C19 UNL     1      15.495   9.790   6.355+99.99 +0.00    +0.012 C 
ATOM     20  C20 UNL     1      17.107   8.139   7.418+99.99 +0.00    +0.002 C 
ATOM     21  C21 UNL     1      16.400   7.953   8.753+99.99 +0.00    +0.005 C 
ATOM     22  C22 UNL     1      16.018   6.022   5.451+97.54 +0.00    +0.241 C 
ATOM     23  C23 UNL     1      17.431   4.863   3.781+99.99 +0.00    +0.185 C 
ATOM     24  C24 UNL     1      17.231   4.437   2.326+87.83 +0.00    +0.105 C 
ATOM     25  C25 UNL     1      18.849   5.437   4.016+99.99 +0.00    +0.241 C 
ATOM     26  C26 UNL     1      21.249   4.818   4.340+99.99 +0.00    +0.180 C 
ATOM     27  C27 UNL     1      21.959   3.560   4.888+39.02 +0.00    +0.073 C 
ATOM     28  C28 UNL     1      21.970   2.365   3.955+30.97 -0.00    -0.056 A 
ATOM     29  C29 UNL     1      20.979   1.376   4.056+99.99 +0.00    +0.007 A 
ATOM     30  C30 UNL     1      20.985   0.274   3.199+99.99 +0.00    +0.001 A 
ATOM     31  C31 UNL     1      21.986   0.142   2.238+99.99 +0.00    +0.000 A 
ATOM     32  C32 UNL     1      22.978   1.114   2.132+85.82 +0.00    +0.001 A 
ATOM     33  C33 UNL     1      22.970   2.219   2.986+18.02 +0.00    +0.007 A 
ATOM     34  C34 UNL     1      22.108   5.539   3.272+99.99 +0.00    +0.241 C 
ATOM     35  C35 UNL     1      22.171   7.328   1.582+34.84 +0.00    +0.146 C 
ATOM     36  C36 UNL     1      22.687   6.627   0.315 +1.20 +0.00    +0.034 C 
ATOM     37  C37 UNL     1      21.601   5.995  -0.563+13.81 +0.00    +0.022 C 
ATOM     38  C38 UNL     1      21.266   4.553  -0.180+99.99 +0.00    +0.121 C 
ATOM     39  C39 UNL     1      19.811   2.908  -1.036+82.59 +0.00    +0.121 C 
ATOM     40  C40 UNL     1      21.344   8.550   1.199+13.37 +0.00    +0.256 C 
ATOM     41  C41 UNL     1       8.081   0.905   5.512+99.99 +0.00    +0.241 C 
ATOM     42  C42 UNL     1       8.556   1.370   4.098+99.99 +0.00    +0.176 C 
ATOM     43  C43 UNL     1       8.664   0.191   3.116+99.99 +0.00    +0.036 C 
ATOM     44  C44 UNL     1       8.417   0.554   1.639 +3.11 +0.00    +0.022 C 
ATOM     45  C45 UNL     1       9.375   1.581   1.027 -0.24 +0.00    +0.121 C 
ATOM     46  C46 UNL     1       9.499   3.937   0.900 +0.51 +0.00    +0.121 C 
ATOM     47  C47 UNL     1      11.015   1.794   4.385 +5.73 +0.00    +0.236 C 
ATOM     48  C48 UNL     1      12.174   2.623   3.841+39.24 +0.00    +0.225 C 
ATOM     49  C49 UNL     1      12.603   4.772   2.768+99.99 +0.00    +0.235 C 
ATOM     50  C50 UNL     1      12.247   6.263   2.741 +0.00 +0.00    +0.225 C 
ATOM     51  C51 UNL     1      12.942   6.916   0.481 +0.20 +0.00    +0.241 C 
ATOM     52  C52 UNL     1      14.148   7.319  -0.398 +0.46 +0.00    +0.180 C 
ATOM     53  C53 UNL     1      14.981   6.060  -0.698+99.99 +0.00    +0.073 C 
ATOM     54  C54 UNL     1      15.890   6.195  -1.899+99.99 -0.00    -0.056 A 
ATOM     55  C55 UNL     1      17.281   6.121  -1.755+99.99 +0.00    +0.007 A 
ATOM     56  C56 UNL     1      18.113   6.199  -2.874 +3.89 +0.00    +0.001 A 
ATOM     57  C57 UNL     1      17.568   6.358  -4.146 +9.03 +0.00    +0.000 A 
ATOM     58  C58 UNL     1      16.187   6.437  -4.301 +6.14 +0.00    +0.001 A 
ATOM     59  C59 UNL     1      15.353   6.349  -3.186+99.99 +0.00    +0.007 A 
ATOM     60  C60 UNL     1      15.773   8.480   1.178 +0.03 +0.00    +0.240 C 
ATOM     61  C61 UNL     1      16.637   9.758   1.270 -0.42 +0.00    +0.172 C 
ATOM     62  C62 UNL     1      17.191   9.949   2.675 -0.52 +0.00    +0.042 C 
ATOM     63  C63 UNL     1      17.545   9.950  -1.025 +0.92 +0.00    +0.252 C 
ATOM     64  C64 UNL     1      18.812   9.832  -1.898+99.99 +0.00    +0.318 C 
ATOM     65  C65 UNL     1      19.845  10.911  -1.540+99.99 +0.00    +0.116 C 
ATOM     66  O1  UNL     1      10.470   1.266   9.705+99.99 -0.00    -0.271 OA
ATOM     67  O2  UNL     1      14.295   4.585   8.620 +0.46 -0.00    -0.650 OA
ATOM     68  O3  UNL     1      15.093   3.072   7.163 +9.78 -0.00    -0.776 OA
ATOM     69  O4  UNL     1      11.083   4.860   6.361 -0.21 -0.00    -0.271 OA
ATOM     70  O5  UNL     1      12.647   8.370   5.605 -0.24 -0.00    -0.271 OA
ATOM     71  O6  UNL     1      16.225   5.164   6.311+99.99 -0.00    -0.271 OA
ATOM     72  O7  UNL     1      19.073   6.626   4.243+13.43 -0.00    -0.271 OA
ATOM     73  O8  UNL     1      23.331   5.419   3.207+99.99 -0.00    -0.271 OA
ATOM     74  O9  UNL     1      20.113   8.594   1.188+52.54 -0.00    -0.305 OA
ATOM     75  O10 UNL     1       7.027   0.302   5.691+99.99 -0.00    -0.271 OA
ATOM     76  O11 UNL     1      11.200   0.763   5.030+99.99 -0.00    -0.272 OA
ATOM     77  O12 UNL     1      13.495   4.281   2.075+99.99 -0.00    -0.272 OA
ATOM     78  O13 UNL     1      11.923   6.432  -0.016 -0.36 -0.00    -0.271 OA
ATOM     79  O14 UNL     1      15.821   7.569   2.004 +4.87 -0.00    -0.271 OA
ATOM     80  O15 UNL     1      16.438  10.241  -1.484+99.99 -0.00    -0.271 OA
ATOM     81  N1  UNL     1      10.452   2.749   7.963 +0.08 -0.00    -0.345 N 
ATOM     82  N2  UNL     1      12.034   5.924   8.157 -0.13 -0.00    -0.346 N 
ATOM     83  N3  UNL     1      13.117  10.806   9.970 +0.41 -0.00    -0.372 N 
ATOM     84  H3  UNL     1      13.489  10.195  10.698 -0.24 +0.00    +0.161 HD
ATOM     85  N4  UNL     1      13.615  12.561   8.432 -0.25 -0.00    -0.279 NA
ATOM     86  N5  UNL     1      15.152  11.809   9.831+96.58 -0.00    -0.279 NA
ATOM     87  N6  UNL     1      14.166   7.052   6.685 -0.04 -0.00    -0.346 N 
ATOM     88  N7  UNL     1      16.472   5.901   4.158+99.99 -0.00    -0.345 N 
ATOM     89  N8  UNL     1      19.870   4.522   3.938 +9.72 -0.00    -0.346 N 
ATOM     90  N9  UNL     1      21.441   6.459   2.488+99.99 -0.00    -0.348 N 
ATOM     91  N10 UNL     1      20.110   4.149  -0.973+99.99 -0.00    -0.372 N 
ATOM     92  H10 UNL     1      19.551   4.844  -1.468 +9.93 +0.00    +0.161 HD
ATOM     93  N11 UNL     1      18.735   2.514  -1.751+99.99 -0.00    -0.279 NA
ATOM     94  N12 UNL     1      20.405   1.841  -0.461+99.99 -0.00    -0.279 NA
ATOM     95  N13 UNL     1       8.931   1.256   6.529+99.99 -0.00    -0.346 N 
ATOM     96  N14 UNL     1       8.986   2.918   1.477 -0.01 -0.00    -0.372 N 
ATOM     97  H14 UNL     1       8.316   3.035   2.239 +0.06 +0.00    +0.161 HD
ATOM     98  N15 UNL     1      10.438   4.008  -0.065 +0.72 -0.00    -0.279 NA
ATOM     99  N16 UNL     1       9.092   5.171   1.258 -0.06 -0.00    -0.279 NA
ATOM    100  N17 UNL     1       9.752   2.235   4.069+10.36 -0.00    -0.346 N 
ATOM    101  N18 UNL     1      11.841   4.017   3.633+26.67 -0.00    -0.351 N 
ATOM    102  N19 UNL     1      13.143   6.962   1.840 +0.14 -0.00    -0.351 N 
ATOM    103  N20 UNL     1      14.941   8.461   0.080 +1.96 -0.00    -0.346 N 
ATOM    104  N21 UNL     1      17.728   9.676   0.309 -0.20 -0.00    -0.346 N 
ATOM    105  N22 UNL     1      18.440   9.856  -3.334+99.99 +0.00    +0.092 N 
ATOM    106  S1  UNL     1      17.891   2.769   1.997+85.58 -0.00    -0.180 SA
ATOM    107  S2  UNL     1      19.380  12.604  -2.035+86.60 -0.00    -0.180 SA
ATOM    108  H76 UNL     1      15.760   3.801   7.054 +1.50 +0.00    +0.167 HD
ATOM    109  H77 UNL     1       9.956   3.008   7.111 +0.10 +0.00    +0.163 HD
ATOM    110  H78 UNL     1      12.725   5.771   8.891 +0.13 +0.00    +0.163 HD
ATOM    111  H79 UNL     1      12.783  12.351   7.896 +0.08 +0.00    +0.126 HD
ATOM    112  H80 UNL     1      14.410  12.681   7.816 +0.09 +0.00    +0.126 HD
ATOM    113  H81 UNL     1      15.293  11.260  10.675+21.37 +0.00    +0.126 HD
ATOM    114  H82 UNL     1      15.398  12.778  10.000+30.34 +0.00    +0.126 HD
ATOM    115  H83 UNL     1      14.320   6.357   7.412 +0.11 +0.00    +0.163 HD
ATOM    116  H84 UNL     1      16.409   6.710   3.536 +0.01 +0.00    +0.163 HD
ATOM    117  H85 UNL     1      19.693   3.648   3.448 +0.24 +0.00    +0.163 HD
ATOM    118  H86 UNL     1      20.521   6.763   2.810+57.76 +0.00    +0.163 HD
ATOM    119  H87 UNL     1      18.943   1.721  -2.347+56.39 +0.00    +0.126 HD
ATOM    120  H88 UNL     1      18.383   3.288  -2.309 +6.71 +0.00    +0.126 HD
ATOM    121  H89 UNL     1      21.036   2.075   0.298 +3.61 +0.00    +0.126 HD
ATOM    122  H90 UNL     1      19.729   1.157  -0.136 -0.02 +0.00    +0.126 HD
ATOM    123  H91 UNL     1       9.898   1.151   6.225+99.99 +0.00    +0.163 HD
ATOM    124  H92 UNL     1      11.004   4.863  -0.030 -0.09 +0.00    +0.126 HD
ATOM    125  H93 UNL     1      11.035   3.197  -0.149 -0.45 +0.00    +0.126 HD
ATOM    126  H94 UNL     1       8.203   5.137   1.745 +0.06 +0.00    +0.126 HD
ATOM    127  H95 UNL     1       9.066   5.820   0.478 +0.07 +0.00    +0.126 HD
ATOM    128  H96 UNL     1       9.719   2.920   3.309 -0.16 +0.00    +0.163 HD
ATOM    129  H97 UNL     1      11.339   4.495   4.383 +0.04 +0.00    +0.163 HD
ATOM    130  H98 UNL     1      14.113   7.035   2.139 -0.45 +0.00    +0.163 HD
ATOM    131  H99 UNL     1      15.168   9.154  -0.639 -0.18 +0.00    +0.163 HD
ATOM    132  HA0 UNL     1      18.578   9.187   0.603 +0.12 +0.00    +0.163 HD
ATOM    133  HA1 UNL     1      17.818  10.662  -3.463 +0.41 +0.00    +0.313 HD
ATOM    134  HA2 UNL     1      17.814   9.061  -3.497 +0.26 +0.00    +0.313 HD
ATOM    135  HA3 UNL     1      17.633   2.772   0.677 +3.44 +0.00    +0.101 HD
ATOM    136  HA4 UNL     1      19.330  12.349  -3.352 -0.15 +0.00    +0.101 HD
ENDROOT
TORSDOF 53
TER
