USER    Run = 1
USER    DPF = ligand_295_receptor.dpf
USER  
USER    Estimated Free Energy of Binding    =  -12.74 kcal/mol  [=(1)+(2)+(3)-(4)]
USER    Estimated Inhibition Constant, Ki   =  461.41 pM (picomolar)  [Temperature = 298.15 K]
USER    
USER    (1) Final Intermolecular Energy     =  -13.93 kcal/mol
USER        vdW + Hbond + desolv Energy     =  -13.93 kcal/mol
USER        Electrostatic Energy            =   +0.00 kcal/mol
USER    (2) Final Total Internal Energy     =   -1.78 kcal/mol
USER    (3) Torsional Free Energy           =   +1.19 kcal/mol
USER    (4) Unbound System's Energy  [=(2)] =   -1.78 kcal/mol
USER    
USER    
USER    NEWDPF move ligand_295.pdbqt
USER    NEWDPF about 0.000000 0.000000 0.000000
USER    NEWDPF tran0 15.872493 8.420189 4.159000
USER    NEWDPF quaternion0 -0.445402 0.068512 0.096670 -0.887456
USER    NEWDPF axisangle0 -0.966390 0.148650 0.209746 -54.889383
USER    NEWDPF quat0 -0.966390 0.148650 0.209746 -54.889383
USER    NEWDPF dihe0 180.00 -41.31 -99.56 88.61 168.89 29.51 -179.88 0.77 -137.44 -96.96 8.39 
USER  keepresnum = 1 
USER  
REMARK  11 active torsions:
REMARK  status: ('A' for Active; 'I' for Inactive)
REMARK    1  A    between atoms: C3_3  and  C23_23 
REMARK    2  A    between atoms: C5_5  and  C8_8 
REMARK       I    between atoms: C8_8  and  N1_35 
REMARK    3  A    between atoms: C9_9  and  N1_35 
REMARK    4  A    between atoms: C11_11  and  C22_22 
REMARK    5  A    between atoms: C12_12  and  C15_15 
REMARK    6  A    between atoms: C15_15  and  N2_36 
REMARK    7  A    between atoms: C20_20  and  C21_21 
REMARK    8  A    between atoms: C20_20  and  N3_37 
REMARK    9  A    between atoms: C21_21  and  O2_34 
REMARK   10  A    between atoms: C24_24  and  C25_25 
REMARK   11  A    between atoms: C30_30  and  C31_31 
USER                              x       y       z     vdW  Elec       q    Type
USER                           _______ _______ _______ _____ _____    ______ ____
ROOT
ATOM      1  C1  UNL     1      19.636  12.444   1.559 -0.70 +0.00    +0.049 C 
ATOM      2  C2  UNL     1      18.642  11.418   2.030 -0.52 -0.00    -0.043 A 
ATOM      3  C3  UNL     1      19.044  10.123   2.404 -0.42 +0.00    +0.025 A 
ATOM      4  C4  UNL     1      18.096   9.189   2.834 -0.46 +0.00    +0.038 A 
ATOM      5  C5  UNL     1      16.743   9.538   2.904 -0.47 +0.00    +0.033 A 
ATOM      6  C6  UNL     1      16.333  10.817   2.515 -0.45 +0.00    +0.017 A 
ATOM      7  C7  UNL     1      17.279  11.751   2.085 -0.58 +0.00    +0.009 A 
ENDROOT
BRANCH   5   8
ATOM      8  C8  UNL     1      15.768   8.510   3.368 -0.38 +0.00    +0.256 C 
ATOM      9  O1  UNL     1      16.050   7.330   3.205 -0.75 -0.00    -0.267 OA
ATOM     10  N1  UNL     1      14.638   9.019   3.983 -0.07 -0.00    -0.323 N 
ATOM     11  H30 UNL     1      14.623  10.015   4.159 +0.20 +0.00    +0.169 HD
BRANCH  10  12
ATOM     12  C9  UNL     1      13.536   8.295   4.484 -0.36 +0.00    +0.035 A 
ATOM     13  C10 UNL     1      12.313   8.172   3.824 -0.36 +0.00    +0.046 A 
ATOM     14  C11 UNL     1      11.242   7.433   4.376 -0.35 +0.00    +0.058 A 
ATOM     15  C12 UNL     1      11.409   6.826   5.641 -0.34 -0.00    -0.015 A 
ATOM     16  C13 UNL     1      12.645   6.952   6.297 -0.40 +0.00    +0.012 A 
ATOM     17  C14 UNL     1      13.692   7.677   5.726 -0.38 +0.00    +0.030 A 
BRANCH  14  18
ATOM     18  C22 UNL     1       9.944   7.355   3.594 -0.17 +0.00    +0.418 C 
ATOM     19  F1  UNL     1       9.103   6.380   4.036 -0.07 -0.00    -0.166 F 
ATOM     20  F2  UNL     1       9.216   8.511   3.670 -0.18 -0.00    -0.166 F 
ATOM     21  F3  UNL     1      10.113   7.151   2.255 -0.10 -0.00    -0.166 F 
ENDBRANCH  14  18
BRANCH  15  22
ATOM     22  C15 UNL     1      10.303   6.035   6.321 -0.15 +0.00    +0.311 C 
BRANCH  22  23
ATOM     23  N2  UNL     1      10.701   4.646   6.588 -0.31 +0.00    +0.096 N 
ATOM     24  C16 UNL     1       9.538   3.839   6.997 -0.33 +0.00    +0.303 C 
ATOM     25  C17 UNL     1       8.485   3.590   5.883 -0.19 +0.00    +0.302 C 
ATOM     26  N3  UNL     1       9.022   3.654   4.504 -0.31 +0.00    +0.093 N 
ATOM     27  C18 UNL     1      10.415   3.175   4.493 -0.21 +0.00    +0.302 C 
ATOM     28  C19 UNL     1      11.345   4.010   5.416 -0.28 +0.00    +0.303 C 
BRANCH  26  29
ATOM     29  C20 UNL     1       8.190   2.896   3.546 -0.09 +0.00    +0.298 C 
BRANCH  29  30
ATOM     30  C21 UNL     1       8.377   3.402   2.107 -0.15 +0.00    +0.194 C 
BRANCH  30  31
ATOM     31  O2  UNL     1       9.474   4.314   2.057 +0.02 -0.00    -0.399 OA
ATOM     32  H29 UNL     1       9.877   4.165   1.178 -0.40 +0.00    +0.209 HD
ENDBRANCH  30  31
ENDBRANCH  29  30
ENDBRANCH  26  29
ENDBRANCH  22  23
ENDBRANCH  15  22
ENDBRANCH  10  12
ENDBRANCH   5   8
BRANCH   3  33
ATOM     33  C23 UNL     1      20.420   9.726   2.354 -0.42 -0.00    -0.059 C 
ATOM     34  C24 UNL     1      21.573   9.391   2.314 -0.45 -0.00    -0.042 C 
BRANCH  34  35
ATOM     35  C25 UNL     1      22.935   8.994   2.267 -0.38 +0.00    +0.104 A 
ATOM     36  C26 UNL     1      23.974   9.484   3.016 -0.45 +0.00    +0.131 A 
ATOM     37  N4  UNL     1      25.068   8.776   2.595 -0.24 -0.00    -0.342 N 
ATOM     38  C27 UNL     1      24.651   7.900   1.620 -0.31 +0.00    +0.153 A 
ATOM     39  C32 UNL     1      26.412   8.936   3.095 -0.47 +0.00    +0.157 C 
ATOM     40  C28 UNL     1      25.477   6.976   0.914 -0.29 +0.00    +0.151 A 
ATOM     41  N5  UNL     1      23.351   8.016   1.404 -0.18 -0.00    -0.331 N 
ATOM     42  N6  UNL     1      26.773   6.789   1.060 -0.11 -0.00    -0.347 N 
ATOM     43  N7  UNL     1      24.966   6.142  -0.046 -0.18 -0.00    -0.334 N 
ATOM     44  C29 UNL     1      27.104   5.801   0.165 -0.24 +0.00    +0.124 A 
ATOM     45  H6  UNL     1      27.398   7.275   1.702 +0.11 +0.00    +0.167 HD
ATOM     46  C30 UNL     1      25.997   5.383  -0.536 -0.33 +0.00    +0.133 A 
ATOM     47  H31 UNL     1      23.991   6.120  -0.320 +0.12 +0.00    +0.167 HD
ATOM     48  H5  UNL     1      22.783   7.491   0.740 +0.12 +0.00    +0.168 HD
BRANCH  46  49
ATOM     49  C31 UNL     1      25.820   4.372  -1.587 -0.20 +0.00    +0.433 C 
ATOM     50  F4  UNL     1      27.012   3.947  -2.078 -0.10 -0.00    -0.165 F 
ATOM     51  F5  UNL     1      25.109   4.853  -2.635 -0.12 -0.00    -0.165 F 
ATOM     52  F6  UNL     1      25.168   3.277  -1.129 -0.11 -0.00    -0.165 F 
ENDBRANCH  46  49
ENDBRANCH  34  35
ENDBRANCH   3  33
TORSDOF 11
TER
