USER    Run = 1
USER    DPF = ligand_195_receptor.dpf
USER  
USER    Estimated Free Energy of Binding    = +973.92 kcal/mol  [=(1)+(2)+(3)-(4)]
USER    
USER    (1) Final Intermolecular Energy     = +972.73 kcal/mol
USER        vdW + Hbond + desolv Energy     = +972.73 kcal/mol
USER        Electrostatic Energy            =   +0.00 kcal/mol
USER    (2) Final Total Internal Energy     = +856.99 kcal/mol
USER    (3) Torsional Free Energy           =   +1.19 kcal/mol
USER    (4) Unbound System's Energy  [=(2)] = +856.99 kcal/mol
USER    
USER    
USER    NEWDPF move ligand_195.pdbqt
USER    NEWDPF about 0.000000 0.000000 0.000000
USER    NEWDPF tran0 24.310950 7.310013 1.402514
USER    NEWDPF quaternion0 -0.462153 -0.107923 -0.879998 0.019273
USER    NEWDPF axisangle0 -0.462239 -0.107943 -0.880161 177.791397
USER    NEWDPF quat0 -0.462239 -0.107943 -0.880161 177.791397
USER    NEWDPF dihe0 180.00 -50.08 132.28 -76.41 61.45 -58.18 -47.62 -37.08 116.79 -175.52 94.06 132.55 -83.39 87.90 -93.94 135.74 48.88 126.17 81.03 -180.00 -31.13 103.87 -49.29 -172.19 -32.31 131.14 
USER  keepresnum = 1 
USER  
REMARK  26 active torsions:
REMARK  status: ('A' for Active; 'I' for Inactive)
REMARK    1  A    between atoms: C4_4  and  C5_5 
REMARK       I    between atoms: C5_5  and  N3_57 
REMARK    2  A    between atoms: C6_6  and  N3_57 
REMARK    3  A    between atoms: C8_8  and  C10_10 
REMARK    4  A    between atoms: C9_9  and  O2_77 
REMARK       I    between atoms: C10_10  and  N5_59 
REMARK    5  A    between atoms: C11_11  and  N5_59 
REMARK    6  A    between atoms: C13_13  and  C15_15 
REMARK       I    between atoms: C15_15  and  N7_61 
REMARK    7  A    between atoms: C16_16  and  N7_61 
REMARK    8  A    between atoms: C18_18  and  C20_20 
REMARK       I    between atoms: C20_20  and  N9_63 
REMARK    9  A    between atoms: C21_21  and  C22_22 
REMARK   10  A    between atoms: C21_21  and  N9_63 
REMARK   11  A    between atoms: C22_22  and  C23_23 
REMARK   12  A    between atoms: C23_23  and  C24_24 
REMARK   13  A    between atoms: C23_23  and  N20_75 
REMARK       I    between atoms: C24_24  and  N10_64 
REMARK   14  A    between atoms: C25_25  and  N10_64 
REMARK   15  A    between atoms: C27_27  and  C28_28 
REMARK       I    between atoms: C28_28  and  N13_68 
REMARK   16  A    between atoms: C29_29  and  N13_68 
REMARK   17  A    between atoms: C31_31  and  C33_33 
REMARK   18  A    between atoms: C32_32  and  O8_83 
REMARK       I    between atoms: C33_33  and  N15_70 
REMARK   19  A    between atoms: C34_34  and  N15_70 
REMARK   20  A    between atoms: C36_36  and  C38_38 
REMARK       I    between atoms: C38_38  and  N17_72 
REMARK   21  A    between atoms: C39_39  and  N17_72 
REMARK   22  A    between atoms: C41_41  and  C43_43 
REMARK       I    between atoms: C43_43  and  N19_74 
REMARK   23  A    between atoms: C44_44  and  C45_45 
REMARK   24  A    between atoms: C44_44  and  N19_74 
REMARK   25  A    between atoms: C45_45  and  C46_46 
REMARK   26  A    between atoms: C46_46  and  O12_87 
USER                              x       y       z     vdW  Elec       q    Type
USER                           _______ _______ _______ _____ _____    ______ ____
ROOT
ATOM      1  C24 UNL     1      25.572   5.683   2.228 +1.49 +0.00    +0.256 C 
ATOM      2  N10 UNL     1      25.534   6.970   1.734 -0.18 -0.00    -0.310 N 
ATOM      3  O6  UNL     1      24.960   5.252   3.205+16.54 -0.00    -0.271 OA
ATOM      4  H53 UNL     1      26.064   7.199   0.892 +0.13 +0.00    +0.170 HD
ENDROOT
BRANCH   1   5
ATOM      5  C23 UNL     1      26.499   4.746   1.411 +7.18 +0.00    +0.310 C 
BRANCH   5   6
ATOM      6  C22 UNL     1      27.779   5.471   0.973 +1.38 +0.00    +0.065 C 
BRANCH   6   7
ATOM      7  C21 UNL     1      27.802   5.933  -0.484 -0.25 +0.00    +0.125 C 
BRANCH   7   8
ATOM      8  N9  UNL     1      26.474   6.091  -1.046 -0.14 -0.00    -0.356 N 
ATOM      9  C20 UNL     1      25.318   6.052  -0.302 -0.31 +0.00    +0.268 C 
ATOM     10  O5  UNL     1      25.358   5.912   0.921 -0.28 -0.00    -0.266 OA
ATOM     11  H52 UNL     1      26.408   6.277  -2.037 +0.08 +0.00    +0.162 HD
BRANCH   9  12
ATOM     12  C18 UNL     1      24.084   6.218  -1.051 -0.45 +0.00    +0.104 A 
ATOM     13  C19 UNL     1      22.780   6.379  -0.592 -0.17 +0.00    +0.066 A 
ATOM     14  C16 UNL     1      21.913   6.506  -1.700 +3.92 +0.00    +0.053 A 
ATOM     15  C17 UNL     1      22.694   6.423  -2.827+99.99 +0.00    +0.120 A 
ATOM     16  N8  UNL     1      23.999   6.257  -2.433 -0.07 -0.00    -0.354 N 
ATOM     17  C51 UNL     1      25.109   6.134  -3.355+17.16 +0.00    +0.156 C 
BRANCH  14  18
ATOM     18  N7  UNL     1      20.544   6.678  -1.745+11.77 -0.00    -0.320 N 
ATOM     19  C15 UNL     1      19.886   7.654  -2.469 +7.54 +0.00    +0.273 C 
ATOM     20  O4  UNL     1      20.421   8.466  -3.215+95.19 -0.00    -0.266 OA
ATOM     21  H51 UNL     1      19.982   5.985  -1.271+19.55 +0.00    +0.169 HD
BRANCH  19  22
ATOM     22  C13 UNL     1      18.449   7.608  -2.277 +4.34 +0.00    +0.105 A 
ATOM     23  C14 UNL     1      17.753   6.859  -1.341+99.99 +0.00    +0.066 A 
ATOM     24  C11 UNL     1      16.373   7.129  -1.488 +2.93 +0.00    +0.053 A 
ATOM     25  C12 UNL     1      16.249   8.008  -2.541+13.04 +0.00    +0.120 A 
ATOM     26  N6  UNL     1      17.502   8.266  -3.034 -0.16 -0.00    -0.354 N 
ATOM     27  C52 UNL     1      17.759   9.055  -4.220 +0.70 +0.00    +0.156 C 
BRANCH  24  28
ATOM     28  N5  UNL     1      15.288   6.656  -0.782 +6.37 -0.00    -0.320 N 
ATOM     29  C10 UNL     1      14.748   7.222   0.356+27.39 +0.00    +0.275 C 
ATOM     30  O3  UNL     1      15.167   8.249   0.882 +0.23 -0.00    -0.266 OA
ATOM     31  H50 UNL     1      14.836   5.811  -1.123 +5.30 +0.00    +0.169 HD
BRANCH  29  32
ATOM     32  C8  UNL     1      13.606   6.485   0.893+16.17 +0.00    +0.138 A 
ATOM     33  C9  UNL     1      13.338   6.070   2.190+12.14 +0.00    +0.126 A 
ATOM     34  C6  UNL     1      12.100   5.383   2.230 +9.74 +0.00    +0.086 A 
ATOM     35  C7  UNL     1      11.623   5.389   0.939 +2.93 +0.00    +0.123 A 
ATOM     36  N4  UNL     1      12.527   6.050   0.142 -0.30 -0.00    -0.352 N 
ATOM     37  C53 UNL     1      12.347   6.251  -1.282 -0.35 +0.00    +0.156 C 
BRANCH  33  38
ATOM     38  O2  UNL     1      14.181   6.320   3.212 +1.66 -0.00    -0.356 OA
ATOM     39  H60 UNL     1      14.961   6.813   2.870 -0.41 +0.00    +0.218 HD
ENDBRANCH  33  38
BRANCH  34  40
ATOM     40  N3  UNL     1      11.399   4.788   3.259 +2.03 -0.00    -0.317 N 
ATOM     41  C5  UNL     1      10.229   4.067   3.160 +2.34 +0.00    +0.290 C 
ATOM     42  O1  UNL     1       9.630   3.851   2.106 +0.75 -0.00    -0.264 OA
ATOM     43  H49 UNL     1      11.771   4.878   4.201 +0.05 +0.00    +0.169 HD
BRANCH  41  44
ATOM     44  C4  UNL     1       9.776   3.584   4.458 -0.27 +0.00    +0.176 A 
ATOM     45  N1  UNL     1       8.478   3.482   4.900 -0.16 -0.00    -0.342 N 
ATOM     46  C1  UNL     1       7.292   3.836   4.159 -0.22 +0.00    +0.157 C 
ATOM     47  C2  UNL     1       8.503   2.984   6.173 +1.09 +0.00    +0.109 A 
ATOM     48  C3  UNL     1       9.833   2.798   6.461 +0.68 +0.00    +0.107 A 
ATOM     49  N2  UNL     1      10.616   3.171   5.399 -0.26 -0.00    -0.346 N 
ATOM     50  H2  UNL     1      11.634   3.137   5.344 +0.09 +0.00    +0.167 HD
ENDBRANCH  41  44
ENDBRANCH  34  40
ENDBRANCH  29  32
ENDBRANCH  24  28
ENDBRANCH  19  22
ENDBRANCH  14  18
ENDBRANCH   9  12
ENDBRANCH   7   8
ENDBRANCH   6   7
ENDBRANCH   5   6
BRANCH   5  51
ATOM     51  N20 UNL     1      25.768   4.305   0.194 -0.39 +0.00    +0.092 N 
ATOM     52  H58 UNL     1      24.767   4.388   0.405 +0.23 +0.00    +0.313 HD
ATOM     53  H59 UNL     1      25.898   3.296   0.098 +0.38 +0.00    +0.313 HD
ENDBRANCH   5  51
ENDBRANCH   1   5
BRANCH   2  54
ATOM     54  C25 UNL     1      24.784   7.984   2.268 -0.34 +0.00    +0.125 A 
ATOM     55  C26 UNL     1      25.124   9.315   2.229 -0.42 +0.00    +0.140 A 
ATOM     56  N11 UNL     1      24.101   9.962   2.868 -0.24 -0.00    -0.339 N 
ATOM     57  C27 UNL     1      23.190   9.015   3.269 -0.33 +0.00    +0.178 A 
ATOM     58  C50 UNL     1      24.002  11.386   3.076+34.13 +0.00    +0.157 C 
ATOM     59  N12 UNL     1      23.598   7.808   2.909 +0.70 -0.00    -0.323 N 
ATOM     60  H12 UNL     1      23.119   6.923   3.078 +2.93 +0.00    +0.169 HD
BRANCH  57  61
ATOM     61  C28 UNL     1      21.943   9.228   3.986 +0.59 +0.00    +0.290 C 
ATOM     62  N13 UNL     1      20.993   8.290   3.645 +1.80 -0.00    -0.317 N 
ATOM     63  H54 UNL     1      21.296   7.601   2.956 +0.37 +0.00    +0.169 HD
ATOM     64  O7  UNL     1      21.768  10.137   4.796 +8.81 -0.00    -0.264 OA
BRANCH  62  65
ATOM     65  C29 UNL     1      19.705   8.193   4.132 +0.58 +0.00    +0.086 A 
ATOM     66  C30 UNL     1      19.376   7.309   5.133+13.19 +0.00    +0.123 A 
ATOM     67  N14 UNL     1      18.036   7.437   5.407+13.28 -0.00    -0.352 N 
ATOM     68  C31 UNL     1      17.467   8.404   4.593 +0.11 +0.00    +0.138 A 
ATOM     69  C49 UNL     1      17.343   6.658   6.413+42.72 +0.00    +0.156 C 
ATOM     70  C32 UNL     1      18.506   8.871   3.802 -0.33 +0.00    +0.126 A 
BRANCH  68  71
ATOM     71  C33 UNL     1      16.058   8.792   4.624 +0.27 +0.00    +0.275 C 
ATOM     72  N15 UNL     1      15.464   8.823   3.378 -0.24 -0.00    -0.320 N 
ATOM     73  H55 UNL     1      16.056   8.582   2.587 +0.09 +0.00    +0.169 HD
ATOM     74  O9  UNL     1      15.476   9.062   5.671+23.07 -0.00    -0.266 OA
BRANCH  72  75
ATOM     75  C34 UNL     1      14.152   9.153   3.113 +1.83 +0.00    +0.053 A 
ATOM     76  C35 UNL     1      13.730  10.448   2.938+99.99 +0.00    +0.120 A 
ATOM     77  N16 UNL     1      12.381  10.431   2.686+49.51 -0.00    -0.354 N 
ATOM     78  C36 UNL     1      11.903   9.131   2.705+45.20 +0.00    +0.105 A 
ATOM     79  C48 UNL     1      11.591  11.623   2.455+73.49 +0.00    +0.156 C 
ATOM     80  C37 UNL     1      13.013   8.329   2.962 +1.38 +0.00    +0.066 A 
BRANCH  78  81
ATOM     81  C38 UNL     1      10.506   8.758   2.476+28.73 +0.00    +0.273 C 
ATOM     82  N17 UNL     1      10.277   8.157   1.251 +3.76 -0.00    -0.320 N 
ATOM     83  H56 UNL     1      11.066   7.991   0.644 +0.21 +0.00    +0.169 HD
ATOM     84  O10 UNL     1       9.638   8.961   3.320 -0.17 -0.00    -0.266 OA
BRANCH  82  85
ATOM     85  C39 UNL     1       9.057   7.717   0.774 +0.02 +0.00    +0.053 A 
ATOM     86  C40 UNL     1       8.165   8.378  -0.035 +0.98 +0.00    +0.120 A 
ATOM     87  N18 UNL     1       7.076   7.568  -0.235 -0.25 -0.00    -0.354 N 
ATOM     88  C41 UNL     1       7.278   6.347   0.377 -0.22 +0.00    +0.104 A 
ATOM     89  C47 UNL     1       5.872   8.002  -0.911 +1.91 +0.00    +0.156 C 
ATOM     90  C42 UNL     1       8.487   6.451   1.052 -0.22 +0.00    +0.066 A 
BRANCH  88  91
ATOM     91  C43 UNL     1       6.393   5.202   0.374 -0.11 +0.00    +0.268 C 
ATOM     92  N19 UNL     1       7.008   4.012   0.704 +0.01 -0.00    -0.356 N 
ATOM     93  H57 UNL     1       7.922   4.070   1.133 +0.07 +0.00    +0.162 HD
ATOM     94  O11 UNL     1       5.189   5.283   0.157 -0.20 -0.00    -0.266 OA
BRANCH  92  95
ATOM     95  C44 UNL     1       6.245   2.794   0.884 -0.10 +0.00    +0.125 C 
BRANCH  95  96
ATOM     96  C45 UNL     1       6.574   2.109   2.206 -0.27 +0.00    +0.046 C 
BRANCH  96  97
ATOM     97  C46 UNL     1       5.322   1.904   3.047 -0.24 +0.00    +0.165 C 
BRANCH  97  98
ATOM     98  O12 UNL     1       5.433   2.612   4.274 -0.12 -0.00    -0.401 OA
ATOM     99  H62 UNL     1       5.599   1.966   4.982 -0.46 +0.00    +0.209 HD
ENDBRANCH  97  98
ENDBRANCH  96  97
ENDBRANCH  95  96
ENDBRANCH  92  95
ENDBRANCH  88  91
ENDBRANCH  82  85
ENDBRANCH  78  81
ENDBRANCH  72  75
ENDBRANCH  68  71
BRANCH  70 100
ATOM    100  O8  UNL     1      18.327   9.833   2.876 -0.22 -0.00    -0.356 OA
ATOM    101  H61 UNL     1      17.534   9.613   2.335 +0.18 +0.00    +0.218 HD
ENDBRANCH  70 100
ENDBRANCH  62  65
ENDBRANCH  57  61
ENDBRANCH   2  54
TORSDOF 26
TER
