USER    Run = 1
USER    DPF = ligand_156_receptor.dpf
USER  
USER    Estimated Free Energy of Binding    =   +1.97 kcal/mol  [=(1)+(2)+(3)-(4)]
USER    
USER    (1) Final Intermolecular Energy     =   +0.78 kcal/mol
USER        vdW + Hbond + desolv Energy     =   +0.78 kcal/mol
USER        Electrostatic Energy            =   +0.00 kcal/mol
USER    (2) Final Total Internal Energy     =   -9.57 kcal/mol
USER    (3) Torsional Free Energy           =   +1.19 kcal/mol
USER    (4) Unbound System's Energy  [=(2)] =   -9.57 kcal/mol
USER    
USER    
USER    NEWDPF move ligand_156.pdbqt
USER    NEWDPF about 0.000000 0.000000 0.000000
USER    NEWDPF tran0 8.203774 5.237698 2.232132
USER    NEWDPF quaternion0 0.302338 -0.116943 -0.192272 0.926255
USER    NEWDPF axisangle0 0.802173 -0.310276 -0.510143 44.283365
USER    NEWDPF quat0 0.802173 -0.310276 -0.510143 44.283365
USER    NEWDPF dihe0 -120.53 -40.65 -6.32 -159.39 180.00 48.35 71.15 116.21 180.00 125.08 -25.05 -28.76 168.90 180.00 132.63 114.26 180.00 -98.90 57.10 -76.90 112.53 -157.22 -20.72 
USER  keepresnum = 1 
USER  
REMARK  23 active torsions:
REMARK  status: ('A' for Active; 'I' for Inactive)
REMARK    1  A    between atoms: C2_2  and  O16_60 
REMARK    2  A    between atoms: C3_3  and  C32_32 
REMARK    3  A    between atoms: C5_5  and  C10_10 
REMARK    4  A    between atoms: C6_6  and  O3_47 
REMARK    5  A    between atoms: C8_8  and  O2_46 
REMARK    6  A    between atoms: C13_13  and  O5_49 
REMARK    7  A    between atoms: C15_15  and  O4_48 
REMARK    8  A    between atoms: C17_17  and  O9_53 
REMARK    9  A    between atoms: C18_18  and  C19_19 
REMARK   10  A    between atoms: C21_21  and  O8_52 
REMARK   11  A    between atoms: C22_22  and  O7_51 
REMARK   12  A    between atoms: C25_25  and  C26_26 
REMARK   13  A    between atoms: C25_25  and  O9_53 
REMARK   14  A    between atoms: C28_28  and  O13_57 
REMARK   15  A    between atoms: C29_29  and  O12_56 
REMARK   16  A    between atoms: C30_30  and  O11_55 
REMARK   17  A    between atoms: C34_34  and  O15_59 
REMARK   18  A    between atoms: C35_35  and  O14_58 
REMARK   19  A    between atoms: C38_38  and  C39_39 
REMARK   20  A    between atoms: C38_38  and  O16_60 
REMARK   21  A    between atoms: C41_41  and  O20_64 
REMARK   22  A    between atoms: C42_42  and  O19_63 
REMARK   23  A    between atoms: C43_43  and  O18_62 
USER                              x       y       z     vdW  Elec       q    Type
USER                           _______ _______ _______ _____ _____    ______ ____
ROOT
ATOM      1  C1  UNL     1       6.413   2.089   0.670 -0.15 +0.00    +0.080 C 
ATOM      2  C2  UNL     1       5.521   3.227   1.172 -0.07 +0.00    +0.170 C 
ATOM      3  C3  UNL     1       6.411   4.396   1.617 -0.08 +0.00    +0.192 C 
ATOM      4  C4  UNL     1       8.117   2.955   2.337 -0.20 +0.00    +0.093 A 
ATOM      5  C5  UNL     1       9.363   2.909   3.009 +0.10 +0.00    +0.047 A 
ATOM      6  C6  UNL     1      10.245   1.877   2.648 +5.45 +0.00    +0.082 A 
ATOM      7  C7  UNL     1       9.897   0.919   1.701 +0.15 +0.00    +0.074 A 
ATOM      8  C8  UNL     1       8.657   0.978   1.074 -0.19 +0.00    +0.077 A 
ATOM      9  C9  UNL     1       7.743   1.993   1.376 -0.23 +0.00    +0.012 A 
ATOM     10  O1  UNL     1       7.262   3.972   2.692 -0.05 -0.00    -0.337 OA
ENDROOT
BRANCH   5  11
ATOM     11  C10 UNL     1       9.714   3.908   4.051 -0.29 +0.00    +0.047 A 
ATOM     12  C11 UNL     1      10.285   5.156   3.706 -0.18 +0.00    +0.093 A 
ATOM     13  C12 UNL     1      10.661   6.094   4.684 -0.29 +0.00    +0.012 A 
ATOM     14  O6  UNL     1      10.487   5.403   2.366 -0.03 -0.00    -0.337 OA
ATOM     15  C13 UNL     1      10.421   5.792   6.027 -0.26 +0.00    +0.077 A 
ATOM     16  C16 UNL     1      11.286   7.415   4.309 -0.39 +0.00    +0.080 C 
ATOM     17  C14 UNL     1       9.842   4.586   6.399 -0.34 +0.00    +0.074 A 
ATOM     18  C15 UNL     1       9.495   3.658   5.418 -0.37 +0.00    +0.082 A 
ATOM     19  C17 UNL     1      11.616   7.516   2.820 -0.25 +0.00    +0.170 C 
ATOM     20  C18 UNL     1      10.505   6.802   2.035 -0.26 +0.00    +0.192 C 
BRANCH  15  21
ATOM     21  O5  UNL     1      10.762   6.713   6.978 +0.01 -0.00    -0.360 OA
ATOM     22  H24 UNL     1      10.276   7.536   6.804 +0.16 +0.00    +0.217 HD
ENDBRANCH  15  21
BRANCH  18  23
ATOM     23  O4  UNL     1       8.935   2.499   5.890 +0.60 -0.00    -0.360 OA
ATOM     24  H23 UNL     1       8.169   2.258   5.340 -0.44 +0.00    +0.217 HD
ENDBRANCH  18  23
BRANCH  19  25
ATOM     25  O9  UNL     1      12.889   6.860   2.605 -0.30 -0.00    -0.309 OA
BRANCH  25  26
ATOM     26  C25 UNL     1      13.747   6.828   3.649 -0.04 +0.00    +0.294 C 
ATOM     27  O10 UNL     1      13.558   6.281   4.723 -0.32 -0.00    -0.259 OA
BRANCH  26  28
ATOM     28  C26 UNL     1      14.997   7.559   3.318 +0.16 +0.00    +0.045 A 
ATOM     29  C27 UNL     1      16.082   7.628   4.208 -0.34 +0.00    +0.057 A 
ATOM     30  C28 UNL     1      17.224   8.326   3.835 -0.48 +0.00    +0.102 A 
ATOM     31  C29 UNL     1      17.298   8.950   2.598 -0.41 +0.00    +0.132 A 
ATOM     32  C30 UNL     1      16.228   8.884   1.713 -0.41 +0.00    +0.102 A 
ATOM     33  C31 UNL     1      15.074   8.191   2.062 +1.06 +0.00    +0.057 A 
BRANCH  30  34
ATOM     34  O13 UNL     1      18.276   8.395   4.700 +0.03 -0.00    -0.358 OA
ATOM     35  H29 UNL     1      18.991   8.828   4.191 +0.15 +0.00    +0.217 HD
ENDBRANCH  30  34
BRANCH  31  36
ATOM     36  O12 UNL     1      18.438   9.631   2.263 -0.21 -0.00    -0.356 OA
ATOM     37  H28 UNL     1      19.123   9.262   2.858 +0.16 +0.00    +0.218 HD
ENDBRANCH  31  36
BRANCH  32  38
ATOM     38  O11 UNL     1      16.357   9.518   0.509 -0.28 -0.00    -0.358 OA
ATOM     39  H27 UNL     1      17.239   9.929   0.472 +0.17 +0.00    +0.217 HD
ENDBRANCH  32  38
ENDBRANCH  26  28
ENDBRANCH  25  26
ENDBRANCH  19  25
BRANCH  20  40
ATOM     40  C19 UNL     1      10.631   6.974   0.528 -0.26 -0.00    -0.024 A 
ATOM     41  C20 UNL     1       9.568   7.454  -0.256 -0.23 +0.00    +0.049 A 
ATOM     42  C21 UNL     1       9.736   7.609  -1.626 -0.32 +0.00    +0.099 A 
ATOM     43  C22 UNL     1      10.936   7.260  -2.236 -0.26 +0.00    +0.098 A 
ATOM     44  C23 UNL     1      12.001   6.792  -1.484 -0.28 +0.00    +0.040 A 
ATOM     45  C24 UNL     1      11.847   6.647  -0.104 -0.38 +0.00    +0.013 A 
BRANCH  42  46
ATOM     46  O8  UNL     1       8.711   8.134  -2.359 -0.26 -0.00    -0.358 OA
ATOM     47  H26 UNL     1       8.870   7.869  -3.283 +0.08 +0.00    +0.217 HD
ENDBRANCH  42  46
BRANCH  43  48
ATOM     48  O7  UNL     1      11.070   7.348  -3.592 -0.21 -0.00    -0.358 OA
ATOM     49  H25 UNL     1      10.394   7.993  -3.877 +0.14 +0.00    +0.217 HD
ENDBRANCH  43  48
ENDBRANCH  20  40
ENDBRANCH   5  11
BRANCH   6  50
ATOM     50  O3  UNL     1      11.489   1.734   3.205 +1.56 -0.00    -0.360 OA
ATOM     51  H22 UNL     1      11.460   1.031   3.878 +0.03 +0.00    +0.217 HD
ENDBRANCH   6  50
BRANCH   8  52
ATOM     52  O2  UNL     1       8.410  -0.003   0.155 -0.17 -0.00    -0.360 OA
ATOM     53  H21 UNL     1       9.194  -0.558   0.032 +0.12 +0.00    +0.217 HD
ENDBRANCH   8  52
BRANCH   3  54
ATOM     54  C32 UNL     1       5.621   5.623   2.048 -0.20 -0.00    -0.024 A 
ATOM     55  C33 UNL     1       4.366   5.456   2.661 -0.17 +0.00    +0.049 A 
ATOM     56  C34 UNL     1       3.633   6.572   3.048 -0.06 +0.00    +0.099 A 
ATOM     57  C35 UNL     1       4.136   7.853   2.842 +1.24 +0.00    +0.098 A 
ATOM     58  C36 UNL     1       5.373   8.042   2.247 +1.22 +0.00    +0.040 A 
ATOM     59  C37 UNL     1       6.114   6.928   1.850 -0.33 +0.00    +0.013 A 
BRANCH  56  60
ATOM     60  O15 UNL     1       2.401   6.459   3.630 -0.10 -0.00    -0.358 OA
ATOM     61  H31 UNL     1       2.415   6.961   4.464 +0.06 +0.00    +0.217 HD
ENDBRANCH  56  60
BRANCH  57  62
ATOM     62  O14 UNL     1       3.406   8.941   3.226 +0.18 -0.00    -0.358 OA
ATOM     63  H30 UNL     1       2.481   8.624   3.227 +0.06 +0.00    +0.217 HD
ENDBRANCH  57  62
ENDBRANCH   3  54
BRANCH   2  64
ATOM     64  O16 UNL     1       4.751   2.723   2.290 -0.05 -0.00    -0.309 OA
BRANCH  64  65
ATOM     65  C38 UNL     1       5.458   2.332   3.377 -0.16 +0.00    +0.294 C 
ATOM     66  O17 UNL     1       6.198   1.364   3.444 -0.32 -0.00    -0.259 OA
BRANCH  65  67
ATOM     67  C39 UNL     1       5.189   3.234   4.526 -0.21 +0.00    +0.045 A 
ATOM     68  C40 UNL     1       6.159   4.118   5.024 -0.25 +0.00    +0.057 A 
ATOM     69  C41 UNL     1       5.842   4.935   6.101 -0.32 +0.00    +0.102 A 
ATOM     70  C42 UNL     1       4.581   4.888   6.678 -0.31 +0.00    +0.132 A 
ATOM     71  C43 UNL     1       3.616   4.017   6.185 -0.25 +0.00    +0.102 A 
ATOM     72  C44 UNL     1       3.910   3.185   5.112 -0.22 +0.00    +0.057 A 
BRANCH  69  73
ATOM     73  O20 UNL     1       6.785   5.793   6.591 -0.18 -0.00    -0.358 OA
ATOM     74  H34 UNL     1       6.274   6.544   6.955 +0.12 +0.00    +0.217 HD
ENDBRANCH  69  73
BRANCH  70  75
ATOM     75  O19 UNL     1       4.301   5.709   7.736 +0.03 -0.00    -0.356 OA
ATOM     76  H33 UNL     1       5.173   6.071   8.000 +0.10 +0.00    +0.218 HD
ENDBRANCH  70  75
BRANCH  71  77
ATOM     77  O18 UNL     1       2.390   4.017   6.788 -0.11 -0.00    -0.358 OA
ATOM     78  H32 UNL     1       2.413   4.644   7.533 +0.08 +0.00    +0.217 HD
ENDBRANCH  71  77
ENDBRANCH  65  67
ENDBRANCH  64  65
ENDBRANCH   2  64
TORSDOF 23
TER
