USER    Run = 1
USER    DPF = ligand_382_receptor.dpf
USER  
USER    Estimated Free Energy of Binding    =  +2.86e+007 kcal/mol  [=(1)+(2)+(3)-(4)]
USER    
USER    (1) Final Intermolecular Energy     =  +2.86e+007 kcal/mol
USER        vdW + Hbond + desolv Energy     =  +1.44e+007 kcal/mol
USER        Electrostatic Energy            =  +1.42e+007 kcal/mol
USER    (2) Final Total Internal Energy     =   +0.00 kcal/mol
USER    (3) Torsional Free Energy           =   +1.19 kcal/mol
USER    (4) Unbound System's Energy  [=(2)] =   +0.00 kcal/mol
USER    
USER    
USER    NEWDPF move ligand_382.pdbqt
USER    NEWDPF about 0.000000 0.000000 0.000000
USER    NEWDPF tran0 18.259700 7.195234 3.868811
USER    NEWDPF quaternion0 0.090685 -0.913149 0.252508 0.306880
USER    NEWDPF axisangle0 0.095283 -0.959444 0.265309 144.257416
USER    NEWDPF quat0 0.095283 -0.959444 0.265309 144.257416
USER  keepresnum = 1 
USER  
REMARK  0 active torsions:
REMARK  status: ('A' for Active; 'I' for Inactive)
REMARK       I    between atoms: C4_4  and  C5_5 
REMARK       I    between atoms: C5_5  and  N3_81 
REMARK       I    between atoms: C6_6  and  N3_81 
REMARK       I    between atoms: C8_8  and  C9_9 
REMARK       I    between atoms: C9_9  and  N6_85 
REMARK       I    between atoms: C10_10  and  N6_85 
REMARK       I    between atoms: C12_12  and  C14_14 
REMARK       I    between atoms: C14_14  and  N8_87 
REMARK       I    between atoms: C15_15  and  N8_87 
REMARK       I    between atoms: C17_17  and  C19_19 
REMARK       I    between atoms: C19_19  and  N10_89 
REMARK       I    between atoms: C20_20  and  C21_21 
REMARK       I    between atoms: C20_20  and  N10_89 
REMARK       I    between atoms: C21_21  and  C22_22 
REMARK       I    between atoms: C22_22  and  C23_23 
REMARK       I    between atoms: C22_22  and  N24_104 
REMARK       I    between atoms: C23_23  and  N11_90 
REMARK       I    between atoms: C24_24  and  N11_90 
REMARK       I    between atoms: C26_26  and  C27_27 
REMARK       I    between atoms: C27_27  and  N14_94 
REMARK       I    between atoms: C28_28  and  N14_94 
REMARK       I    between atoms: C30_30  and  C32_32 
REMARK       I    between atoms: C32_32  and  N16_96 
REMARK       I    between atoms: C33_33  and  N16_96 
REMARK       I    between atoms: C35_35  and  C37_37 
REMARK       I    between atoms: C37_37  and  N18_98 
REMARK       I    between atoms: C38_38  and  N18_98 
REMARK       I    between atoms: C40_40  and  C42_42 
REMARK       I    between atoms: C42_42  and  N20_100 
REMARK       I    between atoms: C43_43  and  C44_44 
REMARK       I    between atoms: C43_43  and  N20_100 
REMARK       I    between atoms: C44_44  and  C45_45 
REMARK       I    between atoms: C45_45  and  N21_101 
REMARK       I    between atoms: C47_47  and  C48_48 
REMARK       I    between atoms: C47_47  and  N21_101 
REMARK       I    between atoms: C48_48  and  C49_49 
REMARK       I    between atoms: C49_49  and  N22_102 
REMARK       I    between atoms: C50_50  and  N22_102 
REMARK       I    between atoms: C50_50  and  N23_103 
REMARK       I    between atoms: C51_51  and  N23_103 
REMARK       I    between atoms: C53_53  and  C70_70 
REMARK       I    between atoms: C54_54  and  C57_57 
REMARK       I    between atoms: C68_68  and  O12_116 
REMARK       I    between atoms: C70_70  and  O14_118 
USER                              x       y       z     vdW  Elec       q    Type
USER                           _______ _______ _______ _____ _____    ______ ____
ROOT
ATOM      1  C1  UNL     1      -2.464   2.093 -10.394+99.99+99.99    +0.157 C 
ATOM      2  C2  UNL     1      -3.821   0.597 -11.869+99.99+99.99    +0.109 A 
ATOM      3  C3  UNL     1      -3.990  -0.765 -11.924+99.99+99.99    +0.107 A 
ATOM      4  C4  UNL     1      -2.618  -0.415 -10.302+99.99+99.99    +0.176 A 
ATOM      5  C5  UNL     1      -1.715  -0.670  -9.183+99.99+99.99    +0.291 C 
ATOM      6  C6  UNL     1      -0.859  -2.592  -7.949+99.99+99.99    +0.125 A 
ATOM      7  C7  UNL     1      -0.774  -3.942  -7.704+99.99+99.99    +0.140 A 
ATOM      8  C8  UNL     1       0.497  -2.793  -6.297+99.99+99.99    +0.178 A 
ATOM      9  C9  UNL     1       1.418  -2.424  -5.229+99.99+99.99    +0.290 C 
ATOM     10  C10 UNL     1       2.381  -0.349  -4.299 -0.04 +0.00    +0.053 A 
ATOM     11  C11 UNL     1       3.175  -0.837  -3.294 +0.02 +0.00    +0.120 A 
ATOM     12  C12 UNL     1       3.401   1.417  -3.262 -0.02 +0.00    +0.105 A 
ATOM     13  C13 UNL     1       2.526   1.060  -4.285 +0.00 +0.00    +0.066 A 
ATOM     14  C14 UNL     1       3.875   2.735  -2.842 -0.04 +0.00    +0.273 C 
ATOM     15  C15 UNL     1       3.422   5.128  -3.166+99.99 +0.00    +0.053 A 
ATOM     16  C16 UNL     1       2.663   6.130  -3.720+99.99 +0.00    +0.120 A 
ATOM     17  C17 UNL     1       4.270   7.138  -2.484+99.99 +0.00    +0.104 A 
ATOM     18  C18 UNL     1       4.428   5.757  -2.396+99.99 +0.00    +0.066 A 
ATOM     19  C19 UNL     1       5.050   8.209  -1.881+15.38 +0.00    +0.268 C 
ATOM     20  C20 UNL     1       6.890   8.737  -0.312 +1.44 +0.00    +0.125 C 
ATOM     21  C21 UNL     1       8.042   9.223  -1.198+77.23 +0.00    +0.065 C 
ATOM     22  C22 UNL     1       8.855   8.089  -1.835 -0.14 +0.00    +0.310 C 
ATOM     23  C23 UNL     1       9.427   7.151  -0.752 -0.23 +0.00    +0.256 C 
ATOM     24  C24 UNL     1      11.399   6.984   0.684 -0.10 +0.00    +0.125 A 
ATOM     25  C25 UNL     1      11.112   5.900   1.473 -0.07 +0.00    +0.140 A 
ATOM     26  C26 UNL     1      13.107   6.735   1.965 +1.05 +0.00    +0.178 A 
ATOM     27  C27 UNL     1      14.411   6.957   2.576+40.86 +0.00    +0.290 C 
ATOM     28  C28 UNL     1      16.299   8.519   2.365 -0.46 +0.00    +0.053 A 
ATOM     29  C29 UNL     1      16.880   9.605   1.760 -0.39 +0.00    +0.120 A 
ATOM     30  C30 UNL     1      18.343   8.871   3.326 -0.43 +0.00    +0.105 A 
ATOM     31  C31 UNL     1      17.210   8.061   3.345 -0.53 +0.00    +0.066 A 
ATOM     32  C32 UNL     1      19.560   8.810   4.138 +1.06 +0.00    +0.273 C 
ATOM     33  C33 UNL     1      20.659   7.445   5.860+99.99 +0.00    +0.053 A 
ATOM     34  C34 UNL     1      20.663   6.346   6.685+99.99 +0.00    +0.120 A 
ATOM     35  C35 UNL     1      22.593   7.464   7.081+95.12 +0.00    +0.105 A 
ATOM     36  C36 UNL     1      21.865   8.141   6.106+99.99 +0.00    +0.066 A 
ATOM     37  C37 UNL     1      23.894   7.779   7.672+99.99 +0.00    +0.273 C 
ATOM     38  C38 UNL     1      25.612   9.535   7.719+99.99 +0.00    +0.053 A 
ATOM     39  C39 UNL     1      26.063  10.769   7.315+99.99 +0.00    +0.120 A 
ATOM     40  C40 UNL     1      27.644   9.913   8.690+89.66 +0.00    +0.104 A 
ATOM     41  C41 UNL     1      26.598   9.001   8.579+99.99 +0.00    +0.066 A 
ATOM     42  C42 UNL     1      28.875   9.828   9.455+42.15 +0.00    +0.268 C 
ATOM     43  C43 UNL     1      30.414   8.335  10.662+99.99 +0.00    +0.125 C 
ATOM     44  C44 UNL     1      30.291   8.731  12.134+99.99+99.99    +0.050 C 
ATOM     45  C45 UNL     1      31.676   8.792  12.786+99.99+99.99    +0.273 C 
ATOM     46  C46 UNL     1      31.077  10.335  14.575+99.99+99.99    +0.309 C 
ATOM     47  C47 UNL     1      31.181   7.944  15.029+99.99+99.99    +0.273 C 
ATOM     48  C48 UNL     1      31.714   7.908  16.474+99.99+99.99    +0.050 C 
ATOM     49  C49 UNL     1      33.241   7.792  16.547+99.99+99.99    +0.123 C 
ATOM     50  C50 UNL     1      34.344  10.047  16.873+99.99+99.99    +0.172 C 
ATOM     51  C51 UNL     1      34.875  11.540  14.885+99.99+99.99    +0.035 A 
ATOM     52  C52 UNL     1      34.846  12.898  14.552+99.99+99.99    +0.048 A 
ATOM     53  C53 UNL     1      35.013  13.320  13.223+99.99+99.99    +0.051 A 
ATOM     54  C54 UNL     1      35.199  12.377  12.198+99.99+99.99    -0.007 A 
ATOM     55  C55 UNL     1      35.273  11.019  12.547+99.99+99.99    +0.015 A 
ATOM     56  C56 UNL     1      35.129  10.609  13.878+99.99+99.99    +0.030 A 
ATOM     57  C57 UNL     1      35.297  12.728  10.753+99.99+99.99    +0.001 A 
ATOM     58  C58 UNL     1      34.171  12.966  10.025+99.99+99.99    +0.010 A 
ATOM     59  C59 UNL     1      32.824  12.873  10.606+99.99+99.99    +0.019 A 
ATOM     60  C60 UNL     1      31.728  13.184   9.901 -0.17 +0.00    +0.056 A 
ATOM     61  C61 UNL     1      31.831  13.616   8.491 -0.13 +0.00    +0.174 A 
ATOM     62  C62 UNL     1      33.176  13.627   7.881+99.99+99.99    +0.092 A 
ATOM     63  C63 UNL     1      34.265  13.321   8.597+99.99+99.99    +0.091 A 
ATOM     64  C64 UNL     1      36.633  13.117   8.686+99.99+99.99    +0.089 A 
ATOM     65  C65 UNL     1      36.603  12.820  10.049+99.99+99.99    +0.010 A 
ATOM     66  C66 UNL     1      37.829  12.622  10.709+99.99+99.99    +0.018 A 
ATOM     67  C67 UNL     1      39.043  12.707  10.019+99.99+99.99    +0.037 A 
ATOM     68  C68 UNL     1      39.036  12.996   8.660+99.99+99.99    +0.068 A 
ATOM     69  C69 UNL     1      37.840  13.202   7.988+99.99+99.99    +0.074 A 
ATOM     70  C70 UNL     1      34.928  14.775  12.985+99.99+99.99    +0.177 C 
ATOM     71  C71 UNL     1      28.080  12.187   7.686+99.99 +0.00    +0.156 C 
ATOM     72  C72 UNL     1      22.173   5.347   8.392+25.71 +0.00    +0.156 C 
ATOM     73  C73 UNL     1      19.006  10.882   1.948 -0.44 +0.00    +0.156 C 
ATOM     74  C74 UNL     1      12.364   4.728   3.289+99.99 +0.00    +0.157 C 
ATOM     75  C75 UNL     1       2.621   8.619  -3.689 +0.83 +0.00    +0.156 C 
ATOM     76  C76 UNL     1       4.711   0.079  -1.566 +1.05 +0.00    +0.156 C 
ATOM     77  C77 UNL     1       0.502  -5.292  -6.025+99.99+99.99    +0.157 C 
ATOM     78  N1  UNL     1      -2.949   0.808 -10.837+99.99+99.99    -0.342 N 
ATOM     79  N2  UNL     1      -3.246  -1.387 -10.955+99.99+99.99    -0.346 N 
ATOM     80  H2  UNL     1      -3.186  -2.389 -10.773+99.99+99.99    +0.167 HD
ATOM     81  N3  UNL     1      -1.621  -2.022  -8.928+99.99+99.99    -0.305 N 
ATOM     82  N4  UNL     1       0.092  -4.057  -6.650+99.99+99.99    -0.339 N 
ATOM     83  N5  UNL     1      -0.076  -1.893  -7.082+99.99+99.99    -0.323 N 
ATOM     84  H5  UNL     1       0.046  -0.881  -7.045+99.99+99.99    +0.169 HD
ATOM     85  N6  UNL     1       1.587  -1.053  -5.178+99.99+99.99    -0.319 N 
ATOM     86  N7  UNL     1       3.794   0.222  -2.679 -0.05 -0.00    -0.354 N 
ATOM     87  N8  UNL     1       3.167   3.789  -3.390 -0.03 -0.00    -0.320 N 
ATOM     88  N9  UNL     1       3.175   7.336  -3.308+99.99 -0.00    -0.354 N 
ATOM     89  N10 UNL     1       6.012   7.805  -0.983 +1.23 -0.00    -0.356 N 
ATOM     90  N11 UNL     1      10.656   7.571  -0.297 +0.10 -0.00    -0.310 N 
ATOM     91  N12 UNL     1      12.203   5.748   2.283 +0.91 -0.00    -0.339 N 
ATOM     92  N13 UNL     1      12.628   7.499   0.989 +3.51 -0.00    -0.323 N 
ATOM     93  H13 UNL     1      13.083   8.303   0.556+24.38 +0.00    +0.169 HD
ATOM     94  N14 UNL     1      15.055   8.042   2.015 +0.87 -0.00    -0.319 N 
ATOM     95  N15 UNL     1      18.106   9.816   2.340 -0.16 -0.00    -0.354 N 
ATOM     96  N16 UNL     1      19.621   7.724   4.993 +3.29 -0.00    -0.320 N 
ATOM     97  N17 UNL     1      21.827   6.358   7.412+33.69 -0.00    -0.354 N 
ATOM     98  N18 UNL     1      24.405   9.010   7.302+99.99 -0.00    -0.320 N 
ATOM     99  N19 UNL     1      27.284  10.994   7.903+99.99 -0.00    -0.354 N 
ATOM    100  N20 UNL     1      29.189   8.573   9.932+28.68 -0.00    -0.356 N 
ATOM    101  N21 UNL     1      31.719   9.061  14.233+99.99+99.99    +0.084 N 
ATOM    102  N22 UNL     1      33.885   9.023  16.102+99.99+99.99    -0.367 N 
ATOM    103  N23 UNL     1      34.680  11.211  16.241+99.99+99.99    -0.333 N 
ATOM    104  N24 UNL     1       9.966   8.673  -2.635 -0.44 +0.00    +0.092 N 
ATOM    105  O1  UNL     1      -1.137   0.229  -8.579+99.99+99.99    -0.264 OA
ATOM    106  O2  UNL     1       1.952  -3.247  -4.493+99.99+99.99    -0.264 OA
ATOM    107  O3  UNL     1       4.811   2.871  -2.060 -0.07 -0.00    -0.266 OA
ATOM    108  O4  UNL     1       4.883   9.397  -2.145 +5.01 -0.00    -0.266 OA
ATOM    109  O5  UNL     1       8.783   6.189  -0.339 -0.13 -0.00    -0.271 OA
ATOM    110  O6  UNL     1      14.860   6.251   3.476 +5.85 -0.00    -0.264 OA
ATOM    111  O7  UNL     1      20.441   9.661   4.051 +7.86 -0.00    -0.266 OA
ATOM    112  O8  UNL     1      24.463   7.003   8.436+99.99 -0.00    -0.266 OA
ATOM    113  O9  UNL     1      29.610  10.789   9.667 -0.10 -0.00    -0.266 OA
ATOM    114  O10 UNL     1      30.842  13.950   7.848 -0.18 -0.00    -0.288 OA
ATOM    115  O11 UNL     1      35.496  13.347   7.959+99.99+99.99    -0.309 OA
ATOM    116  O12 UNL     1      40.194  13.089   7.947+99.99+99.99    -0.361 OA
ATOM    117  O13 UNL     1      34.140  15.529  13.522+99.99+99.99    -0.646 OA
ATOM    118  O14 UNL     1      35.897  15.219  12.170+99.99+99.99    -0.773 OA
ATOM    119  S1  UNL     1      34.485  10.025  18.540+99.99+99.99    -0.041 SA
ATOM    120  H68 UNL     1      -2.172  -2.624  -9.529+99.99+99.99    +0.170 HD
ATOM    121  H69 UNL     1       1.060  -0.531  -5.875+99.99+99.99    +0.169 HD
ATOM    122  H70 UNL     1       2.374   3.584  -3.977 +0.02 +0.00    +0.169 HD
ATOM    123  H71 UNL     1       6.138   6.819  -0.789 -0.40 +0.00    +0.162 HD
ATOM    124  H72 UNL     1      11.081   8.356  -0.783 +0.03 +0.00    +0.170 HD
ATOM    125  H73 UNL     1      14.547   8.519   1.276 -0.11 +0.00    +0.169 HD
ATOM    126  H74 UNL     1      18.860   7.062   4.991 +0.38 +0.00    +0.169 HD
ATOM    127  H75 UNL     1      23.860   9.595   6.686 +6.39 +0.00    +0.169 HD
ATOM    128  H76 UNL     1      28.588   7.792   9.707+99.99 +0.00    +0.162 HD
ATOM    129  H77 UNL     1      33.498   9.324  15.210+99.99+99.99    +0.161 HD
ATOM    130  H78 UNL     1      34.790  11.976  16.902+99.99+99.99    +0.168 HD
ATOM    131  H79 UNL     1      10.398   7.918  -3.173 +0.20 +0.00    +0.313 HD
ATOM    132  H80 UNL     1       9.558   9.297  -3.335 +0.22 +0.00    +0.313 HD
ATOM    133  H81 UNL     1      40.943  12.931   8.544+99.99+99.99    +0.217 HD
ATOM    134  H82 UNL     1      35.747  16.185  12.106+99.99+99.99    +0.167 HD
ENDROOT
TORSDOF 35
TER
