USER    Run = 1
USER    DPF = ligand_307_receptor.dpf
USER  
USER    Estimated Free Energy of Binding    =  -12.00 kcal/mol  [=(1)+(2)+(3)-(4)]
USER    Estimated Inhibition Constant, Ki   =    1.59 nM (nanomolar)  [Temperature = 298.15 K]
USER    
USER    (1) Final Intermolecular Energy     =  -13.20 kcal/mol
USER        vdW + Hbond + desolv Energy     =  -13.20 kcal/mol
USER        Electrostatic Energy            =   +0.00 kcal/mol
USER    (2) Final Total Internal Energy     =   -2.26 kcal/mol
USER    (3) Torsional Free Energy           =   +1.19 kcal/mol
USER    (4) Unbound System's Energy  [=(2)] =   -2.26 kcal/mol
USER    
USER    
USER    NEWDPF move ligand_307.pdbqt
USER    NEWDPF about 0.000000 0.000000 0.000000
USER    NEWDPF tran0 16.206590 7.183356 2.187878
USER    NEWDPF quaternion0 -0.098919 0.725719 -0.680838 -0.002586
USER    NEWDPF axisangle0 -0.098920 0.725721 -0.680840 -179.703696
USER    NEWDPF quat0 -0.098920 0.725721 -0.680840 -179.703696
USER    NEWDPF dihe0 -180.00 -87.25 44.58 77.56 180.00 -41.15 -51.65 -149.07 -180.00 172.70 120.91 -84.21 -5.13 -43.64 
USER  keepresnum = 1 
USER  
REMARK  14 active torsions:
REMARK  status: ('A' for Active; 'I' for Inactive)
REMARK    1  A    between atoms: C3_3  and  N9_40 
REMARK    2  A    between atoms: C5_5  and  C6_6 
REMARK       I    between atoms: C6_6  and  N2_32 
REMARK    3  A    between atoms: C7_7  and  N2_32 
REMARK    4  A    between atoms: C9_9  and  C11_11 
REMARK       I    between atoms: C11_11  and  N4_34 
REMARK    5  A    between atoms: C12_12  and  N4_34 
REMARK    6  A    between atoms: C14_14  and  C16_16 
REMARK       I    between atoms: C16_16  and  N6_36 
REMARK    7  A    between atoms: C17_17  and  C18_18 
REMARK    8  A    between atoms: C17_17  and  N6_36 
REMARK    9  A    between atoms: C18_18  and  C19_19 
REMARK   10  A    between atoms: C19_19  and  N8_39 
REMARK   11  A    between atoms: C22_22  and  C23_23 
REMARK       I    between atoms: C22_22  and  N9_40 
REMARK   12  A    between atoms: C26_26  and  N10_41 
REMARK       I    between atoms: C29_29  and  N10_41 
REMARK       I    between atoms: C29_29  and  N11_42 
REMARK   13  A    between atoms: N11_42  and  N12_43 
REMARK   14  A    between atoms: N12_43  and  O6_50 
USER                              x       y       z     vdW  Elec       q    Type
USER                           _______ _______ _______ _____ _____    ______ ____
ROOT
ATOM      1  C6  UNL     1      17.348  10.512   2.805 -0.32 +0.00    +0.273 C 
ATOM      2  N2  UNL     1      16.866   9.218   2.880 -0.23 -0.00    -0.320 N 
ATOM      3  O1  UNL     1      16.749  11.503   3.214 -0.31 -0.00    -0.266 OA
ATOM      4  H27 UNL     1      17.391   8.486   2.427 +0.12 +0.00    +0.169 HD
ENDROOT
BRANCH   2   5
ATOM      5  C7  UNL     1      15.681   8.824   3.474 -0.45 +0.00    +0.053 A 
ATOM      6  C8  UNL     1      15.184   9.176   4.705 +0.59 +0.00    +0.120 A 
ATOM      7  N3  UNL     1      13.996   8.519   4.899 -0.16 -0.00    -0.354 N 
ATOM      8  C9  UNL     1      13.671   7.795   3.770 -0.39 +0.00    +0.105 A 
ATOM      9  C21 UNL     1      13.267   8.533   6.149 -0.23 +0.00    +0.156 C 
ATOM     10  C10 UNL     1      14.743   7.936   2.898 +0.06 +0.00    +0.066 A 
BRANCH   8  11
ATOM     11  C11 UNL     1      12.480   6.992   3.555 -0.29 +0.00    +0.273 C 
ATOM     12  N4  UNL     1      12.031   6.382   4.712 -0.14 -0.00    -0.320 N 
ATOM     13  H28 UNL     1      12.473   6.649   5.581 +0.13 +0.00    +0.169 HD
ATOM     14  O2  UNL     1      11.936   6.932   2.458 -0.31 -0.00    -0.266 OA
BRANCH  12  15
ATOM     15  C12 UNL     1      10.952   5.526   4.812 -0.27 +0.00    +0.053 A 
ATOM     16  C13 UNL     1      10.501   4.855   5.918 -0.27 +0.00    +0.120 A 
ATOM     17  N5  UNL     1       9.405   4.111   5.560 -0.15 -0.00    -0.354 N 
ATOM     18  C14 UNL     1       9.111   4.302   4.220 -0.24 +0.00    +0.104 A 
ATOM     19  C20 UNL     1       8.674   3.266   6.482 -0.23 +0.00    +0.156 C 
ATOM     20  C15 UNL     1      10.081   5.182   3.748 -0.20 +0.00    +0.066 A 
BRANCH  18  21
ATOM     21  C16 UNL     1       8.008   3.661   3.522 -0.17 +0.00    +0.268 C 
ATOM     22  N6  UNL     1       6.980   3.217   4.326 -0.09 -0.00    -0.355 N 
ATOM     23  H29 UNL     1       7.084   3.267   5.328 -0.35 +0.00    +0.162 HD
ATOM     24  O3  UNL     1       7.972   3.509   2.302 -0.12 -0.00    -0.266 OA
BRANCH  22  25
ATOM     25  C17 UNL     1       5.840   2.481   3.802 -0.21 +0.00    +0.130 C 
BRANCH  25  26
ATOM     26  C18 UNL     1       4.532   3.261   3.900 -0.17 +0.00    +0.089 C 
BRANCH  26  27
ATOM     27  C19 UNL     1       4.208   3.564   5.348 -0.28 +0.00    +0.049 C 
ATOM     28  N7  UNL     1       3.214   4.340   5.615 -0.03 -0.00    -0.393 N 
ATOM     29  H30 UNL     1       3.113   4.420   6.630 +0.06 +0.00    +0.157 HD
ATOM     30  H7  UNL     1       2.623   4.803   4.924 +0.05 +0.00    +0.157 HD
BRANCH  27  31
ATOM     31  N8  UNL     1       4.990   3.033   6.328 -0.68 -0.00    -0.293 NA
ATOM     32  H31 UNL     1       4.976   2.005   6.364 -0.51 +0.00    +0.125 HD
ATOM     33  H32 UNL     1       5.939   3.377   6.375 -0.27 +0.00    +0.125 HD
ENDBRANCH  27  31
ENDBRANCH  26  27
ENDBRANCH  25  26
ENDBRANCH  22  25
ENDBRANCH  18  21
ENDBRANCH  12  15
ENDBRANCH   8  11
ENDBRANCH   2   5
BRANCH   1  34
ATOM     34  C5  UNL     1      18.655  10.613   2.157 -0.39 +0.00    +0.105 A 
ATOM     35  C4  UNL     1      19.663   9.662   2.022 -0.26 +0.00    +0.066 A 
ATOM     36  C3  UNL     1      20.749  10.238   1.317 -0.43 +0.00    +0.053 A 
ATOM     37  C2  UNL     1      20.394  11.534   1.040 -0.38 +0.00    +0.120 A 
ATOM     38  N1  UNL     1      19.143  11.761   1.555 -0.29 -0.00    -0.354 N 
ATOM     39  C1  UNL     1      18.448  13.028   1.448 -0.63 +0.00    +0.156 C 
BRANCH  36  40
ATOM     40  N9  UNL     1      21.929   9.591   1.000 -0.21 -0.00    -0.322 N 
ATOM     41  C22 UNL     1      22.834   9.085   1.915 -0.31 +0.00    +0.256 C 
ATOM     42  O4  UNL     1      22.784   9.176   3.136 -0.34 -0.00    -0.267 OA
ATOM     43  H33 UNL     1      22.158   9.548   0.017 +0.12 +0.00    +0.169 HD
BRANCH  41  44
ATOM     44  C23 UNL     1      24.001   8.388   1.307 -0.42 +0.00    +0.032 A 
ATOM     45  C24 UNL     1      23.794   7.590   0.179 -0.47 +0.00    +0.019 A 
ATOM     46  C25 UNL     1      24.869   6.921  -0.418 -0.43 +0.00    +0.030 A 
ATOM     47  C26 UNL     1      26.160   7.048   0.100 -0.35 +0.00    +0.036 A 
ATOM     48  C27 UNL     1      26.366   7.877   1.212 -0.41 +0.00    +0.030 A 
ATOM     49  C28 UNL     1      25.294   8.542   1.818 -0.47 +0.00    +0.019 A 
BRANCH  47  50
ATOM     50  N10 UNL     1      27.295   6.425  -0.464 -0.14 -0.00    -0.307 N 
ATOM     51  C29 UNL     1      27.566   5.057  -0.501 -0.15 +0.00    +0.342 C 
ATOM     52  N11 UNL     1      28.655   4.730  -1.331 -0.09 -0.00    -0.228 N 
ATOM     53  O5  UNL     1      26.909   4.237   0.136 -0.93 -0.00    -0.245 OA
ATOM     54  C30 UNL     1      29.248   5.638  -2.300 -0.13 +0.00    +0.185 C 
ATOM     55  H34 UNL     1      28.077   7.034  -0.650 +0.09 +0.00    +0.170 HD
BRANCH  52  56
ATOM     56  N12 UNL     1      29.254   3.354  -1.334 -0.11 -0.00    -0.204 N 
ATOM     57  H12 UNL     1      30.255   3.192  -1.447 +0.08 +0.00    +0.216 HD
BRANCH  56  58
ATOM     58  O6  UNL     1      28.446   2.435  -1.189 -0.17 -0.00    -0.274 OA
ATOM     59  H6  UNL     1      27.541   2.710  -1.093 +0.09 +0.00    +0.246 HD
ENDBRANCH  56  58
ENDBRANCH  52  56
ENDBRANCH  47  50
ENDBRANCH  41  44
ENDBRANCH  36  40
ENDBRANCH   1  34
TORSDOF 14
TER
