USER    Run = 1
USER    DPF = ligand_58_receptor.dpf
USER  
USER    Estimated Free Energy of Binding    =  +6.56e+004 kcal/mol  [=(1)+(2)+(3)-(4)]
USER    
USER    (1) Final Intermolecular Energy     =  +6.56e+004 kcal/mol
USER        vdW + Hbond + desolv Energy     =  +6.56e+004 kcal/mol
USER        Electrostatic Energy            =   +0.00 kcal/mol
USER    (2) Final Total Internal Energy     =   -2.23 kcal/mol
USER    (3) Torsional Free Energy           =   +1.19 kcal/mol
USER    (4) Unbound System's Energy  [=(2)] =   -2.23 kcal/mol
USER    
USER    
USER    NEWDPF move ligand_58.pdbqt
USER    NEWDPF about 0.000000 0.000000 0.000000
USER    NEWDPF tran0 15.360541 9.955859 3.124632
USER    NEWDPF quaternion0 -0.747181 0.006064 -0.660806 -0.070844
USER    NEWDPF axisangle0 -0.749064 0.006080 -0.662470 -171.875062
USER    NEWDPF quat0 -0.749064 0.006080 -0.662470 -171.875062
USER    NEWDPF dihe0 142.93 -75.46 69.72 -122.07 104.23 142.38 -97.95 -178.70 -93.07 -172.84 24.80 80.54 140.54 63.86 
USER  keepresnum = 1 
USER  
REMARK  14 active torsions:
REMARK  status: ('A' for Active; 'I' for Inactive)
REMARK    1  A    between atoms: C4_4  and  N1_59 
REMARK       I    between atoms: C8_8  and  N1_59 
REMARK       I    between atoms: C8_8  and  N2_60 
REMARK    2  A    between atoms: C9_9  and  N2_60 
REMARK    3  A    between atoms: C10_10  and  C13_13 
REMARK    4  A    between atoms: C15_15  and  C19_19 
REMARK    5  A    between atoms: C18_18  and  N8_69 
REMARK    6  A    between atoms: C22_22  and  N9_70 
REMARK       I    between atoms: C26_26  and  N9_70 
REMARK       I    between atoms: C26_26  and  N10_71 
REMARK    7  A    between atoms: C27_27  and  N10_71 
REMARK    8  A    between atoms: C29_29  and  C31_31 
REMARK    9  A    between atoms: C33_33  and  C37_37 
REMARK   10  A    between atoms: C36_36  and  N16_80 
REMARK   11  A    between atoms: C40_40  and  N17_81 
REMARK       I    between atoms: C44_44  and  N17_81 
REMARK       I    between atoms: C44_44  and  N18_82 
REMARK   12  A    between atoms: C45_45  and  N18_82 
REMARK   13  A    between atoms: C47_47  and  C50_50 
REMARK   14  A    between atoms: C55_55  and  N23_89 
USER                              x       y       z     vdW  Elec       q    Type
USER                           _______ _______ _______ _____ _____    ______ ____
ROOT
ATOM      1  C27 UNL     1      17.203  10.975   3.250 +0.17 +0.00    +0.685 A 
ATOM      2  C28 UNL     1      18.851  11.571   4.729+99.99 +0.00    +0.120 A 
ATOM      3  C29 UNL     1      18.906  10.304   5.273+99.99 +0.00    +0.009 A 
ATOM      4  C30 UNL     1      18.023   9.409   4.708 +0.95 +0.00    +0.120 A 
ATOM      5  N11 UNL     1      18.015  11.931   3.730 +4.13 -0.00    -0.201 N 
ATOM      6  H11 UNL     1      18.000  12.882   3.359 +0.20 +0.00    +0.183 HD
ATOM      7  N12 UNL     1      17.168   9.722   3.713 -0.34 -0.00    -0.201 N 
ATOM      8  H12 UNL     1      16.522   9.032   3.329 +0.14 +0.00    +0.183 HD
ENDROOT
BRANCH   1   9
ATOM      9  N10 UNL     1      16.362  11.407   2.237 -0.41 -0.00    -0.141 N 
ATOM     10  C26 UNL     1      14.996  11.263   2.206 +1.05 +0.00    +0.339 C 
ATOM     11  N9  UNL     1      14.480  11.908   1.086 +0.70 -0.00    -0.305 N 
ATOM     12  O2  UNL     1      14.315  10.691   3.044+21.36 -0.00    -0.246 OA
ATOM     13  H35 UNL     1      14.965  12.760   0.845 +0.79 +0.00    +0.171 HD
ATOM     14  H36 UNL     1      16.850  11.632   1.388 +0.16 +0.00    +0.189 HD
BRANCH  11  15
ATOM     15  C22 UNL     1      13.147  11.787   0.632+23.51 +0.00    +0.075 A 
ATOM     16  C21 UNL     1      12.029  11.907   1.463+59.15 +0.00    +0.143 A 
ATOM     17  C20 UNL     1      10.739  11.775   0.954+99.99 +0.00    +0.057 A 
ATOM     18  F3  UNL     1      12.158  12.059   2.789+16.56 -0.00    -0.204 F 
ATOM     19  C19 UNL     1      10.538  11.502  -0.404+99.99 -0.00    -0.015 A 
ATOM     20  C24 UNL     1      11.652  11.335  -1.251+99.99 -0.00    -0.049 A 
ATOM     21  C23 UNL     1      12.948  11.473  -0.719+44.13 +0.00    +0.040 A 
ATOM     22  C25 UNL     1      11.489  11.021  -2.716 +1.84 +0.00    +0.049 C 
BRANCH  19  23
ATOM     23  C15 UNL     1       9.154  11.367  -0.891+99.99 -0.00    -0.007 A 
ATOM     24  C14 UNL     1       8.252  10.304  -0.447+99.99 +0.00    +0.030 A 
ATOM     25  C13 UNL     1       6.978  10.182  -0.894+99.99 +0.00    +0.025 A 
ATOM     26  C17 UNL     1       6.520  11.140  -1.859+99.99 +0.00    +0.111 A 
ATOM     27  C18 UNL     1       5.374  11.395  -2.568+99.99 +0.00    +0.141 A 
ATOM     28  N5  UNL     1       7.390  12.149  -2.267+99.99 -0.00    -0.246 N 
ATOM     29  N6  UNL     1       5.532  12.490  -3.354+99.99 -0.00    -0.267 N 
ATOM     30  N7  UNL     1       6.765  12.948  -3.170+99.99 -0.00    -0.014 NA
ATOM     31  H6  UNL     1       4.829  12.890  -3.975+99.99 +0.00    +0.186 HD
ATOM     32  C16 UNL     1       8.690  12.259  -1.785+99.99 +0.00    +0.127 A 
BRANCH  25  33
ATOM     33  C10 UNL     1       6.158   9.060  -0.387+18.53 +0.00    +0.060 A 
ATOM     34  C11 UNL     1       5.497   8.173  -1.222 +4.52 +0.00    +0.036 A 
ATOM     35  C12 UNL     1       4.768   7.124  -0.661+42.35 +0.00    +0.052 A 
ATOM     36  C9  UNL     1       4.728   6.992   0.715+29.64 +0.00    +0.123 A 
ATOM     37  N3  UNL     1       5.395   7.861   1.505 +1.57 -0.00    -0.285 N 
ATOM     38  N4  UNL     1       6.110   8.901   0.955 +3.98 -0.00    -0.298 N 
ATOM     39  H3  UNL     1       5.368   7.747   2.518 +0.08 +0.00    +0.188 HD
ATOM     40  H4  UNL     1       6.606   9.554   1.562 +1.94 +0.00    +0.187 HD
BRANCH  36  41
ATOM     41  N2  UNL     1       4.042   5.987   1.404 +0.61 -0.00    -0.293 N 
ATOM     42  C8  UNL     1       4.473   5.253   2.486 -0.10 +0.00    +0.326 C 
ATOM     43  N1  UNL     1       3.487   4.381   2.910 -0.06 -0.00    -0.306 N 
ATOM     44  O1  UNL     1       5.579   5.362   2.998 -0.11 -0.00    -0.247 OA
ATOM     45  H31 UNL     1       2.581   4.451   2.468 +0.02 +0.00    +0.171 HD
ATOM     46  H32 UNL     1       3.165   5.746   0.970 +0.44 +0.00    +0.172 HD
BRANCH  43  47
ATOM     47  C4  UNL     1       3.551   3.438   3.961 -0.10 +0.00    +0.075 A 
ATOM     48  C3  UNL     1       3.270   2.078   3.828 -0.16 +0.00    +0.039 A 
ATOM     49  C2  UNL     1       3.366   1.214   4.935 -0.24 -0.00    -0.060 A 
ATOM     50  C1  UNL     1       3.030  -0.241   4.783 +0.12 +0.00    +0.048 C 
ATOM     51  C7  UNL     1       3.723   1.730   6.188 +0.09 +0.00    +0.010 A 
ATOM     52  C6  UNL     1       4.003   3.087   6.331 -0.28 +0.00    +0.045 A 
ATOM     53  C5  UNL     1       3.917   3.923   5.223 -0.16 +0.00    +0.143 A 
ATOM     54  F1  UNL     1       4.187   5.230   5.374 -0.03 -0.00    -0.204 F 
ENDBRANCH  43  47
ENDBRANCH  36  41
ENDBRANCH  25  33
BRANCH  27  55
ATOM     55  N8  UNL     1       4.228  10.696  -2.546+85.26 -0.00    -0.383 N 
ATOM     56  H33 UNL     1       4.281   9.744  -2.201 +0.05 +0.00    +0.157 HD
ATOM     57  H34 UNL     1       3.379  11.171  -2.237 -0.19 +0.00    +0.157 HD
ENDBRANCH  27  55
ENDBRANCH  19  23
ENDBRANCH  11  15
ENDBRANCH   1   9
BRANCH   3  58
ATOM     58  C31 UNL     1      19.840   9.944   6.349+99.99 +0.00    +0.010 A 
ATOM     59  C32 UNL     1      20.945   9.238   6.007+45.52 +0.00    +0.028 A 
ATOM     60  C33 UNL     1      21.931   8.780   6.987 +6.69 -0.00    -0.007 A 
ATOM     61  C34 UNL     1      21.714   9.068   8.284 -0.00 +0.00    +0.127 A 
ATOM     62  N13 UNL     1      20.586   9.789   8.659 -0.26 -0.00    -0.246 N 
ATOM     63  C35 UNL     1      19.645  10.251   7.735+16.74 +0.00    +0.109 A 
ATOM     64  N15 UNL     1      20.214  10.166   9.908 +0.64 -0.00    -0.014 NA
ATOM     65  C36 UNL     1      18.737  10.928   8.511+58.76 +0.00    +0.141 A 
ATOM     66  N14 UNL     1      19.084  10.857   9.821+99.99 -0.00    -0.267 N 
ATOM     67  H14 UNL     1      18.568  11.264  10.601+12.56 +0.00    +0.186 HD
BRANCH  60  68
ATOM     68  C37 UNL     1      23.136   8.018   6.619+58.39 -0.00    -0.015 A 
ATOM     69  C38 UNL     1      23.006   6.643   6.385+99.99 +0.00    +0.057 A 
ATOM     70  C39 UNL     1      24.125   5.890   6.046+99.99 +0.00    +0.143 A 
ATOM     71  C40 UNL     1      25.393   6.467   5.930 +8.83 +0.00    +0.075 A 
ATOM     72  F2  UNL     1      23.977   4.574   5.827+99.99 -0.00    -0.204 F 
ATOM     73  C41 UNL     1      25.525   7.835   6.173+99.99 +0.00    +0.040 A 
ATOM     74  C42 UNL     1      24.405   8.623   6.516+99.99 -0.00    -0.049 A 
ATOM     75  C43 UNL     1      24.602  10.095   6.768+99.99 +0.00    +0.049 C 
BRANCH  71  76
ATOM     76  N17 UNL     1      26.459   5.605   5.587 +4.78 -0.00    -0.306 N 
ATOM     77  C44 UNL     1      26.803   5.140   4.329+99.99 +0.00    +0.325 C 
ATOM     78  N18 UNL     1      27.961   4.382   4.395+99.99 -0.00    -0.307 N 
ATOM     79  O3  UNL     1      26.175   5.370   3.304+99.99 -0.00    -0.247 OA
ATOM     80  H40 UNL     1      28.481   4.440   5.257+51.74 +0.00    +0.170 HD
ATOM     81  H39 UNL     1      26.937   5.197   6.379 -0.32 +0.00    +0.171 HD
BRANCH  78  82
ATOM     82  C45 UNL     1      28.577   3.671   3.341+99.99 +0.00    +0.051 A 
ATOM     83  C46 UNL     1      29.281   4.386   2.374+61.13 +0.00    +0.117 A 
ATOM     84  N19 UNL     1      29.922   3.834   1.315 -0.12 -0.00    -0.363 N 
ATOM     85  C47 UNL     1      29.867   2.486   1.194 -0.41 +0.00    +0.044 A 
ATOM     86  H19 UNL     1      30.423   4.410   0.638 +0.07 +0.00    +0.165 HD
ATOM     87  C48 UNL     1      29.203   1.687   2.119 -0.33 +0.00    +0.033 A 
ATOM     88  C49 UNL     1      28.552   2.288   3.199+15.73 +0.00    +0.033 A 
BRANCH  85  89
ATOM     89  C50 UNL     1      30.572   1.893   0.033 -0.23 +0.00    +0.023 A 
ATOM     90  C51 UNL     1      30.970   0.601   0.154 +4.27 +0.00    +0.017 A 
ATOM     91  C52 UNL     1      31.621  -0.126  -0.923+12.51 +0.00    +0.020 A 
ATOM     92  C53 UNL     1      31.832   0.502  -2.089 +0.36 +0.00    +0.114 A 
ATOM     93  N20 UNL     1      31.446   1.832  -2.237 -0.08 -0.00    -0.246 N 
ATOM     94  C54 UNL     1      30.842   2.560  -1.210 -0.11 +0.00    +0.111 A 
ATOM     95  N22 UNL     1      31.590   2.625  -3.331 -0.04 -0.00    -0.014 NA
ATOM     96  C55 UNL     1      30.707   3.816  -1.747 -0.02 +0.00    +0.141 A 
ATOM     97  N21 UNL     1      31.143   3.837  -3.031 +0.00 -0.00    -0.267 N 
ATOM     98  H21 UNL     1      31.129   4.643  -3.657 +0.04 +0.00    +0.186 HD
BRANCH  96  99
ATOM     99  N23 UNL     1      30.239   4.925  -1.151 +0.02 -0.00    -0.383 N 
ATOM    100  H41 UNL     1      30.927   5.501  -0.676 +0.05 +0.00    +0.157 HD
ATOM    101  H42 UNL     1      29.363   4.879  -0.640 +0.07 +0.00    +0.157 HD
ENDBRANCH  96  99
ENDBRANCH  85  89
ENDBRANCH  78  82
ENDBRANCH  71  76
ENDBRANCH  60  68
BRANCH  65 102
ATOM    102  N16 UNL     1      17.644  11.593   8.113+25.02 -0.00    -0.383 N 
ATOM    103  H37 UNL     1      17.743  12.598   7.998 +0.10 +0.00    +0.157 HD
ATOM    104  H38 UNL     1      17.030  11.192   7.410 +0.19 +0.00    +0.157 HD
ENDBRANCH  65 102
ENDBRANCH   3  58
TORSDOF 14
TER
