USER    Run = 1
USER    DPF = ligand_208_receptor.dpf
USER  
USER    Estimated Free Energy of Binding    =   -8.74 kcal/mol  [=(1)+(2)+(3)-(4)]
USER    Estimated Inhibition Constant, Ki   =  389.33 nM (nanomolar)  [Temperature = 298.15 K]
USER    
USER    (1) Final Intermolecular Energy     =   -9.94 kcal/mol
USER        vdW + Hbond + desolv Energy     =   -9.94 kcal/mol
USER        Electrostatic Energy            =   +0.00 kcal/mol
USER    (2) Final Total Internal Energy     =   -1.99 kcal/mol
USER    (3) Torsional Free Energy           =   +1.19 kcal/mol
USER    (4) Unbound System's Energy  [=(2)] =   -1.99 kcal/mol
USER    
USER    
USER    NEWDPF move ligand_208.pdbqt
USER    NEWDPF about 0.000000 0.000000 0.000000
USER    NEWDPF tran0 6.683942 10.941852 4.472938
USER    NEWDPF quaternion0 -0.086634 0.892241 -0.221308 -0.383957
USER    NEWDPF axisangle0 -0.093825 0.966308 -0.239679 -134.842029
USER    NEWDPF quat0 -0.093825 0.966308 -0.239679 -134.842029
USER    NEWDPF dihe0 99.47 -180.00 -116.91 -26.23 -146.60 -179.90 -120.96 -179.06 -114.97 -40.23 -137.58 -28.59 105.74 -51.17 90.22 168.34 -33.96 180.00 90.52 -154.43 
USER  keepresnum = 1 
USER  
REMARK  20 active torsions:
REMARK  status: ('A' for Active; 'I' for Inactive)
REMARK    1  A    between atoms: C2_2  and  N1_44 
REMARK    2  A    between atoms: C3_3  and  N4_47 
REMARK    3  A    between atoms: C6_6  and  N2_45 
REMARK    4  A    between atoms: C8_8  and  N3_46 
REMARK       I    between atoms: C9_9  and  N4_47 
REMARK       I    between atoms: C9_9  and  N5_48 
REMARK    5  A    between atoms: C10_10  and  N5_48 
REMARK    6  A    between atoms: C14_14  and  N6_49 
REMARK    7  A    between atoms: C16_16  and  C17_17 
REMARK       I    between atoms: C16_16  and  N6_49 
REMARK    8  A    between atoms: C17_17  and  C18_18 
REMARK    9  A    between atoms: C22_22  and  C24_24 
REMARK       I    between atoms: C24_24  and  N7_50 
REMARK   10  A    between atoms: C25_25  and  C26_26 
REMARK   11  A    between atoms: C25_25  and  N7_50 
REMARK   12  A    between atoms: C26_26  and  S2_36 
REMARK   13  A    between atoms: C27_27  and  C28_28 
REMARK   14  A    between atoms: C27_27  and  S2_36 
REMARK   15  A    between atoms: C28_28  and  N8_51 
REMARK   16  A    between atoms: C29_29  and  C30_30 
REMARK   17  A    between atoms: C29_29  and  O7_43 
REMARK   18  A    between atoms: S1_35  and  N1_44 
REMARK   19  A    between atoms: O7_43  and  N8_51 
REMARK   20  A    between atoms: N2_45  and  N3_46 
USER                              x       y       z     vdW  Elec       q    Type
USER                           _______ _______ _______ _____ _____    ______ ____
ROOT
ATOM      1  C16 UNL     1      10.308   7.029   2.238 -0.24 +0.00    +0.226 C 
ATOM      2  O5  UNL     1      11.288   6.510   1.710 -0.27 -0.00    -0.273 OA
ATOM      3  N6  UNL     1      10.292   7.747   3.423 -0.22 -0.00    -0.327 N 
ATOM      4  H37 UNL     1       9.402   8.147   3.693 +0.08 +0.00    +0.169 HD
ENDROOT
BRANCH   3   5
ATOM      5  C14 UNL     1      11.382   8.049   4.265 -0.40 +0.00    +0.036 A 
ATOM      6  C13 UNL     1      11.262   8.359   5.617 -0.16 +0.00    +0.029 A 
ATOM      7  C12 UNL     1      12.399   8.648   6.375 +0.16 +0.00    +0.004 A 
ATOM      8  C11 UNL     1      13.667   8.628   5.789 -0.10 +0.00    +0.029 A 
ATOM      9  C10 UNL     1      13.809   8.316   4.439 -0.38 +0.00    +0.038 A 
ATOM     10  C15 UNL     1      12.660   8.033   3.684 -0.37 +0.00    +0.059 A 
BRANCH   9  11
ATOM     11  N5  UNL     1      15.047   8.285   3.765 -0.28 -0.00    -0.309 N 
ATOM     12  C9  UNL     1      16.207   8.976   4.086 -0.26 +0.00    +0.325 C 
ATOM     13  O4  UNL     1      16.366   9.681   5.073 +0.39 -0.00    -0.247 OA
ATOM     14  N4  UNL     1      17.162   8.764   3.107 -0.28 -0.00    -0.307 N 
ATOM     15  H35 UNL     1      16.823   8.296   2.276 +0.09 +0.00    +0.170 HD
ATOM     16  H36 UNL     1      15.148   7.575   3.050 -0.28 +0.00    +0.170 HD
BRANCH  14  17
ATOM     17  C3  UNL     1      18.538   9.084   3.136 -0.43 +0.00    +0.058 A 
ATOM     18  C2  UNL     1      18.938  10.397   2.804 -0.29 +0.00    +0.051 A 
ATOM     19  C7  UNL     1      20.290  10.736   2.727 +0.08 +0.00    +0.051 A 
ATOM     20  C6  UNL     1      21.275   9.785   3.008 -0.30 +0.00    +0.029 A 
ATOM     21  C5  UNL     1      20.883   8.491   3.363 +0.69 +0.00    +0.027 A 
ATOM     22  C4  UNL     1      19.527   8.142   3.427 +0.34 +0.00    +0.033 A 
BRANCH  18  23
ATOM     23  N1  UNL     1      17.984  11.452   2.559 -0.36 -0.00    -0.184 NA
ATOM     24  H32 UNL     1      17.100  11.248   3.034 +0.12 +0.00    +0.146 HD
BRANCH  23  25
ATOM     25  S1  UNL     1      17.700  11.793   0.923 -0.60 +0.00    +0.210 S 
ATOM     26  C1  UNL     1      18.123  10.233   0.182 -0.40 +0.00    +0.180 C 
ATOM     27  O1  UNL     1      16.290  12.031   0.714 -0.44 -0.00    -0.211 OA
ATOM     28  O2  UNL     1      18.706  12.776   0.566 -0.56 -0.00    -0.211 OA
ENDBRANCH  23  25
ENDBRANCH  18  23
BRANCH  20  29
ATOM     29  N2  UNL     1      22.646  10.116   2.879 -0.12 -0.00    -0.204 NA
ATOM     30  H33 UNL     1      22.773  11.137   2.932 +0.51 +0.00    +0.153 HD
BRANCH  29  31
ATOM     31  N3  UNL     1      23.402   9.515   3.913 -0.35 -0.00    -0.294 N 
ATOM     32  H34 UNL     1      23.255   9.848   4.860 +0.10 +0.00    +0.183 HD
BRANCH  31  33
ATOM     33  C8  UNL     1      24.527   8.812   3.544 -0.33 +0.00    +0.364 C 
ATOM     34  O3  UNL     1      25.657   9.283   3.474 -0.99 -0.00    -0.282 OA
ENDBRANCH  31  33
ENDBRANCH  29  31
ENDBRANCH  20  29
ENDBRANCH  14  17
ENDBRANCH   9  11
ENDBRANCH   3   5
BRANCH   1  35
ATOM     35  C17 UNL     1       8.926   6.881   1.612 -0.27 +0.00    +0.141 C 
BRANCH  35  36
ATOM     36  C18 UNL     1       8.953   6.808   0.103 -0.27 -0.00    -0.049 A 
ATOM     37  C19 UNL     1       8.404   7.843  -0.666 -0.39 +0.00    +0.007 A 
ATOM     38  C20 UNL     1       8.397   7.764  -2.060 -0.05 +0.00    +0.002 A 
ATOM     39  C21 UNL     1       8.941   6.651  -2.703 -0.06 +0.00    +0.017 A 
ATOM     40  C22 UNL     1       9.506   5.617  -1.948 -0.18 +0.00    +0.032 A 
ATOM     41  C23 UNL     1       9.506   5.696  -0.549 -0.19 +0.00    +0.024 A 
BRANCH  40  42
ATOM     42  C24 UNL     1      10.080   4.401  -2.584 -0.12 +0.00    +0.251 C 
ATOM     43  O6  UNL     1      10.342   4.399  -3.782 -0.21 -0.00    -0.268 OA
ATOM     44  N7  UNL     1      10.257   3.305  -1.763 -0.07 -0.00    -0.356 N 
ATOM     45  H38 UNL     1       9.748   3.287  -0.887 +0.06 +0.00    +0.162 HD
BRANCH  44  46
ATOM     46  C25 UNL     1      10.634   2.018  -2.320 -0.07 +0.00    +0.133 C 
BRANCH  46  47
ATOM     47  C26 UNL     1       9.774   0.867  -1.789 -0.23 +0.00    +0.093 C 
BRANCH  47  48
ATOM     48  S2  UNL     1       7.976   1.233  -1.803 -0.19 -0.00    -0.166 SA
BRANCH  48  49
ATOM     49  C27 UNL     1       7.707   1.774  -0.070 -0.14 +0.00    +0.090 C 
BRANCH  49  50
ATOM     50  C28 UNL     1       6.458   2.646   0.137 -0.08 +0.00    +0.127 C 
BRANCH  50  51
ATOM     51  N8  UNL     1       6.711   4.093   0.078 -0.06 -0.00    -0.205 NA
ATOM     52  H39 UNL     1       7.166   4.371   0.955 +0.06 +0.00    +0.153 HD
BRANCH  51  53
ATOM     53  O7  UNL     1       5.399   4.717   0.238 -0.13 -0.00    -0.301 OA
BRANCH  53  54
ATOM     54  C29 UNL     1       4.774   4.181   1.412 -0.09 +0.00    +0.233 C 
BRANCH  54  55
ATOM     55  C30 UNL     1       5.651   4.441   2.603 -0.12 -0.00    -0.017 A 
ATOM     56  C31 UNL     1       6.014   3.410   3.464 -0.15 +0.00    +0.096 A 
ATOM     57  N9  UNL     1       6.821   3.565   4.538 -0.08 -0.00    -0.375 N 
ATOM     58  C32 UNL     1       7.294   4.808   4.769 -0.22 +0.00    +0.087 A 
ATOM     59  H9  UNL     1       7.062   2.781   5.144 -0.44 +0.00    +0.164 HD
ATOM     60  C33 UNL     1       7.000   5.902   3.971 -0.17 +0.00    +0.018 A 
ATOM     61  C34 UNL     1       6.169   5.712   2.871 -0.19 +0.00    +0.012 A 
ENDBRANCH  54  55
ENDBRANCH  53  54
ENDBRANCH  51  53
ENDBRANCH  50  51
ENDBRANCH  49  50
ENDBRANCH  48  49
ENDBRANCH  47  48
ENDBRANCH  46  47
ENDBRANCH  44  46
ENDBRANCH  40  42
ENDBRANCH  35  36
ENDBRANCH   1  35
TORSDOF 20
TER
