USER    Run = 1
USER    DPF = ligand_454_receptor.dpf
USER  
USER    Estimated Free Energy of Binding    =  +4.97e+006 kcal/mol  [=(1)+(2)+(3)-(4)]
USER    
USER    (1) Final Intermolecular Energy     =  +4.97e+006 kcal/mol
USER        vdW + Hbond + desolv Energy     =  +2.55e+006 kcal/mol
USER        Electrostatic Energy            =  +2.43e+006 kcal/mol
USER    (2) Final Total Internal Energy     =   +0.00 kcal/mol
USER    (3) Torsional Free Energy           =   +1.19 kcal/mol
USER    (4) Unbound System's Energy  [=(2)] =   +0.00 kcal/mol
USER    
USER    
USER    NEWDPF move ligand_454.pdbqt
USER    NEWDPF about 0.000000 0.000000 0.000000
USER    NEWDPF tran0 15.684284 6.731923 2.126848
USER    NEWDPF quaternion0 -0.425364 -0.217666 0.100246 -0.872718
USER    NEWDPF axisangle0 -0.871249 -0.445832 0.205328 -58.447816
USER    NEWDPF quat0 -0.871249 -0.445832 0.205328 -58.447816
USER  keepresnum = 1 
USER  
REMARK  0 active torsions:
REMARK  status: ('A' for Active; 'I' for Inactive)
REMARK       I    between atoms: C2_2  and  C3_3 
REMARK       I    between atoms: C4_4  and  O30_101 
REMARK       I    between atoms: C5_5  and  O29_100 
REMARK       I    between atoms: C6_6  and  O28_99 
REMARK       I    between atoms: C7_7  and  C9_9 
REMARK       I    between atoms: C9_9  and  O2_73 
REMARK       I    between atoms: C10_10  and  C11_11 
REMARK       I    between atoms: C10_10  and  O2_73 
REMARK       I    between atoms: C12_12  and  C67_67 
REMARK       I    between atoms: C13_13  and  C19_19 
REMARK       I    between atoms: C14_14  and  O5_76 
REMARK       I    between atoms: C15_15  and  O4_75 
REMARK       I    between atoms: C19_19  and  O6_77 
REMARK       I    between atoms: C20_20  and  C21_21 
REMARK       I    between atoms: C20_20  and  O6_77 
REMARK       I    between atoms: C22_22  and  C65_65 
REMARK       I    between atoms: C23_23  and  O10_81 
REMARK       I    between atoms: C24_24  and  O9_80 
REMARK       I    between atoms: C25_25  and  O8_79 
REMARK       I    between atoms: C29_29  and  C30_30 
REMARK       I    between atoms: C29_29  and  O10_81 
REMARK       I    between atoms: C31_31  and  O25_96 
REMARK       I    between atoms: C32_32  and  O24_95 
REMARK       I    between atoms: C33_33  and  O23_94 
REMARK       I    between atoms: C34_34  and  C36_36 
REMARK       I    between atoms: C36_36  and  O12_83 
REMARK       I    between atoms: C37_37  and  C38_38 
REMARK       I    between atoms: C37_37  and  O12_83 
REMARK       I    between atoms: C39_39  and  C60_60 
REMARK       I    between atoms: C40_40  and  C46_46 
REMARK       I    between atoms: C41_41  and  O15_86 
REMARK       I    between atoms: C42_42  and  O14_85 
REMARK       I    between atoms: C46_46  and  O16_87 
REMARK       I    between atoms: C47_47  and  C48_48 
REMARK       I    between atoms: C47_47  and  O16_87 
REMARK       I    between atoms: C49_49  and  C58_58 
REMARK       I    between atoms: C50_50  and  C56_56 
REMARK       I    between atoms: C51_51  and  O19_90 
REMARK       I    between atoms: C52_52  and  O18_89 
REMARK       I    between atoms: C56_56  and  O20_91 
REMARK       I    between atoms: C58_58  and  O21_92 
REMARK       I    between atoms: C60_60  and  O22_93 
REMARK       I    between atoms: C65_65  and  O26_97 
REMARK       I    between atoms: C67_67  and  O27_98 
USER                              x       y       z     vdW  Elec       q    Type
USER                           _______ _______ _______ _____ _____    ______ ____
ROOT
ATOM      1  C1  UNL     1      29.680  11.153  12.005+99.99+99.99    +0.007 C 
ATOM      2  C2  UNL     1      29.421  10.769  10.558 -0.45 +0.00    +0.030 C 
ATOM      3  C3  UNL     1      30.139  11.643   9.508 +4.91 +0.00    +0.159 C 
ATOM      4  C4  UNL     1      29.751  13.146   9.477 -0.32 +0.00    +0.114 C 
ATOM      5  C5  UNL     1      30.492  13.840   8.283 -0.30 +0.00    +0.120 C 
ATOM      6  C6  UNL     1      30.385  13.067   6.912 -0.25 +0.00    +0.120 C 
ATOM      7  C7  UNL     1      30.607  11.511   7.116 +8.02 +0.00    +0.112 C 
ATOM      8  C8  UNL     1      32.101  11.133   7.290+72.81 +0.00    +0.051 C 
ATOM      9  C9  UNL     1      30.134  10.634   5.909+99.41 +0.00    +0.208 C 
ATOM     10  C10 UNL     1      28.227   9.666   4.859+99.99 +0.00    +0.182 C 
ATOM     11  C11 UNL     1      26.675   9.727   4.779+99.99 +0.00    +0.039 C 
ATOM     12  C12 UNL     1      26.174  11.129   4.342+92.10 +0.00    +0.159 C 
ATOM     13  C13 UNL     1      24.054  10.194   3.380 -0.49 +0.00    +0.112 C 
ATOM     14  C14 UNL     1      24.535   8.709   3.625 -0.52 +0.00    +0.118 C 
ATOM     15  C15 UNL     1      26.105   8.601   3.828 +0.25 +0.00    +0.099 C 
ATOM     16  C16 UNL     1      26.882   8.462   2.502 -0.58 +0.00    +0.050 C 
ATOM     17  C17 UNL     1      24.027   7.709   2.566 +0.50 +0.00    +0.052 C 
ATOM     18  C18 UNL     1      24.127  10.635   1.907 +4.34 +0.00    +0.051 C 
ATOM     19  C19 UNL     1      22.575  10.420   3.833 -0.21 +0.00    +0.208 C 
ATOM     20  C20 UNL     1      20.304   9.797   3.625 +6.46 +0.00    +0.182 C 
ATOM     21  C21 UNL     1      19.182   9.535   2.563 -0.43 +0.00    +0.040 C 
ATOM     22  C22 UNL     1      17.837   9.518   3.364 -0.42 +0.00    +0.162 C 
ATOM     23  C23 UNL     1      16.747   7.831   2.036 -0.00 +0.00    +0.194 C 
ATOM     24  C24 UNL     1      18.009   7.669   1.111+30.57 +0.00    +0.141 C 
ATOM     25  C25 UNL     1      19.348   8.146   1.808+99.99 +0.00    +0.102 C 
ATOM     26  C26 UNL     1      20.481   8.140   0.747+99.99 +0.00    +0.050 C 
ATOM     27  C27 UNL     1      18.099   6.229   0.566+99.99 +0.00    +0.055 C 
ATOM     28  C28 UNL     1      16.639   6.784   3.156+12.41 +0.00    +0.082 C 
ATOM     29  C29 UNL     1      14.331   7.938   1.751+10.43 +0.00    +0.206 C 
ATOM     30  C30 UNL     1      13.204   7.732   0.725+27.70 +0.00    +0.183 C 
ATOM     31  C31 UNL     1      13.256   8.659  -0.535+99.99 +0.00    +0.116 C 
ATOM     32  C32 UNL     1      11.784   8.882  -1.084+99.99 +0.00    +0.120 C 
ATOM     33  C33 UNL     1      10.951   7.550  -0.879 +0.55 +0.00    +0.120 C 
ATOM     34  C34 UNL     1      10.834   7.246   0.679 +0.08 +0.00    +0.113 C 
ATOM     35  C35 UNL     1       9.577   7.860   1.338 +0.82 +0.00    +0.051 C 
ATOM     36  C36 UNL     1      10.831   5.724   1.011 +0.02 +0.00    +0.208 C 
ATOM     37  C37 UNL     1       9.691   3.669   0.714 +2.17 +0.00    +0.182 C 
ATOM     38  C38 UNL     1       8.376   2.971   0.239 -0.15 +0.00    +0.039 C 
ATOM     39  C39 UNL     1       8.735   1.452   0.152 -0.19 +0.00    +0.159 C 
ATOM     40  C40 UNL     1       7.001   0.594   1.607 +2.94 +0.00    +0.112 C 
ATOM     41  C41 UNL     1       7.072   2.019   2.311 -0.25 +0.00    +0.118 C 
ATOM     42  C42 UNL     1       7.144   3.175   1.236 -0.12 +0.00    +0.099 C 
ATOM     43  C43 UNL     1       7.148   4.569   1.897 -0.14 +0.00    +0.050 C 
ATOM     44  C44 UNL     1       5.925   2.199   3.325 -0.30 +0.00    +0.052 C 
ATOM     45  C45 UNL     1       7.762  -0.485   2.413+99.99 +0.00    +0.051 C 
ATOM     46  C46 UNL     1       5.566   0.022   1.394+57.57 +0.00    +0.208 C 
ATOM     47  C47 UNL     1       3.470   0.286   0.329 +0.52 +0.00    +0.182 C 
ATOM     48  C48 UNL     1       2.666   0.976  -0.817 -0.12 +0.00    +0.039 C 
ATOM     49  C49 UNL     1       1.191   0.474  -0.675+99.99+99.99    +0.159 C 
ATOM     50  C50 UNL     1       0.869  -0.393  -2.920+99.99+99.99    +0.112 C 
ATOM     51  C51 UNL     1       2.445  -0.622  -2.930 -0.08 +0.00    +0.118 C 
ATOM     52  C52 UNL     1       3.193   0.626  -2.280 -0.09 +0.00    +0.099 C 
ATOM     53  C53 UNL     1       4.726   0.484  -2.367 -0.09 +0.00    +0.050 C 
ATOM     54  C54 UNL     1       2.867  -1.956  -2.274+99.99+99.99    +0.052 C 
ATOM     55  C55 UNL     1       0.051  -1.679  -2.652+99.99+99.99    +0.051 C 
ATOM     56  C56 UNL     1       0.301   0.158  -4.271+99.99+99.99    +0.207 C 
ATOM     57  C57 UNL     1       0.419   1.854  -5.913+99.99+99.99    +0.201 C 
ATOM     58  C58 UNL     1       0.337   1.216   0.371+99.99+99.99    +0.197 C 
ATOM     59  C59 UNL     1       2.742   2.510  -0.588 -0.09 +0.00    +0.023 C 
ATOM     60  C60 UNL     1       9.427   1.008  -1.152 -0.15 +0.00    +0.197 C 
ATOM     61  C61 UNL     1       8.007   3.544  -1.154 -0.13 +0.00    +0.023 C 
ATOM     62  C62 UNL     1       9.579   7.598  -1.568 -0.41 +0.00    +0.052 C 
ATOM     63  C63 UNL     1      11.801   9.325  -2.562+33.72 +0.00    +0.052 C 
ATOM     64  C64 UNL     1      13.955  10.008  -0.284+99.99 +0.00    +0.052 C 
ATOM     65  C65 UNL     1      17.435  10.853   4.024 +0.27 +0.00    +0.197 C 
ATOM     66  C66 UNL     1      19.199  10.717   1.564 -0.56 +0.00    +0.023 C 
ATOM     67  C67 UNL     1      26.894  11.832   3.174+99.99 +0.00    +0.197 C 
ATOM     68  C68 UNL     1      26.176   9.529   6.252+99.99 +0.00    +0.023 C 
ATOM     69  C69 UNL     1      29.088  13.424   6.164+13.15 +0.00    +0.052 C 
ATOM     70  C70 UNL     1      30.159  15.344   8.171+99.99+99.99    +0.052 C 
ATOM     71  C71 UNL     1      28.229  13.332   9.472 -0.06 +0.00    +0.052 C 
ATOM     72  O1  UNL     1      29.856  11.025   8.246+13.27 -0.00    -0.367 OA
ATOM     73  O2  UNL     1      28.720  10.706   5.709+43.93 -0.00    -0.387 OA
ATOM     74  O3  UNL     1      24.748  11.147   4.208 +0.56 -0.00    -0.367 OA
ATOM     75  O4  UNL     1      26.358   7.320   4.467 +0.03 -0.00    -0.386 OA
ATOM     76  O5  UNL     1      23.976   8.195   4.872 +0.27 -0.00    -0.384 OA
ATOM     77  O6  UNL     1      21.625   9.628   3.113 -0.23 -0.00    -0.387 OA
ATOM     78  O7  UNL     1      16.717   9.166   2.540 -0.25 -0.00    -0.344 OA
ATOM     79  O8  UNL     1      19.716   7.165   2.798+99.99 -0.00    -0.386 OA
ATOM     80  O9  UNL     1      17.799   8.501  -0.064 +0.47 -0.00    -0.381 OA
ATOM     81  O10 UNL     1      15.601   7.690   1.141 +4.52 -0.00    -0.350 OA
ATOM     82  O11 UNL     1      11.946   7.869   1.397 +4.32 -0.00    -0.365 OA
ATOM     83  O12 UNL     1       9.634   5.085   0.564 -0.05 -0.00    -0.387 OA
ATOM     84  O13 UNL     1       7.566   0.632   0.275 -0.11 -0.00    -0.367 OA
ATOM     85  O14 UNL     1       5.911   3.193   0.497 -0.01 -0.00    -0.386 OA
ATOM     86  O15 UNL     1       8.292   2.080   3.093 +0.71 -0.00    -0.384 OA
ATOM     87  O16 UNL     1       4.778   0.834   0.512 -0.06 -0.00    -0.387 OA
ATOM     88  O17 UNL     1       0.473   0.565  -1.911+99.99+99.99    -0.367 OA
ATOM     89  O18 UNL     1       2.953   1.789  -3.109 +0.01 -0.00    -0.386 OA
ATOM     90  O19 UNL     1       2.912  -0.752  -4.294 -0.04 -0.00    -0.384 OA
ATOM     91  O20 UNL     1       0.997   1.317  -4.730+99.99+99.99    -0.393 OA
ATOM     92  O21 UNL     1      -0.925   0.552   0.489+99.99+99.99    -0.398 OA
ATOM     93  O22 UNL     1       9.789  -0.372  -1.040 -0.10 -0.00    -0.398 OA
ATOM     94  O23 UNL     1      11.650   6.453  -1.521 -0.21 -0.00    -0.384 OA
ATOM     95  O24 UNL     1      11.156   9.972  -0.380+99.99 -0.00    -0.384 OA
ATOM     96  O25 UNL     1      14.025   7.960  -1.540+99.99 -0.00    -0.384 OA
ATOM     97  O26 UNL     1      16.242  10.654   4.788 +4.57 -0.00    -0.398 OA
ATOM     98  O27 UNL     1      26.444  13.185   3.064+99.99 -0.00    -0.398 OA
ATOM     99  O28 UNL     1      31.462  13.593   6.081 -0.19 -0.00    -0.384 OA
ATOM    100  O29 UNL     1      31.908  13.863   8.657 -0.05 -0.00    -0.384 OA
ATOM    101  O30 UNL     1      30.232  13.777  10.686 -0.05 -0.00    -0.384 OA
ATOM    102  HB5 UNL     1      25.595   7.194   5.071 +0.09 +0.00    +0.210 HD
ATOM    103  HB6 UNL     1      23.012   8.112   4.756 +0.73 +0.00    +0.210 HD
ATOM    104  HB7 UNL     1      20.675   7.257   2.951 +3.73 +0.00    +0.210 HD
ATOM    105  HB8 UNL     1      16.832   8.609  -0.129 +0.15 +0.00    +0.211 HD
ATOM    106  HB9 UNL     1       5.733   2.295   0.145 +0.06 +0.00    +0.210 HD
ATOM    107  HC0 UNL     1       8.240   2.856   3.679 -0.02 +0.00    +0.210 HD
ATOM    108  HC1 UNL     1       2.519   1.492  -3.937 +0.03 +0.00    +0.210 HD
ATOM    109  HC2 UNL     1       2.544  -1.563  -4.683+99.99+99.99    +0.210 HD
ATOM    110  HC3 UNL     1      -1.286   0.547  -0.419+99.99+99.99    +0.209 HD
ATOM    111  HC4 UNL     1       8.969  -0.820  -0.754 +0.12 +0.00    +0.209 HD
ATOM    112  HC5 UNL     1      12.443   6.797  -1.979 +0.09 +0.00    +0.210 HD
ATOM    113  HC6 UNL     1      11.294   9.821   0.574+99.99 +0.00    +0.210 HD
ATOM    114  HC7 UNL     1      14.900   7.766  -1.152 +0.16 +0.00    +0.210 HD
ATOM    115  HC8 UNL     1      15.608  10.243   4.170 +0.23 +0.00    +0.209 HD
ATOM    116  HC9 UNL     1      26.887  13.579   2.294+23.28 +0.00    +0.209 HD
ATOM    117  HD0 UNL     1      31.302  13.304   5.165 +0.10 +0.00    +0.210 HD
ATOM    118  HD1 UNL     1      32.373  14.067   7.817 +0.08 +0.00    +0.210 HD
ATOM    119  HD2 UNL     1      31.188  13.927  10.523 +0.07 +0.00    +0.210 HD
ENDROOT
TORSDOF 44
TER
