USER    Run = 1
USER    DPF = ligand_40_receptor.dpf
USER  
USER    Estimated Free Energy of Binding    =  +3.12e+006 kcal/mol  [=(1)+(2)+(3)-(4)]
USER    
USER    (1) Final Intermolecular Energy     =  +3.12e+006 kcal/mol
USER        vdW + Hbond + desolv Energy     =  +1.70e+006 kcal/mol
USER        Electrostatic Energy            =  +1.42e+006 kcal/mol
USER    (2) Final Total Internal Energy     =   +0.00 kcal/mol
USER    (3) Torsional Free Energy           =   +1.19 kcal/mol
USER    (4) Unbound System's Energy  [=(2)] =   +0.00 kcal/mol
USER    
USER    
USER    NEWDPF move ligand_40.pdbqt
USER    NEWDPF about 0.000000 0.000000 0.000000
USER    NEWDPF tran0 19.313408 7.445347 1.170797
USER    NEWDPF quaternion0 0.038184 0.445922 0.888026 -0.105377
USER    NEWDPF axisangle0 0.038398 0.448419 0.892998 -167.902183
USER    NEWDPF quat0 0.038398 0.448419 0.892998 -167.902183
USER  keepresnum = 1 
USER  
REMARK  0 active torsions:
REMARK  status: ('A' for Active; 'I' for Inactive)
REMARK       I    between atoms: C3_3  and  N10_93 
REMARK       I    between atoms: C6_6  and  C7_7 
REMARK       I    between atoms: C7_7  and  N1_84 
REMARK       I    between atoms: C8_8  and  C9_9 
REMARK       I    between atoms: C8_8  and  N1_84 
REMARK       I    between atoms: C9_9  and  C10_10 
REMARK       I    between atoms: C10_10  and  C11_11 
REMARK       I    between atoms: C11_11  and  N2_85 
REMARK       I    between atoms: C12_12  and  C13_13 
REMARK       I    between atoms: C12_12  and  C17_17 
REMARK       I    between atoms: C12_12  and  N2_85 
REMARK       I    between atoms: C13_13  and  C14_14 
REMARK       I    between atoms: C13_13  and  O5_60 
REMARK       I    between atoms: C14_14  and  C15_15 
REMARK       I    between atoms: C14_14  and  O4_59 
REMARK       I    between atoms: C15_15  and  C16_16 
REMARK       I    between atoms: C16_16  and  O3_58 
REMARK       I    between atoms: C17_17  and  N3_86 
REMARK       I    between atoms: C18_18  and  C19_19 
REMARK       I    between atoms: C18_18  and  N3_86 
REMARK       I    between atoms: C19_19  and  C20_20 
REMARK       I    between atoms: C20_20  and  N4_87 
REMARK       I    between atoms: C21_21  and  C22_22 
REMARK       I    between atoms: C21_21  and  C26_26 
REMARK       I    between atoms: C21_21  and  N4_87 
REMARK       I    between atoms: C22_22  and  C23_23 
REMARK       I    between atoms: C22_22  and  O11_66 
REMARK       I    between atoms: C23_23  and  C24_24 
REMARK       I    between atoms: C23_23  and  O10_65 
REMARK       I    between atoms: C24_24  and  C25_25 
REMARK       I    between atoms: C24_24  and  O9_64 
REMARK       I    between atoms: C25_25  and  O8_63 
REMARK       I    between atoms: C26_26  and  N5_88 
REMARK       I    between atoms: C27_27  and  C28_28 
REMARK       I    between atoms: C27_27  and  C48_48 
REMARK       I    between atoms: C27_27  and  N5_88 
REMARK       I    between atoms: C28_28  and  C29_29 
REMARK       I    between atoms: C29_29  and  N6_89 
REMARK       I    between atoms: C30_30  and  C31_31 
REMARK       I    between atoms: C30_30  and  C35_35 
REMARK       I    between atoms: C30_30  and  N6_89 
REMARK       I    between atoms: C31_31  and  C32_32 
REMARK       I    between atoms: C31_31  and  O16_71 
REMARK       I    between atoms: C32_32  and  C33_33 
REMARK       I    between atoms: C32_32  and  O15_70 
REMARK       I    between atoms: C33_33  and  C34_34 
REMARK       I    between atoms: C34_34  and  O14_69 
REMARK       I    between atoms: C35_35  and  N7_90 
REMARK       I    between atoms: C36_36  and  C37_37 
REMARK       I    between atoms: C36_36  and  N7_90 
REMARK       I    between atoms: C37_37  and  C38_38 
REMARK       I    between atoms: C38_38  and  N8_91 
REMARK       I    between atoms: C39_39  and  C40_40 
REMARK       I    between atoms: C39_39  and  C44_44 
REMARK       I    between atoms: C39_39  and  N8_91 
REMARK       I    between atoms: C40_40  and  C41_41 
REMARK       I    between atoms: C40_40  and  O22_77 
REMARK       I    between atoms: C41_41  and  C42_42 
REMARK       I    between atoms: C41_41  and  O21_76 
REMARK       I    between atoms: C42_42  and  C43_43 
REMARK       I    between atoms: C42_42  and  O20_75 
REMARK       I    between atoms: C43_43  and  O19_74 
REMARK       I    between atoms: C44_44  and  N9_92 
REMARK       I    between atoms: C45_45  and  C46_46 
REMARK       I    between atoms: C45_45  and  C47_47 
REMARK       I    between atoms: C45_45  and  N9_92 
REMARK       I    between atoms: C46_46  and  S1_102 
REMARK       I    between atoms: C47_47  and  O25_80 
REMARK       I    between atoms: C48_48  and  O27_82 
REMARK       I    between atoms: C49_49  and  C50_50 
REMARK       I    between atoms: C49_49  and  N10_93 
REMARK       I    between atoms: C55_55  and  N15_101 
USER                              x       y       z     vdW  Elec       q    Type
USER                           _______ _______ _______ _____ _____    ______ ____
ROOT
ATOM      1  C1  UNL     1       8.695   7.918   2.390 -0.12 +0.00    +0.019 A 
ATOM      2  C2  UNL     1       8.057   8.756   3.313 +3.81 +0.00    +0.024 A 
ATOM      3  C3  UNL     1       7.013   9.610   2.930+34.73 +0.00    +0.008 A 
ATOM      4  C4  UNL     1       6.678   9.659   1.573+99.99 +0.00    +0.024 A 
ATOM      5  C5  UNL     1       7.308   8.824   0.642 +8.22 +0.00    +0.019 A 
ATOM      6  C6  UNL     1       8.305   7.935   1.049 +0.28 +0.00    +0.032 A 
ATOM      7  C7  UNL     1       8.948   7.069   0.022 -0.22 +0.00    +0.251 C 
ATOM      8  C8  UNL     1      10.098   4.924  -0.433 -0.17 +0.00    +0.123 C 
ATOM      9  C9  UNL     1      11.618   5.058  -0.440 -0.13 +0.00    +0.029 C 
ATOM     10  C10 UNL     1      12.094   6.366  -1.068 -0.42 +0.00    +0.104 C 
ATOM     11  C11 UNL     1      13.603   6.431  -1.181 +0.98 +0.00    +0.218 C 
ATOM     12  C12 UNL     1      15.467   7.899  -1.866+99.99 +0.00    +0.207 C 
ATOM     13  C13 UNL     1      15.874   8.704  -3.126+82.67 +0.00    +0.178 C 
ATOM     14  C14 UNL     1      15.537  10.217  -3.175+99.99 +0.00    +0.151 C 
ATOM     15  C15 UNL     1      14.046  10.562  -3.101+99.99 +0.00    +0.060 C 
ATOM     16  C16 UNL     1      13.786  12.012  -3.499+67.16 +0.00    +0.166 C 
ATOM     17  C17 UNL     1      15.870   8.638  -0.579 +0.11 +0.00    +0.243 C 
ATOM     18  C18 UNL     1      17.676   9.008   1.078 -0.28 +0.00    +0.132 C 
ATOM     19  C19 UNL     1      18.111  10.460   0.932 -0.46 +0.00    +0.122 C 
ATOM     20  C20 UNL     1      19.353  10.534   0.079 -0.19 +0.00    +0.220 C 
ATOM     21  C21 UNL     1      20.140  10.248  -2.224+99.99 +0.00    +0.207 C 
ATOM     22  C22 UNL     1      19.967  10.893  -3.615+99.99 +0.00    +0.181 C 
ATOM     23  C23 UNL     1      20.400  12.372  -3.629+99.99 +0.00    +0.180 C 
ATOM     24  C24 UNL     1      20.641  12.962  -5.038+99.99+99.99    +0.173 C 
ATOM     25  C25 UNL     1      19.422  12.962  -5.973+99.99+99.99    +0.198 C 
ATOM     26  C26 UNL     1      20.130   8.705  -2.358+99.99 +0.00    +0.243 C 
ATOM     27  C27 UNL     1      21.592   6.727  -2.711+77.86 +0.00    +0.191 C 
ATOM     28  C28 UNL     1      22.828   6.369  -3.548+99.99 +0.00    +0.138 C 
ATOM     29  C29 UNL     1      24.018   7.095  -2.965 +0.56 +0.00    +0.220 C 
ATOM     30  C30 UNL     1      25.797   6.971  -1.245 -0.21 +0.00    +0.207 C 
ATOM     31  C31 UNL     1      25.026   7.607  -0.057 -0.34 +0.00    +0.178 C 
ATOM     32  C32 UNL     1      25.710   8.858   0.542 +0.22 +0.00    +0.151 C 
ATOM     33  C33 UNL     1      25.025   9.392   1.811 -0.50 +0.00    +0.060 C 
ATOM     34  C34 UNL     1      23.521   9.606   1.695 -0.33 +0.00    +0.166 C 
ATOM     35  C35 UNL     1      26.766   5.853  -0.815 -0.25 +0.00    +0.243 C 
ATOM     36  C36 UNL     1      28.803   5.311   0.471 -0.16 +0.00    +0.132 C 
ATOM     37  C37 UNL     1      28.248   4.701   1.751+99.99 +0.00    +0.122 C 
ATOM     38  C38 UNL     1      29.246   3.764   2.388+21.27 +0.00    +0.220 C 
ATOM     39  C39 UNL     1      29.533   2.108   4.238+99.99 +0.00    +0.207 C 
ATOM     40  C40 UNL     1      30.786   2.732   4.907+99.99 +0.00    +0.181 C 
ATOM     41  C41 UNL     1      32.123   2.051   4.501 +0.09 +0.00    +0.180 C 
ATOM     42  C42 UNL     1      32.240   0.580   4.927 +8.49 +0.00    +0.173 C 
ATOM     43  C43 UNL     1      33.689   0.082   4.863+99.99+99.99    +0.198 C 
ATOM     44  C44 UNL     1      28.525   1.448   5.206 +7.45 +0.00    +0.243 C 
ATOM     45  C45 UNL     1      28.126  -0.294   6.910+51.79 +0.00    +0.191 C 
ATOM     46  C46 UNL     1      28.279  -1.819   6.966+99.99+99.99    +0.106 C 
ATOM     47  C47 UNL     1      28.460   0.320   8.267+99.99 +0.00    +0.164 C 
ATOM     48  C48 UNL     1      21.789   6.199  -1.278 +5.95 +0.00    +0.164 C 
ATOM     49  C49 UNL     1       5.153  11.059   3.674+99.99 +0.00    +0.151 C 
ATOM     50  C50 UNL     1       4.625  11.636   4.972+42.03 +0.00    +0.038 A 
ATOM     51  C51 UNL     1       3.752  12.724   4.956+99.99 +0.00    +0.116 A 
ATOM     52  C52 UNL     1       3.573  12.676   7.244 +0.22 +0.00    +0.140 A 
ATOM     53  C53 UNL     1       4.436  11.587   7.258 +2.48 +0.00    +0.146 A 
ATOM     54  C54 UNL     1       4.762  11.023   8.581 +5.52 +0.00    +0.278 A 
ATOM     55  C55 UNL     1       3.339  12.729   9.537+78.15 +0.00    +0.159 A 
ATOM     56  O1  UNL     1       8.983   7.429  -1.150 -0.29 -0.00    -0.268 OA
ATOM     57  O2  UNL     1      14.357   5.558  -0.767+30.06 -0.00    -0.274 OA
ATOM     58  O3  UNL     1      12.398  12.300  -3.384+99.99 -0.00    -0.401 OA
ATOM     59  O4  UNL     1      16.283  10.939  -2.187+99.99 -0.00    -0.393 OA
ATOM     60  O5  UNL     1      15.345   8.066  -4.301 +2.91 -0.00    -0.390 OA
ATOM     61  O6  UNL     1      15.116   9.438  -0.021 +1.43 -0.00    -0.271 OA
ATOM     62  O7  UNL     1      20.486  10.461   0.553 -0.35 -0.00    -0.274 OA
ATOM     63  O8  UNL     1      19.131  11.662  -6.474+99.99+99.99    -0.398 OA
ATOM     64  O9  UNL     1      21.047  14.331  -4.848+99.99+99.99    -0.391 OA
ATOM     65  O10 UNL     1      19.403  13.163  -2.960+99.99 -0.00    -0.390 OA
ATOM     66  O11 UNL     1      18.589  10.813  -4.032+20.81 -0.00    -0.390 OA
ATOM     67  O12 UNL     1      19.141   8.006  -2.132 +4.65 -0.00    -0.271 OA
ATOM     68  O13 UNL     1      24.145   8.313  -3.087 +3.47 -0.00    -0.274 OA
ATOM     69  O14 UNL     1      23.215  10.364   0.534 -0.05 -0.00    -0.401 OA
ATOM     70  O15 UNL     1      27.088   8.594   0.855 -0.21 -0.00    -0.393 OA
ATOM     71  O16 UNL     1      24.710   6.638   0.957 -0.16 -0.00    -0.390 OA
ATOM     72  O17 UNL     1      26.536   4.669  -1.075 -0.37 -0.00    -0.271 OA
ATOM     73  O18 UNL     1      30.397   3.606   1.993 -0.04 -0.00    -0.274 OA
ATOM     74  O19 UNL     1      33.725  -1.259   5.361+99.99+99.99    -0.398 OA
ATOM     75  O20 UNL     1      31.740   0.393   6.260+99.99 -0.00    -0.391 OA
ATOM     76  O21 UNL     1      32.371   2.110   3.094 -0.22 -0.00    -0.390 OA
ATOM     77  O22 UNL     1      30.661   2.860   6.327+69.94 -0.00    -0.390 OA
ATOM     78  O23 UNL     1      27.371   1.870   5.322+13.32 -0.00    -0.271 OA
ATOM     79  O24 UNL     1      29.543   0.769   8.613+18.99 -0.00    -0.648 OA
ATOM     80  O25 UNL     1      27.430   0.279   9.135+99.99 -0.00    -0.775 OA
ATOM     81  O26 UNL     1      22.168   5.075  -0.981+99.99 -0.00    -0.648 OA
ATOM     82  O27 UNL     1      21.534   7.099  -0.307+23.43 -0.00    -0.775 OA
ATOM     83  O28 UNL     1       5.484  10.044   8.739 -0.38 -0.00    -0.265 OA
ATOM     84  N1  UNL     1       9.464   5.869   0.464 -0.05 -0.00    -0.357 N 
ATOM     85  N2  UNL     1      14.037   7.585  -1.797+99.99 -0.00    -0.345 N 
ATOM     86  N3  UNL     1      17.158   8.422  -0.146 -0.05 -0.00    -0.359 N 
ATOM     87  N4  UNL     1      19.100  10.610  -1.270+38.16 -0.00    -0.345 N 
ATOM     88  N5  UNL     1      21.339   8.176  -2.757+99.99 -0.00    -0.344 N 
ATOM     89  N6  UNL     1      24.831   6.343  -2.165 -0.27 -0.00    -0.345 N 
ATOM     90  N7  UNL     1      27.878   6.260  -0.121 -0.08 -0.00    -0.359 N 
ATOM     91  N8  UNL     1      28.760   3.119   3.497+99.99 -0.00    -0.345 N 
ATOM     92  N9  UNL     1      28.957   0.322   5.871+99.99 -0.00    -0.344 N 
ATOM     93  N10 UNL     1       6.471  10.465   3.888+99.99 -0.00    -0.287 NA
ATOM     94  N11 UNL     1       3.214  13.263   6.079 +1.98 -0.00    -0.348 N 
ATOM     95  H11 UNL     1       2.580  14.061   6.048 +0.06 +0.00    +0.167 HD
ATOM     96  N12 UNL     1       4.977  11.029   6.141+41.98 -0.00    -0.350 N 
ATOM     97  H12 UNL     1       5.598  10.220   6.175+41.04 +0.00    +0.166 HD
ATOM     98  N13 UNL     1       4.191  11.671   9.654+99.99 -0.00    -0.298 N 
ATOM     99  N14 UNL     1       3.015  13.245   8.398 -0.04 -0.00    -0.317 N 
ATOM    100  H14 UNL     1       2.375  14.037   8.340 -0.02 +0.00    +0.170 HD
ATOM    101  N15 UNL     1       2.836  13.233  10.689+66.43 -0.00    -0.274 NA
ATOM    102  S1  UNL     1      30.002  -2.420   7.104+99.99+99.99    -0.180 SA
ATOM    103  H54 UNL     1      11.918  11.707  -3.987 +2.07 +0.00    +0.209 HD
ATOM    104  H55 UNL     1      15.723  10.996  -1.381+99.99 +0.00    +0.210 HD
ATOM    105  H56 UNL     1      15.916   8.319  -5.048+99.99+99.99    +0.210 HD
ATOM    106  H57 UNL     1      18.686  11.178  -5.744+99.99+99.99    +0.209 HD
ATOM    107  H58 UNL     1      22.004  14.328  -4.666+99.99+99.99    +0.210 HD
ATOM    108  H59 UNL     1      19.638  14.095  -3.146+99.99 +0.00    +0.210 HD
ATOM    109  H60 UNL     1      18.116  11.438  -3.431 +0.21 +0.00    +0.210 HD
ATOM    110  H61 UNL     1      22.235  10.485   0.551 +0.18 +0.00    +0.209 HD
ATOM    111  H62 UNL     1      27.433   9.403   1.280 +0.16 +0.00    +0.210 HD
ATOM    112  H63 UNL     1      24.413   5.824   0.505 +0.16 +0.00    +0.210 HD
ATOM    113  H64 UNL     1      33.434  -1.843   4.637+99.99+99.99    +0.209 HD
ATOM    114  H65 UNL     1      32.213  -0.403   6.597+31.56 +0.00    +0.210 HD
ATOM    115  H66 UNL     1      31.836   2.833   2.692 -0.01 +0.00    +0.210 HD
ATOM    116  H67 UNL     1      30.978   2.028   6.744+11.96 +0.00    +0.210 HD
ATOM    117  H68 UNL     1      27.768   0.739   9.934 +1.82 +0.00    +0.167 HD
ATOM    118  H69 UNL     1      21.684   6.626   0.539 +3.79 +0.00    +0.167 HD
ATOM    119  H70 UNL     1       9.314   5.579   1.420 +0.07 +0.00    +0.162 HD
ATOM    120  H71 UNL     1      13.385   8.356  -1.801+99.99 +0.00    +0.163 HD
ATOM    121  H72 UNL     1      17.806   7.911  -0.751 +0.35 +0.00    +0.162 HD
ATOM    122  H73 UNL     1      18.136  10.462  -1.569 +0.24 +0.00    +0.163 HD
ATOM    123  H74 UNL     1      22.161   8.761  -2.611+99.99 +0.00    +0.163 HD
ATOM    124  H75 UNL     1      24.742   5.328  -2.109 +0.10 +0.00    +0.163 HD
ATOM    125  H76 UNL     1      27.834   7.194   0.293 +0.10 +0.00    +0.162 HD
ATOM    126  H77 UNL     1      27.795   3.253   3.795+99.99 +0.00    +0.163 HD
ATOM    127  H78 UNL     1      29.961   0.223   6.016+99.99 +0.00    +0.163 HD
ATOM    128  H79 UNL     1       6.543  10.097   4.841+99.99 +0.00    +0.128 HD
ATOM    129  H80 UNL     1       4.371  11.264  10.559+99.99 +0.00    +0.171 HD
ATOM    130  H81 UNL     1       3.457  13.251  11.487+99.99+99.99    +0.127 HD
ATOM    131  H82 UNL     1       2.373  14.126  10.540 -0.01 +0.00    +0.127 HD
ATOM    132  H83 UNL     1      30.294  -1.817   8.268+99.99+99.99    +0.101 HD
ENDROOT
TORSDOF 63
TER
