USER    Run = 1
USER    DPF = ligand_145_receptor.dpf
USER  
USER    Estimated Free Energy of Binding    =  +1.02e+004 kcal/mol  [=(1)+(2)+(3)-(4)]
USER    
USER    (1) Final Intermolecular Energy     =  +1.02e+004 kcal/mol
USER        vdW + Hbond + desolv Energy     =  +1.02e+004 kcal/mol
USER        Electrostatic Energy            =   +0.00 kcal/mol
USER    (2) Final Total Internal Energy     =   +0.00 kcal/mol
USER    (3) Torsional Free Energy           =   +1.19 kcal/mol
USER    (4) Unbound System's Energy  [=(2)] =   +0.00 kcal/mol
USER    
USER    
USER    NEWDPF move ligand_145.pdbqt
USER    NEWDPF about 0.000000 0.000000 0.000000
USER    NEWDPF tran0 18.472610 8.369460 3.158123
USER    NEWDPF quaternion0 -0.934145 -0.050731 -0.075013 -0.345213
USER    NEWDPF axisangle0 -0.995334 -0.054054 -0.079927 -139.610379
USER    NEWDPF quat0 -0.995334 -0.054054 -0.079927 -139.610379
USER  keepresnum = 1 
USER  
REMARK  0 active torsions:
REMARK  status: ('A' for Active; 'I' for Inactive)
REMARK       I    between atoms: C2_2  and  C3_3 
REMARK       I    between atoms: C2_2  and  O13_64 
REMARK       I    between atoms: C3_3  and  C4_4 
REMARK       I    between atoms: C3_3  and  N1_65 
REMARK       I    between atoms: C4_4  and  O2_53 
REMARK       I    between atoms: C5_5  and  C6_6 
REMARK       I    between atoms: C5_5  and  N1_65 
REMARK       I    between atoms: C6_6  and  C7_7 
REMARK       I    between atoms: C6_6  and  N3_67 
REMARK       I    between atoms: C7_7  and  C8_8 
REMARK       I    between atoms: C16_16  and  C17_17 
REMARK       I    between atoms: C16_16  and  N3_67 
REMARK       I    between atoms: C17_17  and  C18_18 
REMARK       I    between atoms: C17_17  and  N5_69 
REMARK       I    between atoms: C18_18  and  C19_19 
REMARK       I    between atoms: C19_19  and  N4_68 
REMARK       I    between atoms: C20_20  and  C21_21 
REMARK       I    between atoms: C20_20  and  N5_69 
REMARK       I    between atoms: C21_21  and  C22_22 
REMARK       I    between atoms: C21_21  and  N6_70 
REMARK       I    between atoms: C25_25  and  C26_26 
REMARK       I    between atoms: C25_25  and  N6_70 
REMARK       I    between atoms: C26_26  and  N7_71 
REMARK       I    between atoms: C27_27  and  C28_28 
REMARK       I    between atoms: C27_27  and  N7_71 
REMARK       I    between atoms: C28_28  and  C29_29 
REMARK       I    between atoms: C28_28  and  N9_73 
REMARK       I    between atoms: C29_29  and  C30_30 
REMARK       I    between atoms: C30_30  and  C31_31 
REMARK       I    between atoms: C31_31  and  C32_32 
REMARK       I    between atoms: C32_32  and  N8_72 
REMARK       I    between atoms: C33_33  and  C34_34 
REMARK       I    between atoms: C33_33  and  N9_73 
REMARK       I    between atoms: C38_38  and  C39_39 
REMARK       I    between atoms: C38_38  and  N10_74 
REMARK       I    between atoms: C43_43  and  C44_44 
REMARK       I    between atoms: C43_43  and  N11_75 
REMARK       I    between atoms: C44_44  and  C45_45 
REMARK       I    between atoms: C44_44  and  N15_80 
REMARK       I    between atoms: C45_45  and  C46_46 
REMARK       I    between atoms: C46_46  and  C47_47 
REMARK       I    between atoms: C47_47  and  N12_76 
REMARK       I    between atoms: C48_48  and  N13_78 
REMARK       I    between atoms: C48_48  and  N14_79 
REMARK       I    between atoms: C49_49  and  C50_50 
REMARK       I    between atoms: C49_49  and  N15_80 
REMARK       I    between atoms: C50_50  and  N16_81 
USER                              x       y       z     vdW  Elec       q    Type
USER                           _______ _______ _______ _____ _____    ______ ____
ROOT
ATOM      1  C1  UNL     1       7.702   4.841   3.469 -0.21 +0.00    +0.042 C 
ATOM      2  C2  UNL     1       8.960   3.982   3.394 -0.22 +0.00    +0.147 C 
ATOM      3  C3  UNL     1       9.712   4.081   2.049 +3.60 +0.00    +0.210 C 
ATOM      4  C4  UNL     1       8.767   3.974   0.847 -0.10 +0.00    +0.166 C 
ATOM      5  C5  UNL     1      11.708   5.461   2.579 +2.76 +0.00    +0.241 C 
ATOM      6  C6  UNL     1      12.491   6.740   2.236 -0.27 +0.00    +0.181 C 
ATOM      7  C7  UNL     1      13.270   6.572   0.922 +2.56 +0.00    +0.075 C 
ATOM      8  C8  UNL     1      12.407   6.640  -0.301 -0.42 -0.00    -0.028 A 
ATOM      9  C9  UNL     1      11.917   7.792  -0.884+10.40 +0.00    +0.096 A 
ATOM     10  C10 UNL     1      11.145   6.073  -2.112 -0.26 +0.00    +0.042 A 
ATOM     11  C11 UNL     1      10.496   5.275  -3.062 -0.22 +0.00    +0.030 A 
ATOM     12  C12 UNL     1      10.648   3.890  -2.957 +0.52 +0.00    +0.002 A 
ATOM     13  C13 UNL     1      11.425   3.328  -1.946+24.67 +0.00    +0.001 A 
ATOM     14  C14 UNL     1      12.072   4.141  -1.009+11.44 +0.00    +0.014 A 
ATOM     15  C15 UNL     1      11.928   5.542  -1.086 -0.15 -0.00    -0.002 A 
ATOM     16  C16 UNL     1      13.902   8.215   3.646 -0.31 +0.00    +0.241 C 
ATOM     17  C17 UNL     1      14.784   8.301   4.909 -0.07 +0.00    +0.185 C 
ATOM     18  C18 UNL     1      14.102   7.783   6.177 +0.67 +0.00    +0.137 C 
ATOM     19  C19 UNL     1      12.786   8.459   6.480 -0.25 +0.00    +0.217 C 
ATOM     20  C20 UNL     1      16.366  10.028   5.776+31.04 +0.00    +0.241 C 
ATOM     21  C21 UNL     1      16.669  11.544   5.803+36.47 +0.00    +0.180 C 
ATOM     22  C22 UNL     1      15.956  12.267   6.975 +7.82 +0.00    +0.009 C 
ATOM     23  C23 UNL     1      16.462  11.769   8.333+80.07 +0.00    +0.012 C 
ATOM     24  C24 UNL     1      14.429  12.177   6.924+99.99 +0.00    +0.012 C 
ATOM     25  C25 UNL     1      16.796  13.371   4.128+99.99 +0.00    +0.236 C 
ATOM     26  C26 UNL     1      16.633  13.668   2.637 +8.97 +0.00    +0.225 C 
ATOM     27  C27 UNL     1      17.969  11.871   1.641 -0.49 +0.00    +0.240 C 
ATOM     28  C28 UNL     1      19.323  11.487   1.010 -0.54 +0.00    +0.176 C 
ATOM     29  C29 UNL     1      19.269  11.562  -0.521 -0.12 +0.00    +0.035 C 
ATOM     30  C30 UNL     1      19.291  12.999  -1.052+99.99 +0.00    +0.004 C 
ATOM     31  C31 UNL     1      19.244  13.085  -2.583+99.99 +0.00    +0.030 C 
ATOM     32  C32 UNL     1      20.411  12.433  -3.330+99.99 +0.00    +0.267 C 
ATOM     33  C33 UNL     1      20.127   9.895   2.696 -0.20 +0.00    +0.241 C 
ATOM     34  C34 UNL     1      20.169   8.405   3.099 +1.55 +0.00    +0.179 C 
ATOM     35  C35 UNL     1      18.751   7.912   3.419 -0.23 +0.00    +0.037 C 
ATOM     36  C36 UNL     1      18.934   7.031   4.648+19.16 +0.00    +0.022 C 
ATOM     37  C37 UNL     1      20.064   7.713   5.400+99.99 +0.00    +0.127 C 
ATOM     38  C38 UNL     1      22.291   8.346   4.348+71.43 +0.00    +0.243 C 
ATOM     39  C39 UNL     1      22.991   8.306   5.729+84.18 +0.00    +0.179 C 
ATOM     40  C40 UNL     1      22.756   9.613   6.487 +4.03 +0.00    +0.037 C 
ATOM     41  C41 UNL     1      23.900  10.499   6.001 +8.19 +0.00    +0.022 C 
ATOM     42  C42 UNL     1      25.062   9.522   5.886+99.99 +0.00    +0.127 C 
ATOM     43  C43 UNL     1      25.045   7.042   5.247 +6.54 +0.00    +0.243 C 
ATOM     44  C44 UNL     1      26.553   7.003   4.911 +4.61 +0.00    +0.176 C 
ATOM     45  C45 UNL     1      27.471   7.310   6.104+99.99 +0.00    +0.036 C 
ATOM     46  C46 UNL     1      27.119   6.577   7.406+99.99 +0.00    +0.022 C 
ATOM     47  C47 UNL     1      27.101   5.052   7.300+99.99 +0.00    +0.121 C 
ATOM     48  C48 UNL     1      28.605   3.345   6.698+19.73 +0.00    +0.121 C 
ATOM     49  C49 UNL     1      27.913   7.824   2.976 +0.81 +0.00    +0.251 C 
ATOM     50  C50 UNL     1      27.837   8.776   1.761 +0.58 +0.00    +0.304 C 
ATOM     51  C51 UNL     1      29.217   9.031   1.165 +8.13 +0.00    +0.053 C 
ATOM     52  O1  UNL     1       8.119   3.000   0.503 +0.08 -0.00    -0.648 OA
ATOM     53  O2  UNL     1       8.675   5.127   0.140 +0.13 -0.00    -0.775 OA
ATOM     54  O3  UNL     1      12.152   4.615   3.359+37.80 -0.00    -0.271 OA
ATOM     55  O4  UNL     1      13.708   9.181   2.908 +1.98 -0.00    -0.271 OA
ATOM     56  O5  UNL     1      12.245   9.302   5.778+11.01 -0.00    -0.274 OA
ATOM     57  O6  UNL     1      17.001   9.208   6.436+99.99 -0.00    -0.271 OA
ATOM     58  O7  UNL     1      17.378  14.140   4.886+99.99 -0.00    -0.272 OA
ATOM     59  O8  UNL     1      17.077  11.047   1.856 -0.31 -0.00    -0.271 OA
ATOM     60  O9  UNL     1      20.464  10.818   3.437 +3.95 -0.00    -0.271 OA
ATOM     61  O10 UNL     1      22.916   8.557   3.304 -0.27 -0.00    -0.271 OA
ATOM     62  O11 UNL     1      24.385   5.996   5.247+99.99 -0.00    -0.271 OA
ATOM     63  O12 UNL     1      28.851   7.060   3.177 +2.46 -0.00    -0.271 OA
ATOM     64  O13 UNL     1       8.599   2.632   3.694 +0.11 -0.00    -0.393 OA
ATOM     65  N1  UNL     1      10.494   5.320   1.956 +0.37 -0.00    -0.343 N 
ATOM     66  N2  UNL     1      11.170   7.441  -1.974 -0.10 -0.00    -0.365 N 
ATOM     67  N3  UNL     1      13.396   6.969   3.364 -0.20 -0.00    -0.346 N 
ATOM     68  N4  UNL     1      12.193   8.033   7.635 +0.06 -0.00    -0.370 N 
ATOM     69  N5  UNL     1      15.260   9.672   5.043 +3.54 -0.00    -0.346 N 
ATOM     70  N6  UNL     1      16.335  12.120   4.493+26.68 -0.00    -0.346 N 
ATOM     71  N7  UNL     1      17.821  13.209   1.938 -0.34 -0.00    -0.351 N 
ATOM     72  N8  UNL     1      21.695  13.016  -2.962+99.99 +0.00    +0.078 N 
ATOM     73  N9  UNL     1      19.609  10.117   1.431 -0.18 -0.00    -0.346 N 
ATOM     74  N10 UNL     1      20.918   8.207   4.337+27.67 -0.00    -0.337 N 
ATOM     75  N11 UNL     1      24.445   8.244   5.566+10.10 -0.00    -0.337 N 
ATOM     76  N12 UNL     1      28.437   4.587   6.950+37.87 -0.00    -0.372 N 
ATOM     77  H12 UNL     1      29.222   5.238   6.907 +1.24 +0.00    +0.161 HD
ATOM     78  N13 UNL     1      29.833   2.884   6.379+15.41 -0.00    -0.279 NA
ATOM     79  N14 UNL     1      27.717   2.327   6.700+31.70 -0.00    -0.279 NA
ATOM     80  N15 UNL     1      26.795   7.890   3.777 +1.94 -0.00    -0.346 N 
ATOM     81  N16 UNL     1      27.196  10.052   2.155+21.44 +0.00    +0.091 N 
ATOM     82  H61 UNL     1       8.117   4.881  -0.629 +0.05 +0.00    +0.167 HD
ATOM     83  H62 UNL     1       9.423   2.130   3.827 -0.35 +0.00    +0.210 HD
ATOM     84  H63 UNL     1      10.240   5.947   1.195 +0.06 +0.00    +0.163 HD
ATOM     85  H64 UNL     1      10.700   8.090  -2.592 +0.04 +0.00    +0.165 HD
ATOM     86  H65 UNL     1      13.583   6.168   3.959 +0.05 +0.00    +0.163 HD
ATOM     87  H66 UNL     1      11.353   8.522   7.919 +0.35 +0.00    +0.159 HD
ATOM     88  H67 UNL     1      12.711   7.541   8.351 +0.12 +0.00    +0.159 HD
ATOM     89  H68 UNL     1      14.691  10.395   4.603 +4.40 +0.00    +0.163 HD
ATOM     90  H69 UNL     1      16.297  11.460   3.712 +0.15 +0.00    +0.163 HD
ATOM     91  H70 UNL     1      18.668  13.743   2.099 -0.02 +0.00    +0.163 HD
ATOM     92  H71 UNL     1      21.925  12.775  -1.999 +0.15 +0.00    +0.312 HD
ATOM     93  H72 UNL     1      22.429  12.599  -3.533+99.99 +0.00    +0.312 HD
ATOM     94  H73 UNL     1      18.988   9.404   1.069 +0.12 +0.00    +0.163 HD
ATOM     95  H74 UNL     1      30.513   3.627   6.507+99.99 +0.00    +0.126 HD
ATOM     96  H75 UNL     1      30.088   2.071   6.924 +0.26 +0.00    +0.126 HD
ATOM     97  H76 UNL     1      26.750   2.626   6.678 -0.05 +0.00    +0.126 HD
ATOM     98  H77 UNL     1      27.899   1.676   5.944 -0.06 +0.00    +0.126 HD
ATOM     99  H78 UNL     1      26.042   8.486   3.436 +0.00 +0.00    +0.163 HD
ATOM    100  H79 UNL     1      27.798  10.515   2.838 +6.63 +0.00    +0.313 HD
ATOM    101  H80 UNL     1      27.171  10.670   1.344 +5.01 +0.00    +0.313 HD
ENDROOT
TORSDOF 35
TER
