USER    Run = 1
USER    DPF = ligand_389_receptor.dpf
USER  
USER    Estimated Free Energy of Binding    =  +2.90e+004 kcal/mol  [=(1)+(2)+(3)-(4)]
USER    
USER    (1) Final Intermolecular Energy     =  +2.90e+004 kcal/mol
USER        vdW + Hbond + desolv Energy     =  +2.90e+004 kcal/mol
USER        Electrostatic Energy            =   +0.00 kcal/mol
USER    (2) Final Total Internal Energy     =   +0.00 kcal/mol
USER    (3) Torsional Free Energy           =   +1.19 kcal/mol
USER    (4) Unbound System's Energy  [=(2)] =   +0.00 kcal/mol
USER    
USER    
USER    NEWDPF move ligand_389.pdbqt
USER    NEWDPF about 0.000000 0.000000 0.000000
USER    NEWDPF tran0 15.341394 6.659772 2.554918
USER    NEWDPF quaternion0 -0.390900 -0.912562 -0.068959 -0.098347
USER    NEWDPF axisangle0 -0.392804 -0.917008 -0.069295 -168.712045
USER    NEWDPF quat0 -0.392804 -0.917008 -0.069295 -168.712045
USER  keepresnum = 1 
USER  
REMARK  0 active torsions:
REMARK  status: ('A' for Active; 'I' for Inactive)
REMARK       I    between atoms: C2_2  and  C3_3 
REMARK       I    between atoms: C2_2  and  N12_94 
REMARK       I    between atoms: C3_3  and  N1_83 
REMARK       I    between atoms: C4_4  and  C5_5 
REMARK       I    between atoms: C4_4  and  C9_9 
REMARK       I    between atoms: C4_4  and  N1_83 
REMARK       I    between atoms: C5_5  and  C6_6 
REMARK       I    between atoms: C9_9  and  N2_84 
REMARK       I    between atoms: C10_10  and  C11_11 
REMARK       I    between atoms: C10_10  and  C15_15 
REMARK       I    between atoms: C10_10  and  N2_84 
REMARK       I    between atoms: C11_11  and  C12_12 
REMARK       I    between atoms: C15_15  and  N3_85 
REMARK       I    between atoms: C16_16  and  C17_17 
REMARK       I    between atoms: C16_16  and  N3_85 
REMARK       I    between atoms: C17_17  and  N4_86 
REMARK       I    between atoms: C18_18  and  N4_86 
REMARK       I    between atoms: C21_21  and  N5_87 
REMARK       I    between atoms: C24_24  and  C25_25 
REMARK       I    between atoms: C24_24  and  N5_87 
REMARK       I    between atoms: C25_25  and  N6_88 
REMARK       I    between atoms: C26_26  and  C27_27 
REMARK       I    between atoms: C26_26  and  N6_88 
REMARK       I    between atoms: C27_27  and  C28_28 
REMARK       I    between atoms: C27_27  and  N7_89 
REMARK       I    between atoms: C28_28  and  C29_29 
REMARK       I    between atoms: C32_32  and  C33_33 
REMARK       I    between atoms: C32_32  and  N7_89 
REMARK       I    between atoms: C33_33  and  C34_34 
REMARK       I    between atoms: C33_33  and  N8_90 
REMARK       I    between atoms: C34_34  and  C35_35 
REMARK       I    between atoms: C38_38  and  C39_39 
REMARK       I    between atoms: C38_38  and  N8_90 
REMARK       I    between atoms: C39_39  and  N9_91 
REMARK       I    between atoms: C41_41  and  C42_42 
REMARK       I    between atoms: C41_41  and  N9_91 
REMARK       I    between atoms: C42_42  and  C43_43 
REMARK       I    between atoms: C42_42  and  N10_92 
REMARK       I    between atoms: C43_43  and  O8_70 
REMARK       I    between atoms: C44_44  and  C45_45 
REMARK       I    between atoms: C44_44  and  N10_92 
REMARK       I    between atoms: C45_45  and  C46_46 
REMARK       I    between atoms: C45_45  and  N11_93 
REMARK       I    between atoms: C46_46  and  C47_47 
REMARK       I    between atoms: C47_47  and  O11_73 
REMARK       I    between atoms: C50_50  and  O15_77 
REMARK       I    between atoms: C53_53  and  O14_76 
REMARK       I    between atoms: C56_56  and  C57_57 
REMARK       I    between atoms: C56_56  and  N12_94 
REMARK       I    between atoms: C57_57  and  C58_58 
REMARK       I    between atoms: C57_57  and  N13_95 
REMARK       I    between atoms: C58_58  and  O17_79 
REMARK       I    between atoms: C59_59  and  C60_60 
REMARK       I    between atoms: C59_59  and  N13_95 
REMARK       I    between atoms: C60_60  and  C61_61 
REMARK       I    between atoms: C60_60  and  N14_96 
REMARK       I    between atoms: C61_61  and  C62_62 
REMARK       I    between atoms: C62_62  and  O20_82 
USER                              x       y       z     vdW  Elec       q    Type
USER                           _______ _______ _______ _____ _____    ______ ____
ROOT
ATOM      1  C1  UNL     1      17.272   6.548  -0.487+99.99 +0.00    +0.042 C 
ATOM      2  C2  UNL     1      18.034   5.992   0.711+99.99 +0.00    +0.172 C 
ATOM      3  C3  UNL     1      18.308   7.099   1.745+49.50 +0.00    +0.240 C 
ATOM      4  C4  UNL     1      19.011   7.518   4.112 +0.70 +0.00    +0.177 C 
ATOM      5  C5  UNL     1      18.545   6.940   5.461+99.99 +0.00    +0.038 C 
ATOM      6  C6  UNL     1      19.374   5.815   6.122+99.99 -0.00    -0.020 C 
ATOM      7  C7  UNL     1      18.695   5.392   7.431+71.56 +0.00    +0.009 C 
ATOM      8  C8  UNL     1      19.588   4.587   5.243+99.99 +0.00    +0.009 C 
ATOM      9  C9  UNL     1      20.490   7.983   4.104+19.39 +0.00    +0.241 C 
ATOM     10  C10 UNL     1      22.401   8.611   2.649 -0.27 +0.00    +0.177 C 
ATOM     11  C11 UNL     1      23.277   7.350   2.812+10.79 +0.00    +0.038 C 
ATOM     12  C12 UNL     1      22.774   6.064   2.113+16.80 -0.00    -0.020 C 
ATOM     13  C13 UNL     1      22.622   6.210   0.600 +3.00 +0.00    +0.009 C 
ATOM     14  C14 UNL     1      23.727   4.906   2.426+38.01 +0.00    +0.009 C 
ATOM     15  C15 UNL     1      22.684   9.340   1.312 -0.32 +0.00    +0.240 C 
ATOM     16  C16 UNL     1      21.840  10.961  -0.336 +0.13 +0.00    +0.137 C 
ATOM     17  C17 UNL     1      20.539  11.221  -1.110+22.63 +0.00    +0.112 C 
ATOM     18  C18 UNL     1      18.264  11.575  -0.355 +2.71 +0.00    +0.023 A 
ATOM     19  C19 UNL     1      17.556  11.190   0.803 -0.47 +0.00    +0.053 A 
ATOM     20  C20 UNL     1      16.238  10.714   0.695 -0.39 +0.00    +0.057 A 
ATOM     21  C21 UNL     1      15.581  10.630  -0.560+78.19 +0.00    +0.043 A 
ATOM     22  C22 UNL     1      16.284  11.076  -1.685+99.99 +0.00    +0.032 A 
ATOM     23  C23 UNL     1      17.604  11.523  -1.587+99.99 +0.00    +0.027 A 
ATOM     24  C24 UNL     1      13.707   9.640  -1.875+99.99 +0.00    +0.139 C 
ATOM     25  C25 UNL     1      12.509   8.720  -1.561+99.99 +0.00    +0.142 C 
ATOM     26  C26 UNL     1      12.681   7.481   0.595 +8.49 +0.00    +0.240 C 
ATOM     27  C27 UNL     1      13.391   6.303   1.290+18.39 +0.00    +0.177 C 
ATOM     28  C28 UNL     1      12.841   4.939   0.846+25.82 +0.00    +0.038 C 
ATOM     29  C29 UNL     1      11.323   4.711   1.000+99.99 -0.00    -0.020 C 
ATOM     30  C30 UNL     1      10.879   4.655   2.459+43.10 +0.00    +0.009 C 
ATOM     31  C31 UNL     1      10.937   3.400   0.304+99.99 +0.00    +0.009 C 
ATOM     32  C32 UNL     1      14.345   5.937   3.548+17.41 +0.00    +0.241 C 
ATOM     33  C33 UNL     1      14.254   6.305   5.045 +0.06 +0.00    +0.177 C 
ATOM     34  C34 UNL     1      14.591   5.091   5.933+11.00 +0.00    +0.038 C 
ATOM     35  C35 UNL     1      13.719   3.829   5.742 +3.16 -0.00    -0.020 C 
ATOM     36  C36 UNL     1      14.344   2.662   6.513+99.99 +0.00    +0.009 C 
ATOM     37  C37 UNL     1      12.274   4.021   6.200 -0.54 +0.00    +0.009 C 
ATOM     38  C38 UNL     1      12.967   7.810   6.530 -0.31 +0.00    +0.240 C 
ATOM     39  C39 UNL     1      11.633   8.569   6.670 -0.09 +0.00    +0.172 C 
ATOM     40  C40 UNL     1      11.466   9.155   8.067 +6.27 +0.00    +0.042 C 
ATOM     41  C41 UNL     1       9.372   8.200   5.736+99.99 +0.00    +0.243 C 
ATOM     42  C42 UNL     1       8.155   7.251   5.665+99.99 +0.00    +0.200 C 
ATOM     43  C43 UNL     1       8.523   5.763   5.596 +0.03 +0.00    +0.199 C 
ATOM     44  C44 UNL     1       7.417   7.340   3.275 +0.60 +0.00    +0.252 C 
ATOM     45  C45 UNL     1       6.699   8.224   2.229 +0.20 +0.00    +0.318 C 
ATOM     46  C46 UNL     1       7.470   9.512   1.984+99.99 +0.00    +0.155 C 
ATOM     47  C47 UNL     1       8.777   9.193   1.315+99.99 +0.00    +0.141 C 
ATOM     48  C48 UNL     1      15.558  10.241   1.923 +0.08 +0.00    +0.199 C 
ATOM     49  C49 UNL     1      16.102  10.560   3.247 +0.16 +0.00    +0.065 A 
ATOM     50  C50 UNL     1      15.335  10.338   4.402+66.69 +0.00    +0.081 A 
ATOM     51  C51 UNL     1      15.866  10.588   5.663+72.90 +0.00    +0.040 A 
ATOM     52  C52 UNL     1      17.170  11.066   5.778+10.15 +0.00    +0.040 A 
ATOM     53  C53 UNL     1      17.932  11.291   4.633+24.20 +0.00    +0.081 A 
ATOM     54  C54 UNL     1      17.400  11.043   3.358 -0.31 +0.00    +0.065 A 
ATOM     55  C55 UNL     1      18.205  11.245   2.141 -0.42 +0.00    +0.199 C 
ATOM     56  C56 UNL     1      17.324   3.626   0.787+99.99 +0.00    +0.243 C 
ATOM     57  C57 UNL     1      16.333   2.635   1.439+99.99 +0.00    +0.200 C 
ATOM     58  C58 UNL     1      16.800   2.218   2.836+47.91 +0.00    +0.199 C 
ATOM     59  C59 UNL     1      15.380   1.596  -0.566 +2.32 +0.00    +0.252 C 
ATOM     60  C60 UNL     1      15.580   0.446  -1.572+15.27 +0.00    +0.318 C 
ATOM     61  C61 UNL     1      14.652  -0.704  -1.207+99.99 +0.00    +0.155 C 
ATOM     62  C62 UNL     1      13.236  -0.312  -1.516+31.26 +0.00    +0.141 C 
ATOM     63  O1  UNL     1      18.367   8.293   1.463 +3.16 -0.00    -0.271 OA
ATOM     64  O2  UNL     1      21.149   8.146   5.128+99.99 -0.00    -0.271 OA
ATOM     65  O3  UNL     1      23.785   9.321   0.765 -0.28 -0.00    -0.271 OA
ATOM     66  O4  UNL     1      11.980   8.281   1.217+58.59 -0.00    -0.271 OA
ATOM     67  O5  UNL     1      15.252   5.233   3.100+99.99 -0.00    -0.271 OA
ATOM     68  O6  UNL     1      13.940   8.013   7.251 +0.48 -0.00    -0.271 OA
ATOM     69  O7  UNL     1       9.283   9.371   5.361+16.71 -0.00    -0.271 OA
ATOM     70  O8  UNL     1       9.041   5.325   6.862 -0.14 -0.00    -0.398 OA
ATOM     71  O9  UNL     1       8.053   6.345   2.944 -0.15 -0.00    -0.271 OA
ATOM     72  O10 UNL     1       8.936   8.977   0.125+38.03 -0.00    -0.650 OA
ATOM     73  O11 UNL     1       9.790   9.129   2.195+22.54 -0.00    -0.776 OA
ATOM     74  O12 UNL     1      14.534   9.563   1.873+77.17 -0.00    -0.286 OA
ATOM     75  O13 UNL     1      19.413  11.456   2.267 -0.33 -0.00    -0.286 OA
ATOM     76  O14 UNL     1      19.206  11.745   4.836+99.99 -0.00    -0.360 OA
ATOM     77  O15 UNL     1      14.046   9.878   4.359+19.62 -0.00    -0.360 OA
ATOM     78  O16 UNL     1      18.050   3.333  -0.163+99.99 -0.00    -0.271 OA
ATOM     79  O17 UNL     1      18.008   1.459   2.774+99.99 -0.00    -0.398 OA
ATOM     80  O18 UNL     1      14.568   2.500  -0.743+99.99 -0.00    -0.271 OA
ATOM     81  O19 UNL     1      12.796  -0.017  -2.614 -0.54 -0.00    -0.650 OA
ATOM     82  O20 UNL     1      12.440  -0.315  -0.431 +4.68 -0.00    -0.776 OA
ATOM     83  N1  UNL     1      18.657   6.638   2.993 +4.66 -0.00    -0.346 N 
ATOM     84  N2  UNL     1      20.986   8.324   2.862 +1.37 -0.00    -0.346 N 
ATOM     85  N3  UNL     1      21.638  10.101   0.825 -0.18 -0.00    -0.358 N 
ATOM     86  N4  UNL     1      19.603  12.028  -0.309 -0.28 -0.00    -0.291 NA
ATOM     87  N5  UNL     1      14.234  10.250  -0.654+23.91 -0.00    -0.388 N 
ATOM     88  N6  UNL     1      12.915   7.570  -0.758 +1.72 -0.00    -0.358 N 
ATOM     89  N7  UNL     1      13.384   6.495   2.738 +0.73 -0.00    -0.346 N 
ATOM     90  N8  UNL     1      13.020   6.977   5.427 -0.16 -0.00    -0.346 N 
ATOM     91  N9  UNL     1      10.505   7.699   6.334 +0.13 -0.00    -0.346 N 
ATOM     92  N10 UNL     1       7.286   7.753   4.588+60.19 -0.00    -0.344 N 
ATOM     93  N11 UNL     1       5.314   8.514   2.676 +1.91 +0.00    +0.092 N 
ATOM     94  N12 UNL     1      17.321   4.889   1.345+67.44 -0.00    -0.346 N 
ATOM     95  N13 UNL     1      16.163   1.485   0.564+99.99 -0.00    -0.344 N 
ATOM     96  N14 UNL     1      16.999  -0.002  -1.521+99.99 +0.00    +0.092 N 
ATOM     97  H73 UNL     1       9.050   4.349   6.827 +0.14 +0.00    +0.209 HD
ATOM     98  H74 UNL     1      10.602   8.889   1.676 +4.88 +0.00    +0.167 HD
ATOM     99  H75 UNL     1      19.666  11.781   3.970+12.56 +0.00    +0.217 HD
ATOM    100  H76 UNL     1      13.800   9.750   3.416 +0.05 +0.00    +0.217 HD
ATOM    101  H77 UNL     1      18.183   1.120   3.669+99.99 +0.00    +0.209 HD
ATOM    102  H78 UNL     1      11.573  -0.004  -0.770 +0.07 +0.00    +0.167 HD
ATOM    103  H79 UNL     1      18.767   5.635   3.088 +0.45 +0.00    +0.163 HD
ATOM    104  H80 UNL     1      20.373   8.266   2.055 +0.66 +0.00    +0.163 HD
ATOM    105  H81 UNL     1      20.904  10.356   1.486 +0.13 +0.00    +0.162 HD
ATOM    106  H82 UNL     1      19.914  12.080   0.669 +0.09 +0.00    +0.127 HD
ATOM    107  H83 UNL     1      13.915   9.772   0.199+99.99 +0.00    +0.159 HD
ATOM    108  H84 UNL     1      13.513   6.882  -1.201 +0.05 +0.00    +0.162 HD
ATOM    109  H85 UNL     1      12.913   7.333   3.072 +0.07 +0.00    +0.163 HD
ATOM    110  H86 UNL     1      12.151   6.786   4.939 +0.11 +0.00    +0.163 HD
ATOM    111  H87 UNL     1      10.405   6.828   6.856 +0.12 +0.00    +0.163 HD
ATOM    112  H88 UNL     1       7.079   8.740   4.695+99.99 +0.00    +0.163 HD
ATOM    113  H89 UNL     1       5.321   8.961   3.590 +7.63 +0.00    +0.313 HD
ATOM    114  H90 UNL     1       4.823   7.627   2.802 +0.14 +0.00    +0.313 HD
ATOM    115  H91 UNL     1      16.555   5.117   1.986+65.46 +0.00    +0.163 HD
ATOM    116  H92 UNL     1      16.984   0.893   0.437+99.99 +0.00    +0.163 HD
ATOM    117  H93 UNL     1      17.594   0.801  -1.747+99.99 +0.00    +0.313 HD
ATOM    118  H94 UNL     1      17.158  -0.675  -2.272 +2.23 +0.00    +0.313 HD
ENDROOT
TORSDOF 48
TER
