USER    Run = 1
USER    DPF = ligand_451_receptor.dpf
USER  
USER    Estimated Free Energy of Binding    =  +24.12 kcal/mol  [=(1)+(2)+(3)-(4)]
USER    
USER    (1) Final Intermolecular Energy     =  +22.93 kcal/mol
USER        vdW + Hbond + desolv Energy     =  +22.93 kcal/mol
USER        Electrostatic Energy            =   +0.00 kcal/mol
USER    (2) Final Total Internal Energy     =  +25.06 kcal/mol
USER    (3) Torsional Free Energy           =   +1.19 kcal/mol
USER    (4) Unbound System's Energy  [=(2)] =  +25.06 kcal/mol
USER    
USER    
USER    NEWDPF move ligand_451.pdbqt
USER    NEWDPF about 0.000000 0.000000 0.000000
USER    NEWDPF tran0 13.640154 8.382749 -0.569798
USER    NEWDPF quaternion0 -0.025654 0.985216 -0.065359 0.156265
USER    NEWDPF axisangle0 -0.025973 0.997470 -0.066172 162.019608
USER    NEWDPF quat0 -0.025973 0.997470 -0.066172 162.019608
USER    NEWDPF dihe0 180.00 23.31 34.76 137.31 -180.00 -153.85 -172.21 9.38 160.83 146.28 130.76 83.31 -126.05 105.46 -109.68 24.98 
USER  keepresnum = 1 
USER  
REMARK  16 active torsions:
REMARK  status: ('A' for Active; 'I' for Inactive)
REMARK    1  A    between atoms: C5_5  and  O1_51 
REMARK       I    between atoms: C6_6  and  N2_47 
REMARK    2  A    between atoms: C6_6  and  O1_51 
REMARK    3  A    between atoms: C7_7  and  N2_47 
REMARK    4  A    between atoms: C12_12  and  C13_13 
REMARK    5  A    between atoms: C19_19  and  C20_20 
REMARK    6  A    between atoms: C19_19  and  N1_46 
REMARK    7  A    between atoms: C20_20  and  C21_21 
REMARK    8  A    between atoms: C24_24  and  N3_48 
REMARK    9  A    between atoms: C27_27  and  C28_28 
REMARK       I    between atoms: C27_27  and  N3_48 
REMARK   10  A    between atoms: C30_30  and  C34_34 
REMARK   11  A    between atoms: C34_34  and  N4_49 
REMARK   12  A    between atoms: C35_35  and  C36_36 
REMARK   13  A    between atoms: C35_35  and  N4_49 
REMARK   14  A    between atoms: C36_36  and  C37_37 
REMARK   15  A    between atoms: C36_36  and  O6_56 
REMARK   16  A    between atoms: C43_43  and  O5_55 
USER                              x       y       z     vdW  Elec       q    Type
USER                           _______ _______ _______ _____ _____    ______ ____
ROOT
ATOM      1  C21 UNL     1      13.476   6.878  -0.498 -0.19 -0.00    -0.056 A 
ATOM      2  C22 UNL     1      13.139   5.852  -1.388 +3.28 +0.00    +0.009 A 
ATOM      3  C23 UNL     1      11.828   5.366  -1.454 +0.48 +0.00    +0.030 A 
ATOM      4  C24 UNL     1      10.834   5.900  -0.635 -0.28 +0.00    +0.035 A 
ATOM      5  C25 UNL     1      11.170   6.928   0.255 -0.21 +0.00    +0.030 A 
ATOM      6  C26 UNL     1      12.479   7.416   0.322 +3.94 +0.00    +0.009 A 
ENDROOT
BRANCH   4   7
ATOM      7  N3  UNL     1       9.494   5.465  -0.636 -0.05 -0.00    -0.323 N 
ATOM      8  C27 UNL     1       9.001   4.258  -1.103 -0.07 +0.00    +0.256 C 
ATOM      9  O3  UNL     1       9.617   3.361  -1.662 -0.13 -0.00    -0.267 OA
ATOM     10  H41 UNL     1       8.816   6.155  -0.316 +0.08 +0.00    +0.169 HD
BRANCH   8  11
ATOM     11  C28 UNL     1       7.536   4.107  -0.930 -0.09 +0.00    +0.032 A 
ATOM     12  C29 UNL     1       6.964   2.833  -0.840 -0.08 +0.00    +0.026 A 
ATOM     13  C30 UNL     1       5.616   2.683  -0.486 -0.08 -0.00    -0.029 A 
ATOM     14  C31 UNL     1       4.825   3.832  -0.349 -0.15 +0.00    +0.009 A 
ATOM     15  C32 UNL     1       5.379   5.105  -0.521 -0.09 +0.00    +0.002 A 
ATOM     16  C33 UNL     1       6.738   5.244  -0.801 +1.05 +0.00    +0.017 A 
BRANCH  13  17
ATOM     17  C34 UNL     1       5.036   1.311  -0.253 -0.07 +0.00    +0.308 C 
BRANCH  17  18
ATOM     18  N4  UNL     1       3.612   1.316   0.140 -0.14 +0.00    +0.090 N 
ATOM     19  H42 UNL     1       3.440   2.227   0.573 +0.07 +0.00    +0.316 HD
BRANCH  18  20
ATOM     20  C35 UNL     1       3.282   0.278   1.149 +0.22 +0.00    +0.306 C 
BRANCH  20  21
ATOM     21  C36 UNL     1       3.930   0.567   2.532 -0.19 +0.00    +0.180 C 
BRANCH  21  22
ATOM     22  C37 UNL     1       4.248   2.035   2.753 -0.17 -0.00    -0.015 A 
ATOM     23  C38 UNL     1       5.546   2.596   2.700 -0.19 +0.00    +0.003 A 
ATOM     24  C39 UNL     1       6.760   1.821   2.396 -0.27 +0.00    +0.020 A 
ATOM     25  C42 UNL     1       5.711   3.978   2.946 -0.11 +0.00    +0.079 A 
ATOM     26  C40 UNL     1       7.961   2.407   2.320 -0.20 +0.00    +0.075 A 
ATOM     27  C41 UNL     1       8.118   3.861   2.525 -0.08 +0.00    +0.245 A 
ATOM     28  N5  UNL     1       6.989   4.559   2.843 -0.03 -0.00    -0.321 N 
ATOM     29  O4  UNL     1       9.213   4.400   2.418 -0.12 -0.00    -0.268 OA
ATOM     30  H43 UNL     1       7.110   5.560   2.895 +0.07 +0.00    +0.169 HD
ATOM     31  C43 UNL     1       4.613   4.778   3.271 -0.12 +0.00    +0.093 A 
ATOM     32  C44 UNL     1       3.336   4.242   3.304 -0.11 +0.00    +0.039 A 
ATOM     33  C45 UNL     1       3.156   2.883   3.048 -0.09 +0.00    +0.013 A 
BRANCH  31  34
ATOM     34  O5  UNL     1       4.741   6.099   3.597 -0.10 -0.00    -0.358 OA
ATOM     35  H44 UNL     1       3.940   6.553   3.286 +0.06 +0.00    +0.217 HD
ENDBRANCH  31  34
ENDBRANCH  21  22
BRANCH  21  36
ATOM     36  O6  UNL     1       3.099   0.053   3.584 -0.20 -0.00    -0.389 OA
ATOM     37  H45 UNL     1       2.828  -0.827   3.247 +0.09 +0.00    +0.210 HD
ENDBRANCH  21  36
ENDBRANCH  20  21
ENDBRANCH  18  20
ENDBRANCH  17  18
ENDBRANCH  13  17
ENDBRANCH   8  11
ENDBRANCH   4   7
BRANCH   1  38
ATOM     38  C20 UNL     1      14.886   7.417  -0.448 +0.41 +0.00    +0.068 C 
BRANCH  38  39
ATOM     39  C19 UNL     1      15.111   8.293   0.797 +3.38 +0.00    +0.277 C 
BRANCH  39  40
ATOM     40  N1  UNL     1      14.718   7.614   2.044 +6.53 +0.00    +0.088 N 
ATOM     41  C2  UNL     1      15.393   8.150   3.237 -0.32 +0.00    +0.275 C 
ATOM     42  C1  UNL     1      14.495   9.018   4.118 +0.12 +0.00    +0.063 C 
ATOM     43  C5  UNL     1      13.264   8.242   4.593 -0.34 +0.00    +0.137 C 
ATOM     44  C4  UNL     1      12.826   7.181   3.580 -0.45 +0.00    +0.063 C 
ATOM     45  C3  UNL     1      13.253   7.567   2.169 +2.14 +0.00    +0.275 C 
BRANCH  43  46
ATOM     46  O1  UNL     1      13.595   7.607   5.846 -0.26 -0.00    -0.298 OA
BRANCH  46  47
ATOM     47  C6  UNL     1      12.557   7.071   6.544 -0.20 +0.00    +0.365 C 
ATOM     48  N2  UNL     1      11.568   6.772   5.653 -0.14 -0.00    -0.302 N 
ATOM     49  H40 UNL     1      11.808   7.008   4.699 +0.12 +0.00    +0.171 HD
ATOM     50  O2  UNL     1      12.560   6.909   7.753 -0.30 -0.00    -0.238 OA
BRANCH  48  51
ATOM     51  C7  UNL     1      10.298   6.202   5.887 -0.26 +0.00    +0.048 A 
ATOM     52  C8  UNL     1       9.137   6.684   5.269 +1.66 +0.00    +0.030 A 
ATOM     53  C9  UNL     1       7.893   6.100   5.525 +1.36 +0.00    +0.002 A 
ATOM     54  C10 UNL     1       7.792   5.027   6.402 -0.38 +0.00    +0.001 A 
ATOM     55  C11 UNL     1       8.937   4.536   7.026 -0.45 +0.00    +0.014 A 
ATOM     56  C12 UNL     1      10.199   5.108   6.782 -0.36 +0.00    +0.001 A 
BRANCH  56  57
ATOM     57  C13 UNL     1      11.371   4.541   7.468 -0.44 -0.00    -0.024 A 
ATOM     58  C14 UNL     1      12.520   4.186   6.745 -0.49 +0.00    +0.012 A 
ATOM     59  C15 UNL     1      13.639   3.665   7.398 -0.16 +0.00    +0.001 A 
ATOM     60  C16 UNL     1      13.621   3.491   8.781 +2.25 +0.00    +0.000 A 
ATOM     61  C17 UNL     1      12.486   3.838   9.511 +3.60 +0.00    +0.001 A 
ATOM     62  C18 UNL     1      11.367   4.359   8.858 +0.17 +0.00    +0.012 A 
ENDBRANCH  56  57
ENDBRANCH  48  51
ENDBRANCH  46  47
ENDBRANCH  43  46
ENDBRANCH  39  40
ENDBRANCH  38  39
ENDBRANCH   1  38
TORSDOF 16
TER
