USER    Run = 1
USER    DPF = ligand_380_receptor.dpf
USER  
USER    Estimated Free Energy of Binding    =  +2.08e+005 kcal/mol  [=(1)+(2)+(3)-(4)]
USER    
USER    (1) Final Intermolecular Energy     =  +2.08e+005 kcal/mol
USER        vdW + Hbond + desolv Energy     =  +2.08e+005 kcal/mol
USER        Electrostatic Energy            =   +0.00 kcal/mol
USER    (2) Final Total Internal Energy     =   +0.00 kcal/mol
USER    (3) Torsional Free Energy           =   +1.19 kcal/mol
USER    (4) Unbound System's Energy  [=(2)] =   +0.00 kcal/mol
USER    
USER    
USER    NEWDPF move ligand_380.pdbqt
USER    NEWDPF about 0.000000 0.000000 0.000000
USER    NEWDPF tran0 15.030343 7.112195 3.555940
USER    NEWDPF quaternion0 0.687924 0.180607 -0.134169 0.690029
USER    NEWDPF axisangle0 0.950458 0.249533 -0.185373 92.735236
USER    NEWDPF quat0 0.950458 0.249533 -0.185373 92.735236
USER  keepresnum = 1 
USER  
REMARK  0 active torsions:
REMARK  status: ('A' for Active; 'I' for Inactive)
REMARK       I    between atoms: C3_3  and  C12_12 
REMARK       I    between atoms: C4_4  and  C6_6 
REMARK       I    between atoms: C5_5  and  N3_62 
REMARK       I    between atoms: C6_6  and  C7_7 
REMARK       I    between atoms: C6_6  and  N5_64 
REMARK       I    between atoms: C7_7  and  C8_8 
REMARK       I    between atoms: C8_8  and  N4_63 
REMARK       I    between atoms: C9_9  and  C10_10 
REMARK       I    between atoms: C9_9  and  N5_64 
REMARK       I    between atoms: C10_10  and  C11_11 
REMARK       I    between atoms: C10_10  and  N7_66 
REMARK       I    between atoms: C11_11  and  N6_65 
REMARK       I    between atoms: C12_12  and  N8_67 
REMARK       I    between atoms: C13_13  and  C14_14 
REMARK       I    between atoms: C13_13  and  C31_31 
REMARK       I    between atoms: C13_13  and  N8_67 
REMARK       I    between atoms: C14_14  and  C15_15 
REMARK       I    between atoms: C14_14  and  O4_85 
REMARK       I    between atoms: C18_18  and  O5_86 
REMARK       I    between atoms: C19_19  and  O10_91 
REMARK       I    between atoms: C20_20  and  O9_90 
REMARK       I    between atoms: C21_21  and  O8_89 
REMARK       I    between atoms: C22_22  and  C23_23 
REMARK       I    between atoms: C23_23  and  O7_88 
REMARK       I    between atoms: C24_24  and  O10_91 
REMARK       I    between atoms: C25_25  and  O16_97 
REMARK       I    between atoms: C26_26  and  O14_95 
REMARK       I    between atoms: C27_27  and  O13_94 
REMARK       I    between atoms: C28_28  and  C29_29 
REMARK       I    between atoms: C29_29  and  O12_93 
REMARK       I    between atoms: C30_30  and  N11_71 
REMARK       I    between atoms: C30_30  and  O14_95 
REMARK       I    between atoms: C31_31  and  N12_72 
REMARK       I    between atoms: C32_32  and  C34_34 
REMARK       I    between atoms: C32_32  and  N12_72 
REMARK       I    between atoms: C34_34  and  C35_35 
REMARK       I    between atoms: C34_34  and  O22_103 
REMARK       I    between atoms: C35_35  and  C37_37 
REMARK       I    between atoms: C37_37  and  N13_73 
REMARK       I    between atoms: C38_38  and  C39_39 
REMARK       I    between atoms: C38_38  and  C41_41 
REMARK       I    between atoms: C38_38  and  N13_73 
REMARK       I    between atoms: C39_39  and  O19_100 
REMARK       I    between atoms: C41_41  and  N14_74 
REMARK       I    between atoms: C42_42  and  C43_43 
REMARK       I    between atoms: C42_42  and  N14_74 
REMARK       I    between atoms: C43_43  and  C44_44 
REMARK       I    between atoms: C45_45  and  C47_47 
REMARK       I    between atoms: C48_48  and  C50_50 
REMARK       I    between atoms: C50_50  and  N17_79 
REMARK       I    between atoms: C51_51  and  C52_52 
REMARK       I    between atoms: C51_51  and  N17_79 
REMARK       I    between atoms: C52_52  and  C53_53 
REMARK       I    between atoms: C53_53  and  N18_80 
REMARK       I    between atoms: C54_54  and  C55_55 
REMARK       I    between atoms: C54_54  and  N18_80 
REMARK       I    between atoms: C55_55  and  C56_56 
REMARK       I    between atoms: C56_56  and  C57_57 
REMARK       I    between atoms: C57_57  and  N19_81 
REMARK       I    between atoms: O4_85  and  O5_86 
USER                              x       y       z     vdW  Elec       q    Type
USER                           _______ _______ _______ _____ _____    ______ ____
ROOT
ATOM      1  C1  UNL     1      11.311   0.932   3.458+14.13 +0.00    +0.054 C 
ATOM      2  C2  UNL     1      10.629   1.677   2.354 +8.57 +0.00    +0.009 A 
ATOM      3  C3  UNL     1      10.707   3.054   2.223+99.99 +0.00    +0.111 A 
ATOM      4  C4  UNL     1       9.283   3.086   0.434 +0.08 +0.00    +0.117 A 
ATOM      5  C5  UNL     1       9.806   1.068   1.421 -0.15 +0.00    +0.087 A 
ATOM      6  C6  UNL     1       8.364   3.888  -0.492 -0.03 +0.00    +0.296 C 
ATOM      7  C7  UNL     1       9.241   4.880  -1.278 -0.14 +0.00    +0.146 C 
ATOM      8  C8  UNL     1       8.448   5.698  -2.264 +0.70 +0.00    +0.217 C 
ATOM      9  C9  UNL     1       6.409   3.700   1.009 -0.02 +0.00    +0.315 C 
ATOM     10  C10 UNL     1       5.026   4.324   1.324 -0.07 +0.00    +0.336 C 
ATOM     11  C11 UNL     1       5.078   5.164   2.616 -0.12 +0.00    +0.250 C 
ATOM     12  C12 UNL     1      11.422   3.946   3.201+70.28 +0.00    +0.269 C 
ATOM     13  C13 UNL     1      11.866   6.370   3.573 -0.22 +0.00    +0.215 C 
ATOM     14  C14 UNL     1      10.571   7.210   3.694 -0.27 +0.00    +0.243 C 
ATOM     15  C15 UNL     1       9.959   7.574   2.366 -0.21 +0.00    +0.060 A 
ATOM     16  C16 UNL     1      10.414   8.348   1.315+34.40 +0.00    +0.116 A 
ATOM     17  C17 UNL     1       8.460   7.717   0.741 -0.10 +0.00    +0.180 A 
ATOM     18  C18 UNL     1       8.763   5.953   6.489 +0.62 +0.00    +0.328 C 
ATOM     19  C19 UNL     1       8.885   4.412   6.530 -0.33 +0.00    +0.214 C 
ATOM     20  C20 UNL     1      10.078   3.985   7.415 -0.41 +0.00    +0.183 C 
ATOM     21  C21 UNL     1      10.644   5.125   8.273 -0.21 +0.00    +0.180 C 
ATOM     22  C22 UNL     1       9.542   6.055   8.797+41.45 +0.00    +0.179 C 
ATOM     23  C23 UNL     1       8.714   5.449   9.943 +7.79 +0.00    +0.198 C 
ATOM     24  C24 UNL     1       6.592   3.758   6.159 +0.14 +0.00    +0.292 C 
ATOM     25  C25 UNL     1       5.328   3.220   6.854 +2.23 +0.00    +0.205 C 
ATOM     26  C26 UNL     1       5.550   1.756   7.275+99.99 +0.00    +0.198 C 
ATOM     27  C27 UNL     1       5.946   0.914   6.045+99.99 +0.00    +0.181 C 
ATOM     28  C28 UNL     1       7.084   1.600   5.260+99.99 +0.00    +0.179 C 
ATOM     29  C29 UNL     1       7.289   0.895   3.912 +9.49 +0.00    +0.198 C 
ATOM     30  C30 UNL     1       4.361   0.195   8.642+99.99 +0.00    +0.358 C 
ATOM     31  C31 UNL     1      13.054   7.232   3.129 -0.28 +0.00    +0.243 C 
ATOM     32  C32 UNL     1      15.308   7.137   2.030+99.99 +0.00    +0.110 C 
ATOM     33  C33 UNL     1      16.393   6.068   1.983+99.99 +0.00    +0.035 C 
ATOM     34  C34 UNL     1      15.015   7.833   0.661 +3.84 +0.00    +0.153 C 
ATOM     35  C35 UNL     1      16.176   8.353  -0.216 -0.52 +0.00    +0.104 C 
ATOM     36  C36 UNL     1      16.878   7.247  -1.008 +4.31 +0.00    +0.022 C 
ATOM     37  C37 UNL     1      17.200   9.190   0.544 -0.38 +0.00    +0.224 C 
ATOM     38  C38 UNL     1      19.038  10.831   0.277 -0.42 +0.00    +0.205 C 
ATOM     39  C39 UNL     1      20.225  10.136   0.978 -0.36 +0.00    +0.146 C 
ATOM     40  C40 UNL     1      21.182   9.430   0.024 +0.19 +0.00    +0.042 C 
ATOM     41  C41 UNL     1      19.474  11.767  -0.871 +1.20 +0.00    +0.243 C 
ATOM     42  C42 UNL     1      20.940  13.661  -1.494+99.99 +0.00    +0.129 C 
ATOM     43  C43 UNL     1      22.010  13.028  -2.389+99.99 +0.00    +0.084 C 
ATOM     44  C44 UNL     1      23.223  12.590  -1.622 +7.63 +0.00    +0.052 A 
ATOM     45  C45 UNL     1      24.624  12.228   0.049+99.99 +0.00    +0.073 A 
ATOM     46  C46 UNL     1      25.319  11.580  -0.950+99.99 +0.00    +0.083 A 
ATOM     47  C47 UNL     1      25.150  12.281   1.534+16.92 +0.00    +0.102 A 
ATOM     48  C48 UNL     1      26.520  11.903   3.256+99.99 +0.00    +0.108 A 
ATOM     49  C49 UNL     1      25.518  12.616   3.897+99.99 +0.00    +0.087 A 
ATOM     50  C50 UNL     1      27.730  11.346   3.886+99.99 +0.00    +0.268 C 
ATOM     51  C51 UNL     1      29.267  11.472   5.820+99.99 +0.00    +0.125 C 
ATOM     52  C52 UNL     1      30.477  12.256   5.323+99.99 +0.00    +0.050 C 
ATOM     53  C53 UNL     1      31.788  11.826   5.989 +0.09 +0.00    +0.271 C 
ATOM     54  C54 UNL     1      31.838  13.477   7.788 -0.16 +0.00    +0.269 C 
ATOM     55  C55 UNL     1      32.371  13.718   9.202 -0.17 +0.00    +0.032 C 
ATOM     56  C56 UNL     1      31.741  12.909  10.344 -0.21 +0.00    +0.031 C 
ATOM     57  C57 UNL     1      30.229  13.065  10.499 -0.16 +0.00    +0.267 C 
ATOM     58  N1  UNL     1      10.080   3.770   1.263+21.25 -0.00    -0.339 N 
ATOM     59  H1  UNL     1      10.207   4.778   1.175 -0.35 +0.00    +0.167 HD
ATOM     60  N2  UNL     1       9.131   1.756   0.483 -0.09 -0.00    -0.335 N 
ATOM     61  H2  UNL     1       8.517   1.276  -0.176 +0.08 +0.00    +0.168 HD
ATOM     62  N3  UNL     1       9.517  -0.300   1.475 +0.98 -0.00    -0.288 NA
ATOM     63  N4  UNL     1       8.999   6.911  -2.572 -0.08 -0.00    -0.370 N 
ATOM     64  N5  UNL     1       7.286   4.616   0.249 -0.10 +0.00    +0.098 N 
ATOM     65  N6  UNL     1       5.485   6.462   2.439 -0.12 -0.00    -0.368 N 
ATOM     66  N7  UNL     1       4.534   5.184   0.204 -0.20 +0.00    +0.093 N 
ATOM     67  N8  UNL     1      11.703   5.200   2.691 +2.75 -0.00    -0.339 N 
ATOM     68  N9  UNL     1       9.495   8.390   0.296 +6.15 -0.00    -0.360 N 
ATOM     69  H9  UNL     1       9.595   8.846  -0.611 +0.18 +0.00    +0.166 HD
ATOM     70  N10 UNL     1       8.710   7.160   1.962 -0.14 -0.00    -0.352 N 
ATOM     71  N11 UNL     1       3.150  -0.055   9.178+97.70 -0.00    -0.346 N 
ATOM     72  N12 UNL     1      14.079   6.513   2.548+27.35 -0.00    -0.352 N 
ATOM     73  N13 UNL     1      18.069   9.879  -0.269 -0.17 -0.00    -0.345 N 
ATOM     74  N14 UNL     1      20.377  12.743  -0.519 +2.11 -0.00    -0.359 N 
ATOM     75  N15 UNL     1      23.436  12.822  -0.344 +7.19 -0.00    -0.351 N 
ATOM     76  H15 UNL     1      22.819  13.360   0.265 +7.59 +0.00    +0.166 HD
ATOM     77  N16 UNL     1      26.284  11.717   1.892+99.99 -0.00    -0.344 N 
ATOM     78  H16 UNL     1      26.906  11.214   1.259 +4.48 +0.00    +0.167 HD
ATOM     79  N17 UNL     1      28.054  11.866   5.128+99.99 -0.00    -0.356 N 
ATOM     80  N18 UNL     1      31.900  12.062   7.428 +1.55 +0.00    +0.083 N 
ATOM     81  N19 UNL     1      29.487  12.191   9.590 -0.37 +0.00    +0.078 N 
ATOM     82  O1  UNL     1       7.405   5.322  -2.787+24.38 -0.00    -0.274 OA
ATOM     83  O2  UNL     1       4.798   4.735   3.731 -0.08 -0.00    -0.271 OA
ATOM     84  O3  UNL     1      11.671   3.614   4.352 +0.51 -0.00    -0.266 OA
ATOM     85  O4  UNL     1       9.574   6.430   4.385 -0.20 -0.00    -0.224 OA
ATOM     86  O5  UNL     1       9.876   6.543   5.810 -0.19 -0.00    -0.204 OA
ATOM     87  O6  UNL     1       8.608   6.512   7.798 +0.92 -0.00    -0.346 OA
ATOM     88  O7  UNL     1       7.753   6.406  10.403+99.99 -0.00    -0.398 OA
ATOM     89  O8  UNL     1      11.441   4.595   9.335 +0.23 -0.00    -0.390 OA
ATOM     90  O9  UNL     1       9.735   2.888   8.289 -0.13 -0.00    -0.390 OA
ATOM     91  O10 UNL     1       7.699   3.764   7.063 -0.31 -0.00    -0.346 OA
ATOM     92  O11 UNL     1       6.856   2.984   4.992 +0.85 -0.00    -0.348 OA
ATOM     93  O12 UNL     1       7.976  -0.349   4.048+99.99 -0.00    -0.398 OA
ATOM     94  O13 UNL     1       6.412  -0.408   6.373+99.99 -0.00    -0.390 OA
ATOM     95  O14 UNL     1       4.308   1.296   7.870+99.99 -0.00    -0.293 OA
ATOM     96  O15 UNL     1       5.350  -0.494   8.822+99.99 -0.00    -0.239 OA
ATOM     97  O16 UNL     1       4.182   3.299   5.983 -0.40 -0.00    -0.388 OA
ATOM     98  O17 UNL     1      13.150   8.433   3.366 -0.27 -0.00    -0.271 OA
ATOM     99  O18 UNL     1      17.289   9.230   1.766 -0.29 -0.00    -0.273 OA
ATOM    100  O19 UNL     1      20.969  11.089   1.750 +0.02 -0.00    -0.393 OA
ATOM    101  O20 UNL     1      19.003  11.668  -2.006+10.83 -0.00    -0.271 OA
ATOM    102  O21 UNL     1      28.420  10.490   3.339+99.99 -0.00    -0.266 OA
ATOM    103  O22 UNL     1      14.108   8.941   0.838+99.99 -0.00    -0.393 OA
ATOM    104  S1  UNL     1      24.457  11.695  -2.425+48.86 -0.00    -0.086 SA
ATOM    105  S2  UNL     1      24.292  13.071   2.788+99.99 -0.00    -0.080 SA
ATOM    106  H62 UNL     1      10.361  -0.860   1.475 +0.07 +0.00    +0.125 HD
ATOM    107  H63 UNL     1       9.014  -0.502   2.349 +2.40 +0.00    +0.125 HD
ATOM    108  H64 UNL     1       9.541   7.401  -1.859 +0.09 +0.00    +0.159 HD
ATOM    109  H65 UNL     1       8.425   7.515  -3.147 -0.22 +0.00    +0.159 HD
ATOM    110  H66 UNL     1       6.690   5.076  -0.452 -0.00 +0.00    +0.317 HD
ATOM    111  H67 UNL     1       5.350   6.816   1.494 +0.05 +0.00    +0.159 HD
ATOM    112  H68 UNL     1       5.316   7.098   3.206 +0.07 +0.00    +0.159 HD
ATOM    113  H69 UNL     1       4.529   4.620  -0.651 +0.06 +0.00    +0.314 HD
ATOM    114  H70 UNL     1       3.551   5.401   0.381 +0.09 +0.00    +0.314 HD
ATOM    115  H71 UNL     1      11.290   5.378   1.775 -0.28 +0.00    +0.163 HD
ATOM    116  H72 UNL     1       8.077   6.552   2.470 +0.09 +0.00    +0.166 HD
ATOM    117  H73 UNL     1       3.026  -0.858   9.778 +1.07 +0.00    +0.161 HD
ATOM    118  H74 UNL     1       2.374   0.553   8.968 +0.00 +0.00    +0.161 HD
ATOM    119  H75 UNL     1      13.859   5.557   2.285 +0.63 +0.00    +0.163 HD
ATOM    120  H76 UNL     1      17.825  10.022  -1.247 +0.13 +0.00    +0.163 HD
ATOM    121  H77 UNL     1      20.938  12.570   0.320 +0.13 +0.00    +0.162 HD
ATOM    122  H78 UNL     1      27.582  12.695   5.457+89.93 +0.00    +0.162 HD
ATOM    123  H79 UNL     1      31.148  11.585   7.931 +1.48 +0.00    +0.315 HD
ATOM    124  H80 UNL     1      29.696  11.222   9.834 -0.17 +0.00    +0.312 HD
ATOM    125  H81 UNL     1      28.490  12.305   9.775 +0.08 +0.00    +0.312 HD
ATOM    126  H82 UNL     1       7.442   6.874   9.604 +3.24 +0.00    +0.209 HD
ATOM    127  H83 UNL     1      11.154   3.663   9.441 +0.70 +0.00    +0.210 HD
ATOM    128  H84 UNL     1       8.802   2.670   8.091 +0.13 +0.00    +0.210 HD
ATOM    129  H85 UNL     1       7.529  -0.816   4.790 +2.24 +0.00    +0.209 HD
ATOM    130  H86 UNL     1       6.111  -0.639   7.278+99.99 +0.00    +0.210 HD
ATOM    131  H87 UNL     1       4.414   3.842   5.195 +0.08 +0.00    +0.210 HD
ATOM    132  H88 UNL     1      20.499  11.187   2.600 +0.17 +0.00    +0.210 HD
ATOM    133  H89 UNL     1      13.986   9.088   1.801+90.89 +0.00    +0.210 HD
ENDROOT
TORSDOF 52
TER
