USER    Run = 1
USER    DPF = ligand_165_receptor.dpf
USER  
USER    Estimated Free Energy of Binding    =  +1.87e+003 kcal/mol  [=(1)+(2)+(3)-(4)]
USER    
USER    (1) Final Intermolecular Energy     =  +1.87e+003 kcal/mol
USER        vdW + Hbond + desolv Energy     =  +1.87e+003 kcal/mol
USER        Electrostatic Energy            =   +0.00 kcal/mol
USER    (2) Final Total Internal Energy     =   +0.00 kcal/mol
USER    (3) Torsional Free Energy           =   +1.19 kcal/mol
USER    (4) Unbound System's Energy  [=(2)] =   +0.00 kcal/mol
USER    
USER    
USER    NEWDPF move ligand_165.pdbqt
USER    NEWDPF about 0.000000 0.000000 0.000000
USER    NEWDPF tran0 19.271622 7.529809 0.958156
USER    NEWDPF quaternion0 0.045647 -0.521879 0.846311 -0.096527
USER    NEWDPF axisangle0 0.045861 -0.524327 0.850281 -168.921618
USER    NEWDPF quat0 0.045861 -0.524327 0.850281 -168.921618
USER  keepresnum = 1 
USER  
REMARK  0 active torsions:
REMARK  status: ('A' for Active; 'I' for Inactive)
REMARK       I    between atoms: C2_2  and  C3_3 
REMARK       I    between atoms: C2_2  and  N8_66 
REMARK       I    between atoms: C3_3  and  N1_58 
REMARK       I    between atoms: C4_4  and  C5_5 
REMARK       I    between atoms: C4_4  and  C8_8 
REMARK       I    between atoms: C4_4  and  N1_58 
REMARK       I    between atoms: C5_5  and  C6_6 
REMARK       I    between atoms: C6_6  and  C7_7 
REMARK       I    between atoms: C7_7  and  O3_46 
REMARK       I    between atoms: C8_8  and  N2_59 
REMARK       I    between atoms: C9_9  and  C10_10 
REMARK       I    between atoms: C9_9  and  C11_11 
REMARK       I    between atoms: C9_9  and  N2_59 
REMARK       I    between atoms: C10_10  and  S1_72 
REMARK       I    between atoms: C11_11  and  N3_60 
REMARK       I    between atoms: C12_12  and  C14_14 
REMARK       I    between atoms: C12_12  and  N3_60 
REMARK       I    between atoms: C14_14  and  N4_61 
REMARK       I    between atoms: C15_15  and  C16_16 
REMARK       I    between atoms: C15_15  and  C20_20 
REMARK       I    between atoms: C15_15  and  N4_61 
REMARK       I    between atoms: C16_16  and  C17_17 
REMARK       I    between atoms: C17_17  and  C18_18 
REMARK       I    between atoms: C18_18  and  N5_62 
REMARK       I    between atoms: C19_19  and  N6_64 
REMARK       I    between atoms: C19_19  and  N7_65 
REMARK       I    between atoms: C20_20  and  O8_51 
REMARK       I    between atoms: C21_21  and  C22_22 
REMARK       I    between atoms: C21_21  and  N8_66 
REMARK       I    between atoms: C22_22  and  C23_23 
REMARK       I    between atoms: C22_22  and  N9_67 
REMARK       I    between atoms: C23_23  and  C24_24 
REMARK       I    between atoms: C27_27  and  C28_28 
REMARK       I    between atoms: C27_27  and  N9_67 
REMARK       I    between atoms: C28_28  and  C29_29 
REMARK       I    between atoms: C28_28  and  N11_69 
REMARK       I    between atoms: C29_29  and  C30_30 
REMARK       I    between atoms: C30_30  and  C31_31 
REMARK       I    between atoms: C31_31  and  C32_32 
REMARK       I    between atoms: C32_32  and  N10_68 
REMARK       I    between atoms: C33_33  and  C34_34 
REMARK       I    between atoms: C33_33  and  N11_69 
REMARK       I    between atoms: C34_34  and  C35_35 
REMARK       I    between atoms: C34_34  and  N12_70 
REMARK       I    between atoms: C35_35  and  C36_36 
REMARK       I    between atoms: C39_39  and  C40_40 
REMARK       I    between atoms: C39_39  and  N12_70 
REMARK       I    between atoms: C40_40  and  C41_41 
REMARK       I    between atoms: C40_40  and  N13_71 
REMARK       I    between atoms: C41_41  and  C42_42 
REMARK       I    between atoms: C42_42  and  C43_43 
REMARK       I    between atoms: C43_43  and  O14_57 
USER                              x       y       z     vdW  Elec       q    Type
USER                           _______ _______ _______ _____ _____    ______ ____
ROOT
ATOM      1  C1  UNL     1      21.379  13.042   2.939+39.08 +0.00    +0.042 C 
ATOM      2  C2  UNL     1      21.089  11.637   3.454+25.51 +0.00    +0.172 C 
ATOM      3  C3  UNL     1      19.624  11.234   3.172 +5.02 +0.00    +0.240 C 
ATOM      4  C4  UNL     1      17.958   9.400   3.446 -0.41 +0.00    +0.177 C 
ATOM      5  C5  UNL     1      16.829  10.298   4.011 -0.28 +0.00    +0.045 C 
ATOM      6  C6  UNL     1      15.989   9.625   5.106 +4.21 +0.00    +0.112 C 
ATOM      7  C7  UNL     1      14.920   8.746   4.525 -0.21 +0.00    +0.139 C 
ATOM      8  C8  UNL     1      17.824   8.994   1.941 -0.28 +0.00    +0.241 C 
ATOM      9  C9  UNL     1      16.238   8.173   0.196 -0.42 +0.00    +0.185 C 
ATOM     10  C10 UNL     1      16.644   6.704  -0.000+22.20 +0.00    +0.105 C 
ATOM     11  C11 UNL     1      14.725   8.326  -0.083 +5.26 +0.00    +0.241 C 
ATOM     12  C12 UNL     1      12.418   7.962   0.735+94.32 +0.00    +0.172 C 
ATOM     13  C13 UNL     1      11.999   6.633   0.111 -0.42 +0.00    +0.042 C 
ATOM     14  C14 UNL     1      11.670   8.172   2.069 +8.86 +0.00    +0.240 C 
ATOM     15  C15 UNL     1       9.453   8.564   3.100 +0.30 +0.00    +0.182 C 
ATOM     16  C16 UNL     1       8.225   9.454   2.849+51.80 +0.00    +0.038 C 
ATOM     17  C17 UNL     1       6.997   8.792   2.210 +2.65 +0.00    +0.022 C 
ATOM     18  C18 UNL     1       7.198   8.303   0.779 +0.43 +0.00    +0.121 C 
ATOM     19  C19 UNL     1       5.926   6.347   0.391 -0.23 +0.00    +0.121 C 
ATOM     20  C20 UNL     1       9.051   7.154   3.541 -0.27 +0.00    +0.163 C 
ATOM     21  C21 UNL     1      22.398   9.518   3.464 -0.33 +0.00    +0.241 C 
ATOM     22  C22 UNL     1      23.405   8.646   2.684 -0.37 +0.00    +0.177 C 
ATOM     23  C23 UNL     1      24.663   9.384   2.188 -0.56 +0.00    +0.038 C 
ATOM     24  C24 UNL     1      25.748   9.697   3.242 -0.47 -0.00    -0.020 C 
ATOM     25  C25 UNL     1      25.281  10.673   4.319+79.43 +0.00    +0.009 C 
ATOM     26  C26 UNL     1      26.329   8.434   3.879 +1.13 +0.00    +0.009 C 
ATOM     27  C27 UNL     1      22.235   8.543   0.474 +0.24 +0.00    +0.241 C 
ATOM     28  C28 UNL     1      21.889   7.595  -0.695 +2.84 +0.00    +0.176 C 
ATOM     29  C29 UNL     1      21.123   6.327  -0.287+99.99 +0.00    +0.035 C 
ATOM     30  C30 UNL     1      20.654   5.516  -1.502+71.92 +0.00    +0.004 C 
ATOM     31  C31 UNL     1      20.002   4.198  -1.072+99.99 +0.00    +0.030 C 
ATOM     32  C32 UNL     1      19.511   3.349  -2.247+70.52 +0.00    +0.267 C 
ATOM     33  C33 UNL     1      24.178   6.615  -0.968 -0.41 +0.00    +0.241 C 
ATOM     34  C34 UNL     1      25.407   6.568  -1.903 -0.28 +0.00    +0.177 C 
ATOM     35  C35 UNL     1      25.165   5.692  -3.144 +7.47 +0.00    +0.038 C 
ATOM     36  C36 UNL     1      24.559   4.285  -2.933+12.09 -0.00    -0.020 C 
ATOM     37  C37 UNL     1      25.446   3.341  -2.125 +0.17 +0.00    +0.009 C 
ATOM     38  C38 UNL     1      24.263   3.656  -4.301+99.99 +0.00    +0.009 C 
ATOM     39  C39 UNL     1      27.292   7.097  -0.415 -0.24 +0.00    +0.251 C 
ATOM     40  C40 UNL     1      28.301   6.458   0.561 -0.14 +0.00    +0.309 C 
ATOM     41  C41 UNL     1      29.610   6.099  -0.154 -0.18 +0.00    +0.055 C 
ATOM     42  C42 UNL     1      30.391   7.315  -0.663 -0.15 +0.00    +0.112 C 
ATOM     43  C43 UNL     1      30.908   8.245   0.404 -0.20 +0.00    +0.139 C 
ATOM     44  O1  UNL     1      18.808  11.983   2.639 -0.34 -0.00    -0.271 OA
ATOM     45  O2  UNL     1      15.092   7.940   3.620 -0.17 -0.00    -0.650 OA
ATOM     46  O3  UNL     1      13.709   8.957   5.061 +0.34 -0.00    -0.776 OA
ATOM     47  O4  UNL     1      18.784   8.894   1.177 +1.23 -0.00    -0.271 OA
ATOM     48  O5  UNL     1      14.302   8.572  -1.212+99.99 -0.00    -0.271 OA
ATOM     49  O6  UNL     1      12.206   8.040   3.171 -0.29 -0.00    -0.271 OA
ATOM     50  O7  UNL     1       8.873   6.189   2.808 +0.05 -0.00    -0.648 OA
ATOM     51  O8  UNL     1       8.839   7.059   4.869 +1.60 -0.00    -0.775 OA
ATOM     52  O9  UNL     1      21.896   9.147   4.526 +1.26 -0.00    -0.271 OA
ATOM     53  O10 UNL     1      22.211   9.767   0.347 -0.35 -0.00    -0.271 OA
ATOM     54  O11 UNL     1      24.140   6.031   0.116 -0.33 -0.00    -0.271 OA
ATOM     55  O12 UNL     1      27.162   8.310  -0.534 -0.11 -0.00    -0.271 OA
ATOM     56  O13 UNL     1      31.285   9.391   0.221 -0.01 -0.00    -0.650 OA
ATOM     57  O14 UNL     1      31.006   7.695   1.627 +0.03 -0.00    -0.776 OA
ATOM     58  N1  UNL     1      19.273   9.992   3.673 +2.97 -0.00    -0.346 N 
ATOM     59  N2  UNL     1      16.556   8.634   1.548 -0.25 -0.00    -0.345 N 
ATOM     60  N3  UNL     1      13.862   8.001   0.946+54.87 -0.00    -0.346 N 
ATOM     61  N4  UNL     1      10.335   8.491   1.933 +9.98 -0.00    -0.345 N 
ATOM     62  N5  UNL     1       5.989   7.622   0.334 +0.08 -0.00    -0.372 N 
ATOM     63  H5  UNL     1       5.198   8.159  -0.022 +0.62 +0.00    +0.161 HD
ATOM     64  N6  UNL     1       4.818   5.717  -0.058 -0.04 -0.00    -0.279 NA
ATOM     65  N7  UNL     1       6.818   5.434   0.837 -0.07 -0.00    -0.279 NA
ATOM     66  N8  UNL     1      22.035  10.698   2.863 +0.92 -0.00    -0.346 N 
ATOM     67  N9  UNL     1      22.728   7.923   1.604 +0.06 -0.00    -0.346 N 
ATOM     68  N10 UNL     1      20.600   2.843  -3.076+63.75 +0.00    +0.078 N 
ATOM     69  N11 UNL     1      23.117   7.351  -1.460 -0.18 -0.00    -0.346 N 
ATOM     70  N12 UNL     1      26.586   6.168  -1.153 -0.15 -0.00    -0.346 N 
ATOM     71  N13 UNL     1      27.698   5.214   1.110 +1.99 +0.00    +0.092 N 
ATOM     72  S1  UNL     1      16.621   6.167  -1.745+99.99 -0.00    -0.180 SA
ATOM     73  H58 UNL     1      13.070   8.455   4.489 +0.09 +0.00    +0.167 HD
ATOM     74  H59 UNL     1       8.592   6.124   5.028 +0.09 +0.00    +0.167 HD
ATOM     75  H60 UNL     1      31.394   8.414   2.169 -0.01 +0.00    +0.167 HD
ATOM     76  H61 UNL     1      20.037   9.386   3.969 +0.17 +0.00    +0.163 HD
ATOM     77  H62 UNL     1      15.895   8.419   2.287 +0.02 +0.00    +0.163 HD
ATOM     78  H63 UNL     1      14.205   7.686   1.851 -0.40 +0.00    +0.163 HD
ATOM     79  H64 UNL     1       9.919   8.377   1.017 +0.24 +0.00    +0.163 HD
ATOM     80  H65 UNL     1       4.220   6.387  -0.535 +0.13 +0.00    +0.126 HD
ATOM     81  H66 UNL     1       5.043   4.948  -0.677 -0.06 +0.00    +0.126 HD
ATOM     82  H67 UNL     1       7.551   5.788   1.450 +0.06 +0.00    +0.126 HD
ATOM     83  H68 UNL     1       6.368   4.637   1.271 +0.05 +0.00    +0.126 HD
ATOM     84  H69 UNL     1      22.096  10.693   1.839 +0.19 +0.00    +0.163 HD
ATOM     85  H70 UNL     1      23.097   6.988   1.426 +0.12 +0.00    +0.163 HD
ATOM     86  H71 UNL     1      21.072   3.619  -3.536+71.49 +0.00    +0.312 HD
ATOM     87  H72 UNL     1      21.299   2.395  -2.486+11.23 +0.00    +0.312 HD
ATOM     88  H73 UNL     1      23.331   8.048  -2.164 +0.27 +0.00    +0.163 HD
ATOM     89  H74 UNL     1      26.575   5.264  -0.684 +0.10 +0.00    +0.163 HD
ATOM     90  H75 UNL     1      28.343   4.820   1.798 +2.15 +0.00    +0.313 HD
ATOM     91  H76 UNL     1      26.861   5.472   1.641 +0.34 +0.00    +0.313 HD
ATOM     92  H77 UNL     1      15.421   6.682  -2.064 +0.02 +0.00    +0.101 HD
ENDROOT
TORSDOF 42
TER
