USER    Run = 1
USER    DPF = ligand_232_receptor.dpf
USER  
USER    Estimated Free Energy of Binding    =  +2.30e+006 kcal/mol  [=(1)+(2)+(3)-(4)]
USER    
USER    (1) Final Intermolecular Energy     =  +2.30e+006 kcal/mol
USER        vdW + Hbond + desolv Energy     =  +1.25e+006 kcal/mol
USER        Electrostatic Energy            =  +1.04e+006 kcal/mol
USER    (2) Final Total Internal Energy     =   +0.00 kcal/mol
USER    (3) Torsional Free Energy           =   +1.19 kcal/mol
USER    (4) Unbound System's Energy  [=(2)] =   +0.00 kcal/mol
USER    
USER    
USER    NEWDPF move ligand_232.pdbqt
USER    NEWDPF about 0.000000 0.000000 0.000000
USER    NEWDPF tran0 17.456929 4.967872 2.964195
USER    NEWDPF quaternion0 -0.851331 0.133187 0.143459 -0.486741
USER    NEWDPF axisangle0 -0.974568 0.152467 0.164226 -121.746845
USER    NEWDPF quat0 -0.974568 0.152467 0.164226 -121.746845
USER  keepresnum = 1 
USER  
REMARK  0 active torsions:
REMARK  status: ('A' for Active; 'I' for Inactive)
REMARK       I    between atoms: C2_2  and  N1_87 
REMARK       I    between atoms: C3_3  and  N1_87 
REMARK       I    between atoms: C4_4  and  O20_86 
REMARK       I    between atoms: C6_6  and  C24_24 
REMARK       I    between atoms: C6_6  and  O8_74 
REMARK       I    between atoms: C7_7  and  C8_8 
REMARK       I    between atoms: C8_8  and  C9_9 
REMARK       I    between atoms: C8_8  and  O5_71 
REMARK       I    between atoms: C9_9  and  C10_10 
REMARK       I    between atoms: C9_9  and  O4_70 
REMARK       I    between atoms: C10_10  and  N2_88 
REMARK       I    between atoms: C11_11  and  C12_12 
REMARK       I    between atoms: C11_11  and  N2_88 
REMARK       I    between atoms: C15_15  and  C18_18 
REMARK       I    between atoms: C24_24  and  O7_73 
REMARK       I    between atoms: C25_25  and  C26_26 
REMARK       I    between atoms: C25_25  and  O8_74 
REMARK       I    between atoms: C26_26  and  C27_27 
REMARK       I    between atoms: C27_27  and  S1_93 
REMARK       I    between atoms: C28_28  and  C29_29 
REMARK       I    between atoms: C28_28  and  S1_93 
REMARK       I    between atoms: C29_29  and  N3_89 
REMARK       I    between atoms: C30_30  and  C31_31 
REMARK       I    between atoms: C30_30  and  N3_89 
REMARK       I    between atoms: C34_34  and  C37_37 
REMARK       I    between atoms: C37_37  and  N4_90 
REMARK       I    between atoms: C38_38  and  C39_39 
REMARK       I    between atoms: C38_38  and  N4_90 
REMARK       I    between atoms: C39_39  and  S2_94 
REMARK       I    between atoms: C40_40  and  C41_41 
REMARK       I    between atoms: C40_40  and  S2_94 
REMARK       I    between atoms: C41_41  and  C42_42 
REMARK       I    between atoms: C42_42  and  O11_77 
REMARK       I    between atoms: C43_43  and  C66_66 
REMARK       I    between atoms: C43_43  and  O11_77 
REMARK       I    between atoms: C45_45  and  O17_83 
REMARK       I    between atoms: C46_46  and  N6_92 
REMARK       I    between atoms: C47_47  and  C48_48 
REMARK       I    between atoms: C48_48  and  C49_49 
REMARK       I    between atoms: C48_48  and  O15_81 
REMARK       I    between atoms: C49_49  and  C50_50 
REMARK       I    between atoms: C49_49  and  O14_80 
REMARK       I    between atoms: C50_50  and  N5_91 
REMARK       I    between atoms: C51_51  and  C52_52 
REMARK       I    between atoms: C51_51  and  N5_91 
REMARK       I    between atoms: C55_55  and  C58_58 
REMARK       I    between atoms: C64_64  and  N6_92 
REMARK       I    between atoms: C66_66  and  O19_85 
USER                              x       y       z     vdW  Elec       q    Type
USER                           _______ _______ _______ _____ _____    ______ ____
ROOT
ATOM      1  C1  UNL     1      29.697   5.063   0.431 -0.19 +0.00    +0.117 C 
ATOM      2  C2  UNL     1      28.217   5.181   0.186 -0.18 +0.00    +0.214 C 
ATOM      3  C3  UNL     1      26.026   4.033   0.500 +0.66 +0.00    +0.145 C 
ATOM      4  C4  UNL     1      25.238   5.177   1.190 -0.37 +0.00    +0.149 C 
ATOM      5  C5  UNL     1      23.809   4.782   1.561 -0.00 +0.00    +0.114 C 
ATOM      6  C6  UNL     1      23.231   3.724   0.611 +3.26 +0.00    +0.255 C 
ATOM      7  C7  UNL     1      25.444   2.680   0.979+99.99 +0.00    +0.182 C 
ATOM      8  C8  UNL     1      26.122   1.402   0.414+99.99 +0.00    +0.179 C 
ATOM      9  C9  UNL     1      27.289   0.847   1.273+99.99 +0.00    +0.167 C 
ATOM     10  C10 UNL     1      28.038  -0.303   0.562+99.99 +0.00    +0.157 C 
ATOM     11  C11 UNL     1      30.059   0.748  -0.385+18.82 +0.00    +0.251 C 
ATOM     12  C12 UNL     1      30.704   1.364  -1.580 -0.17 +0.00    +0.032 A 
ATOM     13  C13 UNL     1      31.742   2.279  -1.376 -0.13 +0.00    +0.018 A 
ATOM     14  C14 UNL     1      32.372   2.889  -2.467 -0.04 +0.00    +0.013 A 
ATOM     15  C15 UNL     1      31.986   2.594  -3.783 -0.02 -0.00    -0.026 A 
ATOM     16  C16 UNL     1      30.953   1.661  -3.974 -0.05 +0.00    +0.013 A 
ATOM     17  C17 UNL     1      30.320   1.046  -2.888 -0.13 +0.00    +0.018 A 
ATOM     18  C18 UNL     1      32.646   3.238  -4.929+99.99+99.99    -0.026 A 
ATOM     19  C19 UNL     1      34.040   3.176  -5.089+99.99+99.99    +0.012 A 
ATOM     20  C20 UNL     1      34.668   3.788  -6.178+99.99+99.99    +0.001 A 
ATOM     21  C21 UNL     1      33.910   4.474  -7.125+99.99+99.99    +0.000 A 
ATOM     22  C22 UNL     1      32.527   4.548  -6.983+99.99+99.99    +0.001 A 
ATOM     23  C23 UNL     1      31.901   3.935  -5.895+99.99+99.99    +0.012 A 
ATOM     24  C24 UNL     1      21.902   3.174   1.255 +8.31 +0.00    +0.205 C 
ATOM     25  C25 UNL     1      22.000   4.902  -1.102+99.99 +0.00    +0.172 C 
ATOM     26  C26 UNL     1      22.173   5.446  -2.518+99.99 +0.00    +0.036 C 
ATOM     27  C27 UNL     1      23.087   6.669  -2.611 +6.73 +0.00    +0.076 C 
ATOM     28  C28 UNL     1      23.047   8.484  -0.492 -0.43 +0.00    +0.093 C 
ATOM     29  C29 UNL     1      22.391   9.642   0.263 -0.46 +0.00    +0.133 C 
ATOM     30  C30 UNL     1      20.641   8.580   1.635+32.12 +0.00    +0.251 C 
ATOM     31  C31 UNL     1      19.201   8.206   1.741+91.06 +0.00    +0.032 A 
ATOM     32  C32 UNL     1      18.183   8.977   1.167 +0.46 +0.00    +0.018 A 
ATOM     33  C33 UNL     1      16.848   8.581   1.300 -0.49 +0.00    +0.018 A 
ATOM     34  C34 UNL     1      16.516   7.427   2.021 +4.93 +0.00    +0.032 A 
ATOM     35  C35 UNL     1      17.534   6.655   2.596 +0.51 +0.00    +0.018 A 
ATOM     36  C36 UNL     1      18.869   7.049   2.460+44.95 +0.00    +0.018 A 
ATOM     37  C37 UNL     1      15.079   7.050   2.133+99.99 +0.00    +0.251 C 
ATOM     38  C38 UNL     1      13.334   5.996   3.507 +5.26 +0.00    +0.133 C 
ATOM     39  C39 UNL     1      13.166   4.952   4.610+22.41 +0.00    +0.093 C 
ATOM     40  C40 UNL     1      13.213   6.915   6.649 -0.46 +0.00    +0.076 C 
ATOM     41  C41 UNL     1      11.691   6.881   6.808 -0.35 +0.00    +0.036 C 
ATOM     42  C42 UNL     1      11.180   5.924   7.884 +0.52 +0.00    +0.172 C 
ATOM     43  C43 UNL     1      10.578   3.636   8.236 +0.22 +0.00    +0.255 C 
ATOM     44  C44 UNL     1      10.707   2.274   7.530 +2.78 +0.00    +0.114 C 
ATOM     45  C45 UNL     1       9.602   1.331   7.963+75.54 +0.00    +0.149 C 
ATOM     46  C46 UNL     1       8.200   1.921   7.687+38.71 +0.00    +0.145 C 
ATOM     47  C47 UNL     1       8.217   3.464   7.605 -0.42 +0.00    +0.182 C 
ATOM     48  C48 UNL     1       8.321   4.063   6.177 -0.34 +0.00    +0.179 C 
ATOM     49  C49 UNL     1       7.273   3.564   5.154 +0.10 +0.00    +0.167 C 
ATOM     50  C50 UNL     1       5.812   3.669   5.629 -0.19 +0.00    +0.157 C 
ATOM     51  C51 UNL     1       4.125   5.328   6.296 -0.22 +0.00    +0.251 C 
ATOM     52  C52 UNL     1       3.861   6.701   6.813 -0.29 +0.00    +0.032 A 
ATOM     53  C53 UNL     1       4.724   7.775   6.567 +7.79 +0.00    +0.018 A 
ATOM     54  C54 UNL     1       4.427   9.044   7.077 +1.67 +0.00    +0.013 A 
ATOM     55  C55 UNL     1       3.266   9.274   7.833 -0.34 -0.00    -0.026 A 
ATOM     56  C56 UNL     1       2.403   8.189   8.059 -0.17 +0.00    +0.013 A 
ATOM     57  C57 UNL     1       2.693   6.918   7.552 -0.18 +0.00    +0.018 A 
ATOM     58  C58 UNL     1       2.960  10.611   8.367 -0.30 -0.00    -0.026 A 
ATOM     59  C59 UNL     1       2.919  11.735   7.525 -0.34 +0.00    +0.012 A 
ATOM     60  C60 UNL     1       2.627  13.005   8.031 -0.26 +0.00    +0.001 A 
ATOM     61  C61 UNL     1       2.374  13.172   9.390 +0.92 +0.00    +0.000 A 
ATOM     62  C62 UNL     1       2.410  12.071  10.243 +2.35 +0.00    +0.001 A 
ATOM     63  C63 UNL     1       2.700  10.802   9.734 +0.20 +0.00    +0.012 A 
ATOM     64  C64 UNL     1       6.872   0.173   8.847+99.99 +0.00    +0.214 C 
ATOM     65  C65 UNL     1       5.997  -0.125  10.032+99.99 +0.00    +0.117 C 
ATOM     66  C66 UNL     1      11.298   3.473   9.619+99.99 +0.00    +0.205 C 
ATOM     67  O1  UNL     1      27.729   6.119  -0.439 -0.16 -0.00    -0.274 OA
ATOM     68  O2  UNL     1      24.074   2.556   0.545+11.12 -0.00    -0.336 OA
ATOM     69  O3  UNL     1      30.577   0.832   0.725 +2.15 -0.00    -0.268 OA
ATOM     70  O4  UNL     1      28.198   1.876   1.687 +0.01 -0.00    -0.391 OA
ATOM     71  O5  UNL     1      26.499   1.597  -0.961+99.99 -0.00    -0.390 OA
ATOM     72  O6  UNL     1      21.653   2.018   1.570+38.49 -0.00    -0.646 OA
ATOM     73  O7  UNL     1      20.961   4.119   1.485+99.99 -0.00    -0.772 OA
ATOM     74  O8  UNL     1      23.191   4.220  -0.722+18.89 -0.00    -0.346 OA
ATOM     75  O9  UNL     1      21.447   8.143   2.449 +1.59 -0.00    -0.268 OA
ATOM     76  O10 UNL     1      14.270   7.446   1.301 +4.15 -0.00    -0.268 OA
ATOM     77  O11 UNL     1      11.163   4.598   7.363 -0.21 -0.00    -0.346 OA
ATOM     78  O12 UNL     1       9.209   3.974   8.507 -0.32 -0.00    -0.336 OA
ATOM     79  O13 UNL     1       3.212   4.516   6.188 -0.13 -0.00    -0.268 OA
ATOM     80  O14 UNL     1       7.458   4.362   3.964 -0.06 -0.00    -0.391 OA
ATOM     81  O15 UNL     1       8.179   5.504   6.262 -0.13 -0.00    -0.390 OA
ATOM     82  O16 UNL     1       7.230  -0.690   8.051+99.99 -0.00    -0.274 OA
ATOM     83  O17 UNL     1       9.761   0.098   7.256+99.99 -0.00    -0.393 OA
ATOM     84  O18 UNL     1      10.762   3.265  10.699+99.99 -0.00    -0.646 OA
ATOM     85  O19 UNL     1      12.646   3.543   9.546 +1.99 -0.00    -0.772 OA
ATOM     86  O20 UNL     1      25.200   6.344   0.363 -0.15 -0.00    -0.393 OA
ATOM     87  N1  UNL     1      27.460   4.183   0.743 +0.49 -0.00    -0.352 N 
ATOM     88  N2  UNL     1      28.825   0.158  -0.572+99.99 -0.00    -0.354 N 
ATOM     89  N3  UNL     1      20.993   9.386   0.573 +0.38 -0.00    -0.356 N 
ATOM     90  N4  UNL     1      14.729   6.281   3.221+10.90 -0.00    -0.356 N 
ATOM     91  N5  UNL     1       5.433   5.022   5.989 -0.15 -0.00    -0.354 N 
ATOM     92  N6  UNL     1       7.269   1.487   8.743+27.53 -0.00    -0.352 N 
ATOM     93  S1  UNL     1      22.226   8.201  -2.106+99.99 -0.00    -0.167 SA
ATOM     94  S2  UNL     1      14.054   5.368   6.160 -0.05 -0.00    -0.167 SA
ATOM     95  H67 UNL     1      29.096   1.470   1.720 +0.04 +0.00    +0.210 HD
ATOM     96  H68 UNL     1      25.694   1.923  -1.411 +0.48 +0.00    +0.210 HD
ATOM     97  H69 UNL     1      20.221   3.609   1.878+35.33 +0.00    +0.167 HD
ATOM     98  H70 UNL     1       6.686   4.211   3.387 +0.10 +0.00    +0.210 HD
ATOM     99  H71 UNL     1       8.241   5.796   5.327 +0.12 +0.00    +0.210 HD
ATOM    100  H72 UNL     1       8.978  -0.460   7.473+99.99 +0.00    +0.210 HD
ATOM    101  H73 UNL     1      12.954   3.414  10.466 +1.06 +0.00    +0.167 HD
ATOM    102  H74 UNL     1      26.110   6.470   0.008 +0.15 +0.00    +0.210 HD
ATOM    103  H75 UNL     1      27.949   3.377   1.139 +0.09 +0.00    +0.163 HD
ATOM    104  H76 UNL     1      28.265   0.511  -1.345+99.99 +0.00    +0.162 HD
ATOM    105  H77 UNL     1      20.358   9.449  -0.214 +0.12 +0.00    +0.162 HD
ATOM    106  H78 UNL     1      15.361   6.249   4.014 +0.50 +0.00    +0.162 HD
ATOM    107  H79 UNL     1       6.173   5.620   6.351 +0.08 +0.00    +0.162 HD
ATOM    108  H80 UNL     1       7.209   2.061   9.579 +0.47 +0.00    +0.163 HD
ENDROOT
TORSDOF 42
TER
