USER    Run = 1
USER    DPF = ligand_506_receptor.dpf
USER  
USER    Estimated Free Energy of Binding    =  +62.59 kcal/mol  [=(1)+(2)+(3)-(4)]
USER    
USER    (1) Final Intermolecular Energy     =  +61.40 kcal/mol
USER        vdW + Hbond + desolv Energy     =  +61.40 kcal/mol
USER        Electrostatic Energy            =   +0.00 kcal/mol
USER    (2) Final Total Internal Energy     = +122.07 kcal/mol
USER    (3) Torsional Free Energy           =   +1.19 kcal/mol
USER    (4) Unbound System's Energy  [=(2)] = +122.07 kcal/mol
USER    
USER    
USER    NEWDPF move ligand_506.pdbqt
USER    NEWDPF about 0.000000 0.000000 0.000000
USER    NEWDPF tran0 12.820946 4.723853 2.868679
USER    NEWDPF quaternion0 -0.194835 -0.656832 0.451659 0.571503
USER    NEWDPF axisangle0 -0.237430 -0.800429 0.550401 110.289762
USER    NEWDPF quat0 -0.237430 -0.800429 0.550401 110.289762
USER    NEWDPF dihe0 -112.62 -6.62 -58.90 -29.48 -7.36 -11.70 162.71 26.90 -180.00 127.18 27.89 -0.06 -165.08 65.46 78.24 80.04 16.49 180.00 -164.71 157.35 -141.97 -28.71 -26.11 -112.03 117.45 -137.97 5.72 
USER  keepresnum = 1 
USER  
REMARK  27 active torsions:
REMARK  status: ('A' for Active; 'I' for Inactive)
REMARK    1  A    between atoms: C2_2  and  C3_3 
REMARK    2  A    between atoms: C3_3  and  C5_5 
REMARK    3  A    between atoms: C5_5  and  C6_6 
REMARK    4  A    between atoms: C5_5  and  N7_63 
REMARK    5  A    between atoms: C6_6  and  C7_7 
REMARK    6  A    between atoms: C6_6  and  O7_54 
REMARK    7  A    between atoms: C7_7  and  C8_8 
REMARK       I    between atoms: C8_8  and  N1_57 
REMARK    8  A    between atoms: C12_12  and  C13_13 
REMARK    9  A    between atoms: C13_13  and  C14_14 
REMARK   10  A    between atoms: C13_13  and  O6_53 
REMARK   11  A    between atoms: C14_14  and  C16_16 
REMARK       I    between atoms: C16_16  and  N2_58 
REMARK   12  A    between atoms: C17_17  and  C18_18 
REMARK   13  A    between atoms: C17_17  and  C31_31 
REMARK   14  A    between atoms: C17_17  and  N2_58 
REMARK   15  A    between atoms: C18_18  and  C19_19 
REMARK   16  A    between atoms: C21_21  and  N3_59 
REMARK   17  A    between atoms: C25_25  and  C26_26 
REMARK       I    between atoms: C25_25  and  N3_59 
REMARK   18  A    between atoms: C26_26  and  C27_27 
REMARK   19  A    between atoms: C26_26  and  N6_62 
REMARK   20  A    between atoms: C27_27  and  C28_28 
REMARK   21  A    between atoms: C28_28  and  C29_29 
REMARK   22  A    between atoms: C29_29  and  N4_60 
REMARK       I    between atoms: C30_30  and  N4_60 
REMARK       I    between atoms: C30_30  and  N5_61 
REMARK   23  A    between atoms: C31_31  and  O5_52 
REMARK   24  A    between atoms: C35_35  and  C36_36 
REMARK       I    between atoms: C35_35  and  N7_63 
REMARK   25  A    between atoms: C36_36  and  C37_37 
REMARK   26  A    between atoms: C36_36  and  N8_64 
REMARK   27  A    between atoms: C40_40  and  C41_41 
REMARK       I    between atoms: C40_40  and  N8_64 
USER                              x       y       z     vdW  Elec       q    Type
USER                           _______ _______ _______ _____ _____    ______ ____
ROOT
ATOM      1  C13 UNL     1      10.553   6.054   2.584 -0.22 +0.00    +0.156 C 
ENDROOT
BRANCH   1   2
ATOM      2  C12 UNL     1      10.972   6.862   3.861 -0.33 +0.00    +0.117 C 
ATOM      3  C11 UNL     1       9.844   7.020   4.888 -0.12 +0.00    +0.029 C 
ATOM      4  C10 UNL     1       9.032   8.185   4.335 +4.07 +0.00    +0.022 C 
ATOM      5  C9  UNL     1      10.095   9.112   3.762 +0.20 +0.00    +0.126 C 
ATOM      6  N1  UNL     1      11.270   8.274   3.560 -0.18 -0.00    -0.345 N 
ATOM      7  C8  UNL     1      12.459   8.860   3.191 +1.26 +0.00    +0.222 C 
ATOM      8  O1  UNL     1      12.489  10.032   2.805 +9.97 -0.00    -0.273 OA
BRANCH   7   9
ATOM      9  C7  UNL     1      13.746   8.067   3.274 -0.28 +0.00    +0.137 C 
BRANCH   9  10
ATOM     10  C6  UNL     1      14.573   8.298   4.548 -0.39 +0.00    +0.152 C 
BRANCH  10  11
ATOM     11  C5  UNL     1      15.929   9.061   4.313 -0.30 +0.00    +0.119 C 
BRANCH  11  12
ATOM     12  C3  UNL     1      17.162   8.591   5.148 +5.32 +0.00    +0.006 C 
ATOM     13  C4  UNL     1      17.919   7.393   4.574 +3.65 +0.00    +0.012 C 
BRANCH  12  14
ATOM     14  C2  UNL     1      18.124   9.770   5.438+10.92 +0.00    +0.002 C 
ATOM     15  C1  UNL     1      17.454  10.947   6.136+11.07 +0.00    +0.005 C 
ENDBRANCH  12  14
ENDBRANCH  11  12
BRANCH  11  16
ATOM     16  N7  UNL     1      16.249   9.237   2.855 -0.20 -0.00    -0.347 N 
ATOM     17  C34 UNL     1      16.668   8.014   2.176 -0.26 +0.00    +0.153 C 
ATOM     18  C35 UNL     1      16.505  10.507   2.345 -0.35 +0.00    +0.243 C 
ATOM     19  O8  UNL     1      16.432  11.523   3.051 -0.26 -0.00    -0.271 OA
BRANCH  18  20
ATOM     20  C36 UNL     1      16.871  10.687   0.843 -0.42 +0.00    +0.180 C 
BRANCH  20  21
ATOM     21  C37 UNL     1      16.823  12.154   0.345 +1.83 +0.00    +0.009 C 
ATOM     22  C38 UNL     1      17.416  13.151   1.347 +0.10 +0.00    +0.012 C 
ATOM     23  C39 UNL     1      15.422  12.606  -0.065 +3.52 +0.00    +0.012 C 
ENDBRANCH  20  21
BRANCH  20  24
ATOM     24  N8  UNL     1      18.234  10.160   0.705 -0.19 -0.00    -0.346 N 
ATOM     25  C40 UNL     1      19.182  10.727  -0.115 -0.08 +0.00    +0.252 C 
ATOM     26  O9  UNL     1      18.967  11.743  -0.771 +0.05 -0.00    -0.271 OA
ATOM     27  H79 UNL     1      18.428   9.273   1.165 +0.12 +0.00    +0.163 HD
BRANCH  25  28
ATOM     28  C41 UNL     1      20.518   9.962  -0.128 +0.44 +0.00    +0.318 C 
ATOM     29  C42 UNL     1      20.863   9.351   1.245 +0.86 +0.00    +0.030 C 
ATOM     30  C43 UNL     1      21.964   8.294   1.038 +4.06 +0.00    +0.009 C 
ATOM     31  C46 UNL     1      21.649  10.477   1.905 +0.64 +0.00    +0.043 C 
ATOM     32  C44 UNL     1      23.176   9.154   0.651 -0.51 +0.00    +0.036 C 
ATOM     33  C45 UNL     1      22.622  10.590   0.740 +2.55 +0.00    +0.224 C 
ATOM     34  N9  UNL     1      21.736  10.792  -0.439 -0.08 +0.00    +0.102 N 
ATOM     35  C47 UNL     1      21.495  12.215  -0.667 +0.35 +0.00    +0.311 C 
ENDBRANCH  25  28
ENDBRANCH  20  24
ENDBRANCH  18  20
ENDBRANCH  11  16
ENDBRANCH  10  11
BRANCH  10  36
ATOM     36  O7  UNL     1      14.936   6.990   5.066 -0.33 -0.00    -0.388 OA
ATOM     37  C33 UNL     1      14.040   6.501   6.052 -0.39 +0.00    +0.202 C 
ENDBRANCH  10  36
ENDBRANCH   9  10
ENDBRANCH   7   9
ENDBRANCH   1   2
BRANCH   1  38
ATOM     38  C14 UNL     1       9.980   4.658   2.922 +0.39 +0.00    +0.105 C 
ATOM     39  C15 UNL     1       9.117   4.043   1.818 -0.06 +0.00    +0.022 C 
BRANCH  38  40
ATOM     40  C16 UNL     1       9.214   4.700   4.241 -0.19 +0.00    +0.224 C 
ATOM     41  O2  UNL     1       8.920   5.765   4.779 -0.15 -0.00    -0.273 OA
ATOM     42  N2  UNL     1       8.881   3.476   4.772 -0.17 -0.00    -0.354 N 
ATOM     43  H72 UNL     1       8.800   2.712   4.104 -0.29 +0.00    +0.163 HD
BRANCH  42  44
ATOM     44  C17 UNL     1       8.116   3.356   6.017 +0.30 +0.00    +0.112 C 
BRANCH  44  45
ATOM     45  C18 UNL     1       6.613   3.270   5.683 +2.76 +0.00    +0.065 C 
BRANCH  45  46
ATOM     46  C19 UNL     1       6.316   2.594   4.366 +0.99 -0.00    -0.054 A 
ATOM     47  C20 UNL     1       6.865   3.088   3.173 -0.22 +0.00    +0.036 A 
ATOM     48  C21 UNL     1       6.586   2.481   1.939 -0.18 +0.00    +0.035 A 
ATOM     49  C22 UNL     1       5.755   1.361   1.912 -0.20 +0.00    +0.029 A 
ATOM     50  C23 UNL     1       5.207   0.860   3.095 -0.31 +0.00    +0.003 A 
ATOM     51  C24 UNL     1       5.483   1.472   4.316 +0.78 +0.00    +0.007 A 
BRANCH  48  52
ATOM     52  N3  UNL     1       7.196   3.039   0.797 -0.01 -0.00    -0.325 N 
ATOM     53  C25 UNL     1       6.782   2.915  -0.518 -0.03 +0.00    +0.255 C 
ATOM     54  O3  UNL     1       5.727   2.408  -0.901 -0.05 -0.00    -0.271 OA
ATOM     55  H73 UNL     1       8.011   3.613   0.972 +0.07 +0.00    +0.169 HD
BRANCH  53  56
ATOM     56  C26 UNL     1       7.777   3.532  -1.534 -0.03 +0.00    +0.309 C 
BRANCH  56  57
ATOM     57  C27 UNL     1       7.962   2.691  -2.806 -0.14 +0.00    +0.047 C 
BRANCH  57  58
ATOM     58  C28 UNL     1       9.060   1.611  -2.795 +1.36 +0.00    +0.022 C 
BRANCH  58  59
ATOM     59  C29 UNL     1      10.498   2.123  -2.776 +1.19 +0.00    +0.124 C 
BRANCH  59  60
ATOM     60  N4  UNL     1      11.232   1.723  -1.596 -0.07 -0.00    -0.343 N 
ATOM     61  C30 UNL     1      10.557   1.211  -0.526 -0.16 +0.00    +0.313 C 
ATOM     62  O4  UNL     1       9.343   1.167  -0.395 -0.16 -0.00    -0.248 OA
ATOM     63  N5  UNL     1      11.397   0.742   0.430 -0.04 -0.00    -0.352 N 
ATOM     64  H75 UNL     1      12.284   1.215   0.521 -0.25 +0.00    +0.160 HD
ATOM     65  H76 UNL     1      10.934   0.503   1.296 +0.04 +0.00    +0.160 HD
ATOM     66  H74 UNL     1      12.142   1.290  -1.730 +0.09 +0.00    +0.164 HD
ENDBRANCH  59  60
ENDBRANCH  58  59
ENDBRANCH  57  58
ENDBRANCH  56  57
BRANCH  56  67
ATOM     67  N6  UNL     1       7.378   4.907  -1.878 +1.62 +0.00    +0.092 N 
ATOM     68  H77 UNL     1       8.203   5.482  -2.035 -0.22 +0.00    +0.313 HD
ATOM     69  H78 UNL     1       6.876   5.312  -1.085 -0.40 +0.00    +0.313 HD
ENDBRANCH  56  67
ENDBRANCH  53  56
ENDBRANCH  48  52
ENDBRANCH  45  46
ENDBRANCH  44  45
BRANCH  44  70
ATOM     70  C31 UNL     1       8.452   4.510   6.983 -0.39 +0.00    +0.189 C 
BRANCH  70  71
ATOM     71  O5  UNL     1       8.799   4.014   8.278 -0.31 -0.00    -0.399 OA
ATOM     72  H71 UNL     1       9.699   4.340   8.459 +0.15 +0.00    +0.209 HD
ENDBRANCH  70  71
ENDBRANCH  44  70
ENDBRANCH  42  44
ENDBRANCH  38  40
ENDBRANCH   1  38
BRANCH   1  73
ATOM     73  O6  UNL     1      11.710   5.861   1.741 -0.13 -0.00    -0.388 OA
ATOM     74  C32 UNL     1      11.432   6.110   0.363 -0.30 +0.00    +0.202 C 
ENDBRANCH   1  73
TORSDOF 27
TER
