USER    Run = 1
USER    DPF = ligand_436_receptor.dpf
USER  
USER    Estimated Free Energy of Binding    =  +3.26e+005 kcal/mol  [=(1)+(2)+(3)-(4)]
USER    
USER    (1) Final Intermolecular Energy     =  +3.26e+005 kcal/mol
USER        vdW + Hbond + desolv Energy     =  +2.02e+005 kcal/mol
USER        Electrostatic Energy            =  +1.24e+005 kcal/mol
USER    (2) Final Total Internal Energy     =   +0.00 kcal/mol
USER    (3) Torsional Free Energy           =   +1.19 kcal/mol
USER    (4) Unbound System's Energy  [=(2)] =   +0.00 kcal/mol
USER    
USER    
USER    NEWDPF move ligand_436.pdbqt
USER    NEWDPF about 0.000000 0.000000 0.000000
USER    NEWDPF tran0 17.684504 6.579639 1.801139
USER    NEWDPF quaternion0 0.004380 -0.954139 -0.293429 0.059152
USER    NEWDPF axisangle0 0.004388 -0.955813 -0.293944 173.217702
USER    NEWDPF quat0 0.004388 -0.955813 -0.293944 173.217702
USER  keepresnum = 1 
USER  
REMARK  0 active torsions:
REMARK  status: ('A' for Active; 'I' for Inactive)
REMARK       I    between atoms: C2_2  and  O29_97 
REMARK       I    between atoms: C3_3  and  C56_56 
REMARK       I    between atoms: C6_6  and  O25_93 
REMARK       I    between atoms: C8_8  and  O24_92 
REMARK       I    between atoms: C9_9  and  C10_10 
REMARK       I    between atoms: C10_10  and  C11_11 
REMARK       I    between atoms: C12_12  and  O23_91 
REMARK       I    between atoms: C15_15  and  C17_17 
REMARK       I    between atoms: C16_16  and  O2_70 
REMARK       I    between atoms: C17_17  and  C18_18 
REMARK       I    between atoms: C19_19  and  O13_81 
REMARK       I    between atoms: C23_23  and  O3_71 
REMARK       I    between atoms: C25_25  and  O8_76 
REMARK       I    between atoms: C26_26  and  C27_27 
REMARK       I    between atoms: C29_29  and  O7_75 
REMARK       I    between atoms: C30_30  and  O6_74 
REMARK       I    between atoms: C31_31  and  O5_73 
REMARK       I    between atoms: C33_33  and  C34_34 
REMARK       I    between atoms: C33_33  and  O8_76 
REMARK       I    between atoms: C36_36  and  O12_80 
REMARK       I    between atoms: C37_37  and  O11_79 
REMARK       I    between atoms: C38_38  and  O10_78 
REMARK       I    between atoms: C40_40  and  C50_50 
REMARK       I    between atoms: C41_41  and  O15_83 
REMARK       I    between atoms: C43_43  and  C44_44 
REMARK       I    between atoms: C43_43  and  O15_83 
REMARK       I    between atoms: C46_46  and  O19_87 
REMARK       I    between atoms: C47_47  and  O18_86 
REMARK       I    between atoms: C48_48  and  O17_85 
REMARK       I    between atoms: C52_52  and  O22_90 
REMARK       I    between atoms: C53_53  and  O21_89 
REMARK       I    between atoms: C54_54  and  O20_88 
REMARK       I    between atoms: C58_58  and  O28_96 
REMARK       I    between atoms: C59_59  and  O27_95 
REMARK       I    between atoms: C60_60  and  O26_94 
REMARK       I    between atoms: C62_62  and  C63_63 
REMARK       I    between atoms: C62_62  and  O29_97 
REMARK       I    between atoms: C65_65  and  O33_101 
REMARK       I    between atoms: C66_66  and  O32_100 
REMARK       I    between atoms: C67_67  and  O31_99 
USER                              x       y       z     vdW  Elec       q    Type
USER                           _______ _______ _______ _____ _____    ______ ____
ROOT
ATOM      1  C1  UNL     1      11.849   6.241  -1.708 -0.35 +0.00    +0.079 C 
ATOM      2  C2  UNL     1      11.589   5.846  -0.257 -0.34 +0.00    +0.166 C 
ATOM      3  C3  UNL     1      12.768   5.076   0.369 +3.97 +0.00    +0.166 C 
ATOM      4  C4  UNL     1      14.298   6.238  -1.074+12.04 +0.00    +0.087 A 
ATOM      5  C5  UNL     1      13.295   6.492  -2.022 +2.00 +0.00    +0.012 A 
ATOM      6  C6  UNL     1      13.681   6.971  -3.280+99.99 +0.00    +0.077 A 
ATOM      7  C7  UNL     1      15.018   7.202  -3.587+43.84 +0.00    +0.074 A 
ATOM      8  C8  UNL     1      15.994   6.971  -2.624 +8.07 +0.00    +0.077 A 
ATOM      9  C9  UNL     1      15.659   6.494  -1.350+73.62 +0.00    +0.013 A 
ATOM     10  C10 UNL     1      16.735   6.249  -0.304+99.99 +0.00    +0.088 C 
ATOM     11  C11 UNL     1      17.146   7.475   0.491 +5.66 +0.00    +0.014 A 
ATOM     12  C12 UNL     1      16.445   7.888   1.634 +0.80 +0.00    +0.084 A 
ATOM     13  C13 UNL     1      16.859   8.989   2.402 -0.50 +0.00    +0.012 A 
ATOM     14  C14 UNL     1      18.029   9.672   2.048 -0.38 +0.00    +0.088 A 
ATOM     15  C15 UNL     1      18.783   9.277   0.928 +0.87 +0.00    +0.014 A 
ATOM     16  C16 UNL     1      18.295   8.213   0.145+43.25 +0.00    +0.084 A 
ATOM     17  C17 UNL     1      20.103   9.961   0.585 -0.25 +0.00    +0.088 C 
ATOM     18  C18 UNL     1      21.340   9.276   1.149 +0.24 +0.00    +0.013 A 
ATOM     19  C19 UNL     1      21.857   9.657   2.394 -0.39 +0.00    +0.077 A 
ATOM     20  C20 UNL     1      22.966   9.022   2.957 -0.42 +0.00    +0.074 A 
ATOM     21  C21 UNL     1      23.612   8.003   2.264 -0.19 +0.00    +0.081 A 
ATOM     22  C22 UNL     1      23.164   7.626   1.000 -0.28 +0.00    +0.012 A 
ATOM     23  C23 UNL     1      22.019   8.248   0.469 +3.59 +0.00    +0.084 A 
ATOM     24  C24 UNL     1      23.863   6.534   0.247 -0.50 +0.00    +0.080 C 
ATOM     25  C25 UNL     1      25.300   6.382   0.727 -0.35 +0.00    +0.170 C 
ATOM     26  C26 UNL     1      25.359   6.352   2.271 +0.27 +0.00    +0.192 C 
ATOM     27  C27 UNL     1      24.978   5.018   2.913+19.47 -0.00    -0.021 A 
ATOM     28  C28 UNL     1      26.001   4.126   3.302+99.99 +0.00    +0.049 A 
ATOM     29  C29 UNL     1      25.682   2.890   3.859+99.99 +0.00    +0.102 A 
ATOM     30  C30 UNL     1      24.354   2.529   4.037+99.99 +0.00    +0.132 A 
ATOM     31  C31 UNL     1      23.339   3.400   3.667+10.19 +0.00    +0.102 A 
ATOM     32  C32 UNL     1      23.638   4.640   3.114+99.99 +0.00    +0.049 A 
ATOM     33  C33 UNL     1      27.193   5.056   0.162 -0.18 +0.00    +0.294 C 
ATOM     34  C34 UNL     1      27.609   3.786  -0.493 -0.18 +0.00    +0.045 A 
ATOM     35  C35 UNL     1      28.979   3.483  -0.529 -0.23 +0.00    +0.057 A 
ATOM     36  C36 UNL     1      29.402   2.295  -1.113 -0.16 +0.00    +0.102 A 
ATOM     37  C37 UNL     1      28.484   1.410  -1.661+11.75 +0.00    +0.132 A 
ATOM     38  C38 UNL     1      27.130   1.726  -1.657+13.10 +0.00    +0.102 A 
ATOM     39  C39 UNL     1      26.680   2.897  -1.060+27.86 +0.00    +0.057 A 
ATOM     40  C40 UNL     1      17.841  11.153   3.955 +1.53 +0.00    +0.192 C 
ATOM     41  C41 UNL     1      16.331  10.851   3.966 +3.60 +0.00    +0.170 C 
ATOM     42  C42 UNL     1      16.084   9.391   3.626 -0.44 +0.00    +0.080 C 
ATOM     43  C43 UNL     1      15.486  12.438   5.518+99.99 +0.00    +0.294 C 
ATOM     44  C44 UNL     1      14.812  12.587   6.832+99.99 +0.00    +0.045 A 
ATOM     45  C45 UNL     1      14.331  13.864   7.180+99.99 +0.00    +0.057 A 
ATOM     46  C46 UNL     1      13.704  14.049   8.407+99.99 +0.00    +0.102 A 
ATOM     47  C47 UNL     1      13.559  12.981   9.285+47.39 +0.00    +0.132 A 
ATOM     48  C48 UNL     1      14.038  11.723   8.943 +1.11 +0.00    +0.102 A 
ATOM     49  C49 UNL     1      14.666  11.512   7.722 +1.39 +0.00    +0.057 A 
ATOM     50  C50 UNL     1      18.621  10.679   5.180+99.99 -0.00    -0.021 A 
ATOM     51  C51 UNL     1      18.849  11.580   6.244+99.99 +0.00    +0.049 A 
ATOM     52  C52 UNL     1      19.560  11.171   7.369+75.59 +0.00    +0.102 A 
ATOM     53  C53 UNL     1      20.056   9.877   7.450+29.34 +0.00    +0.132 A 
ATOM     54  C54 UNL     1      19.844   8.985   6.411+99.99 +0.00    +0.102 A 
ATOM     55  C55 UNL     1      19.131   9.372   5.281+99.99 +0.00    +0.049 A 
ATOM     56  C56 UNL     1      12.931   3.536   0.151+99.99 +0.00    +0.049 C 
ATOM     57  C57 UNL     1      13.203   3.110  -1.320+99.99 +0.00    +0.078 C 
ATOM     58  C58 UNL     1      12.817   1.688  -1.645+17.32 +0.00    +0.080 C 
ATOM     59  C59 UNL     1      11.976   0.994  -0.868 -0.28 +0.00    +0.128 C 
ATOM     60  C60 UNL     1      11.415   1.552   0.334 +5.87 +0.00    +0.098 C 
ATOM     61  C61 UNL     1      11.852   2.712   0.836+99.99 +0.00    +0.020 C 
ATOM     62  C62 UNL     1       9.205   5.726  -0.341 -0.09 +0.00    +0.294 C 
ATOM     63  C63 UNL     1       8.070   4.775  -0.201 -0.11 +0.00    +0.045 A 
ATOM     64  C64 UNL     1       6.813   5.137  -0.702 +0.38 +0.00    +0.057 A 
ATOM     65  C65 UNL     1       5.759   4.236  -0.605 -0.10 +0.00    +0.102 A 
ATOM     66  C66 UNL     1       5.942   2.987  -0.021 -0.05 +0.00    +0.132 A 
ATOM     67  C67 UNL     1       7.184   2.629   0.482 -0.08 +0.00    +0.102 A 
ATOM     68  C68 UNL     1       8.243   3.522   0.411 -0.10 +0.00    +0.057 A 
ATOM     69  O1  UNL     1      14.027   5.742   0.174 +8.86 -0.00    -0.341 OA
ATOM     70  O2  UNL     1      18.999   7.911  -0.995+87.44 -0.00    -0.359 OA
ATOM     71  O3  UNL     1      21.610   7.807  -0.762 +1.61 -0.00    -0.359 OA
ATOM     72  O4  UNL     1      24.677   7.444   2.911 +0.22 -0.00    -0.338 OA
ATOM     73  O5  UNL     1      22.034   3.039   3.842 +0.63 -0.00    -0.358 OA
ATOM     74  O6  UNL     1      24.030   1.315   4.581+99.99 -0.00    -0.356 OA
ATOM     75  O7  UNL     1      26.644   1.998   4.245+99.99 -0.00    -0.358 OA
ATOM     76  O8  UNL     1      25.851   5.205   0.099 -0.29 -0.00    -0.309 OA
ATOM     77  O9  UNL     1      27.971   5.824   0.703 -0.13 -0.00    -0.259 OA
ATOM     78  O10 UNL     1      26.226   0.898  -2.255 +0.68 -0.00    -0.358 OA
ATOM     79  O11 UNL     1      28.934   0.223  -2.168+58.73 -0.00    -0.356 OA
ATOM     80  O12 UNL     1      30.734   1.997  -1.123 -0.11 -0.00    -0.358 OA
ATOM     81  O13 UNL     1      21.293  10.698   3.075 -0.04 -0.00    -0.360 OA
ATOM     82  O14 UNL     1      18.493  10.758   2.740 -0.23 -0.00    -0.337 OA
ATOM     83  O15 UNL     1      15.691  11.133   5.227+99.99 -0.00    -0.309 OA
ATOM     84  O16 UNL     1      15.807  13.386   4.819 +9.40 -0.00    -0.259 OA
ATOM     85  O17 UNL     1      13.895  10.679   9.810+10.41 -0.00    -0.358 OA
ATOM     86  O18 UNL     1      12.947  13.153  10.496 -0.28 -0.00    -0.356 OA
ATOM     87  O19 UNL     1      13.214  15.263   8.797+99.99+99.99    -0.358 OA
ATOM     88  O20 UNL     1      20.342   7.718   6.485+42.44 -0.00    -0.358 OA
ATOM     89  O21 UNL     1      20.763   9.471   8.548 -0.35 -0.00    -0.356 OA
ATOM     90  O22 UNL     1      19.803  12.013   8.418 -0.83 -0.00    -0.358 OA
ATOM     91  O23 UNL     1      15.323   7.238   2.078+69.28 -0.00    -0.359 OA
ATOM     92  O24 UNL     1      17.308   7.201  -2.931 -0.57 -0.00    -0.360 OA
ATOM     93  O25 UNL     1      12.795   7.230  -4.288 +7.65 -0.00    -0.360 OA
ATOM     94  O26 UNL     1      10.434   0.806   0.951 -0.29 -0.00    -0.358 OA
ATOM     95  O27 UNL     1      11.575  -0.288  -1.173 -0.16 -0.00    -0.356 OA
ATOM     96  O28 UNL     1      13.320   1.118  -2.801+24.32 -0.00    -0.362 OA
ATOM     97  O29 UNL     1      10.378   5.076  -0.138 -0.13 -0.00    -0.309 OA
ATOM     98  O30 UNL     1       9.084   6.900  -0.642 -0.22 -0.00    -0.259 OA
ATOM     99  O31 UNL     1       7.339   1.386   1.031 -0.13 -0.00    -0.358 OA
ATOM    100  O32 UNL     1       4.885   2.121   0.048 -0.05 -0.00    -0.356 OA
ATOM    101  O33 UNL     1       4.535   4.585  -1.099 -0.14 -0.00    -0.358 OA
ATOM    102  H33 UNL     1      18.357   7.581  -1.662 +0.51 +0.00    +0.217 HD
ATOM    103  H34 UNL     1      20.641   7.936  -0.824 +1.10 +0.00    +0.217 HD
ATOM    104  H35 UNL     1      22.079   2.157   4.263 +1.23 +0.00    +0.217 HD
ATOM    105  H36 UNL     1      24.898   0.900   4.763+99.99 +0.00    +0.218 HD
ATOM    106  H37 UNL     1      27.514   2.407   4.089 +9.06 +0.00    +0.217 HD
ATOM    107  H38 UNL     1      26.597   0.662  -3.125 -0.18 +0.00    +0.217 HD
ATOM    108  H39 UNL     1      28.202  -0.413  -2.051+99.99 +0.00    +0.218 HD
ATOM    109  H40 UNL     1      30.802   1.140  -1.588 +0.06 +0.00    +0.217 HD
ATOM    110  H41 UNL     1      21.457  10.563   4.024 +0.29 +0.00    +0.217 HD
ATOM    111  H42 UNL     1      13.431  11.057  10.585 -0.29 +0.00    +0.217 HD
ATOM    112  H43 UNL     1      12.695  14.099  10.510 -0.06 +0.00    +0.218 HD
ATOM    113  H44 UNL     1      13.363  15.903   8.078+99.99+99.99    +0.217 HD
ATOM    114  H45 UNL     1      20.789   7.672   7.354 +0.33 +0.00    +0.217 HD
ATOM    115  H46 UNL     1      20.766  10.254   9.136 +0.17 +0.00    +0.218 HD
ATOM    116  H47 UNL     1      19.396  12.874   8.219 -0.03 +0.00    +0.217 HD
ATOM    117  H48 UNL     1      14.984   6.650   1.382+99.99 +0.00    +0.217 HD
ATOM    118  H49 UNL     1      17.358   7.486  -3.864 -0.15 +0.00    +0.217 HD
ATOM    119  H50 UNL     1      11.886   7.244  -3.947 +0.12 +0.00    +0.217 HD
ATOM    120  H51 UNL     1      10.450  -0.048   0.461 +0.14 +0.00    +0.217 HD
ATOM    121  H52 UNL     1      12.051  -0.497  -2.003 -0.02 +0.00    +0.218 HD
ATOM    122  H53 UNL     1      13.899   1.769  -3.239+99.99 +0.00    +0.217 HD
ATOM    123  H54 UNL     1       8.291   1.255   1.225 +0.07 +0.00    +0.217 HD
ATOM    124  H55 UNL     1       5.251   1.331   0.497 +0.06 +0.00    +0.218 HD
ATOM    125  H56 UNL     1       3.964   3.810  -0.918 +0.04 +0.00    +0.217 HD
ENDROOT
TORSDOF 40
TER
