USER    Run = 1
USER    DPF = ligand_234_receptor.dpf
USER  
USER    Estimated Free Energy of Binding    =  +6.25e+004 kcal/mol  [=(1)+(2)+(3)-(4)]
USER    
USER    (1) Final Intermolecular Energy     =  +6.25e+004 kcal/mol
USER        vdW + Hbond + desolv Energy     =  +6.25e+004 kcal/mol
USER        Electrostatic Energy            =   +0.00 kcal/mol
USER    (2) Final Total Internal Energy     =   +0.00 kcal/mol
USER    (3) Torsional Free Energy           =   +1.19 kcal/mol
USER    (4) Unbound System's Energy  [=(2)] =   +0.00 kcal/mol
USER    
USER    
USER    NEWDPF move ligand_234.pdbqt
USER    NEWDPF about 0.000000 0.000000 0.000000
USER    NEWDPF tran0 17.340518 7.616696 3.263994
USER    NEWDPF quaternion0 -0.221552 -0.513369 -0.159191 -0.813649
USER    NEWDPF axisangle0 -0.381094 -0.883055 -0.273827 -71.091981
USER    NEWDPF quat0 -0.381094 -0.883055 -0.273827 -71.091981
USER  keepresnum = 1 
USER  
REMARK  0 active torsions:
REMARK  status: ('A' for Active; 'I' for Inactive)
REMARK       I    between atoms: C2_2  and  N1_66 
REMARK       I    between atoms: C3_3  and  C4_4 
REMARK       I    between atoms: C3_3  and  N1_66 
REMARK       I    between atoms: C4_4  and  C5_5 
REMARK       I    between atoms: C4_4  and  N12_77 
REMARK       I    between atoms: C5_5  and  C6_6 
REMARK       I    between atoms: C5_5  and  N11_76 
REMARK       I    between atoms: C6_6  and  N2_67 
REMARK       I    between atoms: C7_7  and  C8_8 
REMARK       I    between atoms: C7_7  and  N2_67 
REMARK       I    between atoms: C8_8  and  O3_80 
REMARK       I    between atoms: C9_9  and  C10_10 
REMARK       I    between atoms: C9_9  and  O3_80 
REMARK       I    between atoms: C10_10  and  C11_11 
REMARK       I    between atoms: C11_11  and  N3_68 
REMARK       I    between atoms: C12_12  and  C14_14 
REMARK       I    between atoms: C12_12  and  N3_68 
REMARK       I    between atoms: C14_14  and  N4_69 
REMARK       I    between atoms: C15_15  and  C17_17 
REMARK       I    between atoms: C15_15  and  N4_69 
REMARK       I    between atoms: C17_17  and  N5_70 
REMARK       I    between atoms: C18_18  and  N5_70 
REMARK       I    between atoms: C22_22  and  C51_51 
REMARK       I    between atoms: C24_24  and  C25_25 
REMARK       I    between atoms: C24_24  and  N6_71 
REMARK       I    between atoms: C25_25  and  C26_26 
REMARK       I    between atoms: C26_26  and  C27_27 
REMARK       I    between atoms: C27_27  and  C28_28 
REMARK       I    between atoms: C28_28  and  N7_72 
REMARK       I    between atoms: C30_30  and  C50_50 
REMARK       I    between atoms: C34_34  and  N8_73 
REMARK       I    between atoms: C41_41  and  C42_42 
REMARK       I    between atoms: C41_41  and  N8_73 
REMARK       I    between atoms: C42_42  and  N9_74 
REMARK       I    between atoms: C44_44  and  C45_45 
REMARK       I    between atoms: C44_44  and  N9_74 
REMARK       I    between atoms: C45_45  and  N10_75 
REMARK       I    between atoms: C47_47  and  C48_48 
REMARK       I    between atoms: C47_47  and  N10_75 
REMARK       I    between atoms: C48_48  and  C49_49 
REMARK       I    between atoms: C49_49  and  O12_89 
REMARK       I    between atoms: C58_58  and  C59_59 
REMARK       I    between atoms: C58_58  and  N11_76 
REMARK       I    between atoms: C60_60  and  C61_61 
REMARK       I    between atoms: C61_61  and  O15_92 
REMARK       I    between atoms: C62_62  and  C63_63 
REMARK       I    between atoms: C62_62  and  N12_77 
REMARK       I    between atoms: C64_64  and  C65_65 
REMARK       I    between atoms: C65_65  and  O18_95 
USER                              x       y       z     vdW  Elec       q    Type
USER                           _______ _______ _______ _____ _____    ______ ____
ROOT
ATOM      1  C1  UNL     1      15.704  14.117   0.355+99.99 +0.00    +0.026 C 
ATOM      2  C2  UNL     1      15.089  13.399  -0.830+13.40 +0.00    +0.118 C 
ATOM      3  C3  UNL     1      13.662  11.483  -1.335+36.58 +0.00    +0.243 C 
ATOM      4  C4  UNL     1      13.247  10.024  -1.016+99.99 +0.00    +0.208 C 
ATOM      5  C5  UNL     1      14.383   8.972  -0.988+56.33 +0.00    +0.208 C 
ATOM      6  C6  UNL     1      14.444   8.232   0.371+35.32 +0.00    +0.243 C 
ATOM      7  C7  UNL     1      13.400   6.403   1.671+16.14 +0.00    +0.148 C 
ATOM      8  C8  UNL     1      13.633   6.856   3.114 +0.35 +0.00    +0.187 C 
ATOM      9  C9  UNL     1      14.482   4.767   3.911+99.99 +0.00    +0.176 C 
ATOM     10  C10 UNL     1      14.652   4.015   5.219+99.99 +0.00    +0.129 C 
ATOM     11  C11 UNL     1      13.445   3.211   5.650+10.49 +0.00    +0.220 C 
ATOM     12  C12 UNL     1      11.016   3.326   6.137 -0.35 +0.00    +0.172 C 
ATOM     13  C13 UNL     1       9.780   3.769   5.370 -0.45 +0.00    +0.042 C 
ATOM     14  C14 UNL     1      11.020   3.890   7.575 -0.35 +0.00    +0.240 C 
ATOM     15  C15 UNL     1      12.484   4.072   9.563 +2.82 +0.00    +0.172 C 
ATOM     16  C16 UNL     1      13.241   3.122  10.479+76.20 +0.00    +0.042 C 
ATOM     17  C17 UNL     1      13.382   5.250   9.093 +3.05 +0.00    +0.244 C 
ATOM     18  C18 UNL     1      13.100   7.392   7.777 -0.45 +0.00    +0.048 A 
ATOM     19  C19 UNL     1      14.403   7.425   7.263 +5.07 +0.00    +0.060 A 
ATOM     20  C20 UNL     1      14.801   8.499   6.485+99.99 +0.00    +0.047 A 
ATOM     21  C21 UNL     1      13.940   9.572   6.253 +3.21 -0.00    -0.013 A 
ATOM     22  C22 UNL     1      14.604  10.591   5.356+99.99 +0.00    +0.054 C 
ATOM     23  C23 UNL     1      16.060  10.090   5.342+10.86 +0.00    +0.142 C 
ATOM     24  C24 UNL     1      17.048   7.773   5.709+24.72 +0.00    +0.224 C 
ATOM     25  C25 UNL     1      18.337   8.239   5.053 +8.73 +0.00    +0.104 C 
ATOM     26  C26 UNL     1      18.322   7.928   3.556 -0.55 +0.00    +0.019 C 
ATOM     27  C27 UNL     1      19.723   7.988   2.945 +9.14 +0.00    +0.104 C 
ATOM     28  C28 UNL     1      20.272   9.395   2.806 -0.23 +0.00    +0.224 C 
ATOM     29  C29 UNL     1      22.184  10.945   2.668+17.41 +0.00    +0.142 C 
ATOM     30  C30 UNL     1      23.699  10.804   2.869 +7.80 +0.00    +0.054 C 
ATOM     31  C31 UNL     1      23.914   9.370   2.431 -0.49 -0.00    -0.013 A 
ATOM     32  C32 UNL     1      22.690   8.696   2.366 -0.39 +0.00    +0.047 A 
ATOM     33  C33 UNL     1      22.658   7.358   2.023 +2.30 +0.00    +0.060 A 
ATOM     34  C34 UNL     1      23.852   6.663   1.768 +0.75 +0.00    +0.048 A 
ATOM     35  C35 UNL     1      25.112   7.353   1.806 -0.41 +0.00    +0.002 A 
ATOM     36  C36 UNL     1      26.365   6.746   1.521 -0.20 +0.00    +0.014 A 
ATOM     37  C37 UNL     1      27.570   7.452   1.576 -0.35 +0.00    +0.001 A 
ATOM     38  C38 UNL     1      27.567   8.795   1.907 +0.07 +0.00    +0.001 A 
ATOM     39  C39 UNL     1      26.359   9.431   2.183 -0.28 +0.00    +0.013 A 
ATOM     40  C40 UNL     1      25.132   8.733   2.144 -0.50 -0.00    -0.015 A 
ATOM     41  C41 UNL     1      22.740   4.407   1.474 +1.06 +0.00    +0.244 C 
ATOM     42  C42 UNL     1      23.155   2.913   1.535+12.19 +0.00    +0.172 C 
ATOM     43  C43 UNL     1      21.944   1.993   1.461+90.46 +0.00    +0.042 C 
ATOM     44  C44 UNL     1      25.247   2.899   2.879+99.99 +0.00    +0.240 C 
ATOM     45  C45 UNL     1      25.780   2.877   4.324+99.99 +0.00    +0.172 C 
ATOM     46  C46 UNL     1      27.237   2.440   4.359+99.99 +0.00    +0.042 C 
ATOM     47  C47 UNL     1      24.410   4.716   5.242+99.99 +0.00    +0.220 C 
ATOM     48  C48 UNL     1      24.430   6.175   5.641+99.99 +0.00    +0.128 C 
ATOM     49  C49 UNL     1      23.023   6.729   5.798+99.99 +0.00    +0.173 C 
ATOM     50  C50 UNL     1      24.100  11.010   4.332 +0.21 +0.00    +0.125 C 
ATOM     51  C51 UNL     1      14.006  10.596   3.951+99.99 +0.00    +0.125 C 
ATOM     52  C52 UNL     1      12.638   9.598   6.777 +8.21 -0.00    -0.015 A 
ATOM     53  C53 UNL     1      11.776  10.697   6.574+99.99 +0.00    +0.013 A 
ATOM     54  C54 UNL     1      10.476  10.705   7.074+99.99 +0.00    +0.001 A 
ATOM     55  C55 UNL     1      10.016   9.617   7.797+10.55 +0.00    +0.001 A 
ATOM     56  C56 UNL     1      10.860   8.529   8.026+99.99 +0.00    +0.014 A 
ATOM     57  C57 UNL     1      12.191   8.479   7.532 -0.14 +0.00    +0.002 A 
ATOM     58  C58 UNL     1      16.191   9.817  -2.464+99.99 +0.00    +0.242 C 
ATOM     59  C59 UNL     1      17.569  10.362  -2.565+22.76 +0.00    +0.080 C 
ATOM     60  C60 UNL     1      18.425  10.856  -1.657+33.62 +0.00    +0.086 C 
ATOM     61  C61 UNL     1      18.215  11.008  -0.212 +0.03 +0.00    +0.165 C 
ATOM     62  C62 UNL     1      11.405   8.647  -2.019+33.32 +0.00    +0.242 C 
ATOM     63  C63 UNL     1      10.376   8.653  -3.076 -0.44 +0.00    +0.080 C 
ATOM     64  C64 UNL     1       9.402   9.566  -3.180 +4.27 +0.00    +0.086 C 
ATOM     65  C65 UNL     1       9.182  10.661  -2.222+72.57 +0.00    +0.165 C 
ATOM     66  N1  UNL     1      14.550  12.099  -0.477 +2.04 -0.00    -0.360 N 
ATOM     67  N2  UNL     1      13.342   7.470   0.688 +3.52 -0.00    -0.357 N 
ATOM     68  N3  UNL     1      12.226   3.817   5.476 -0.15 -0.00    -0.348 N 
ATOM     69  N4  UNL     1      12.015   3.360   8.377 +0.14 -0.00    -0.346 N 
ATOM     70  N5  UNL     1      12.638   6.261   8.499 -0.23 -0.00    -0.325 N 
ATOM     71  N6  UNL     1      16.036   8.705   5.836+99.99 -0.00    -0.317 N 
ATOM     72  N7  UNL     1      21.633   9.582   2.657 -0.22 -0.00    -0.317 N 
ATOM     73  N8  UNL     1      23.834   5.262   1.536 +0.06 -0.00    -0.325 N 
ATOM     74  N9  UNL     1      23.891   2.666   2.777+99.99 -0.00    -0.346 N 
ATOM     75  N10 UNL     1      25.641   4.237   4.845+99.99 -0.00    -0.348 N 
ATOM     76  N11 UNL     1      15.732   9.481  -1.233+51.30 -0.00    -0.342 N 
ATOM     77  N12 UNL     1      12.243   9.716  -2.055+99.99 -0.00    -0.342 N 
ATOM     78  O1  UNL     1      13.165  12.088  -2.294 +1.94 -0.00    -0.271 OA
ATOM     79  O2  UNL     1      15.430   8.292   1.107 -0.08 -0.00    -0.271 OA
ATOM     80  O3  UNL     1      13.488   5.791   4.062 +1.76 -0.00    -0.389 OA
ATOM     81  O4  UNL     1      13.555   2.140   6.248+99.99 -0.00    -0.274 OA
ATOM     82  O5  UNL     1      10.288   4.801   7.963 -0.28 -0.00    -0.271 OA
ATOM     83  O6  UNL     1      14.599   5.246   9.244 +5.45 -0.00    -0.271 OA
ATOM     84  O7  UNL     1      16.954   6.589   6.040+14.61 -0.00    -0.273 OA
ATOM     85  O8  UNL     1      19.510  10.371   2.823 -0.25 -0.00    -0.273 OA
ATOM     86  O9  UNL     1      21.568   4.751   1.351+99.99 -0.00    -0.271 OA
ATOM     87  O10 UNL     1      25.918   3.267   1.916+99.99 -0.00    -0.271 OA
ATOM     88  O11 UNL     1      23.404   4.012   5.263+99.99 -0.00    -0.274 OA
ATOM     89  O12 UNL     1      22.443   6.283   7.015+99.99 -0.00    -0.400 OA
ATOM     90  O13 UNL     1      15.531   9.665  -3.488+99.99 -0.00    -0.269 OA
ATOM     91  O14 UNL     1      17.177  10.860   0.399 +0.02 -0.00    -0.647 OA
ATOM     92  O15 UNL     1      19.376  11.313   0.384 +0.06 -0.00    -0.773 OA
ATOM     93  O16 UNL     1      11.516   7.699  -1.251 +0.11 -0.00    -0.269 OA
ATOM     94  O17 UNL     1       9.658  10.799  -1.115+99.27 -0.00    -0.647 OA
ATOM     95  O18 UNL     1       8.325  11.550  -2.748+99.99 -0.00    -0.773 OA
ATOM     96 CL1  UNL     1      23.973  12.727   4.793+99.99 -0.00    -0.130 Cl
ATOM     97 CL2  UNL     1      14.660  11.949   2.999+87.19 -0.00    -0.130 Cl
ATOM     98  H66 UNL     1      15.142  11.508   0.103 +0.08 +0.00    +0.162 HD
ATOM     99  H67 UNL     1      12.611   7.384  -0.026 +0.05 +0.00    +0.162 HD
ATOM    100  H68 UNL     1      12.260   4.803   5.205 +0.11 +0.00    +0.163 HD
ATOM    101  H69 UNL     1      12.700   2.770   7.901 +0.23 +0.00    +0.163 HD
ATOM    102  H70 UNL     1      11.630   6.144   8.558 +0.15 +0.00    +0.169 HD
ATOM    103  H71 UNL     1      24.731   4.792   1.455 +0.11 +0.00    +0.169 HD
ATOM    104  H72 UNL     1      23.364   2.797   3.644 -0.20 +0.00    +0.163 HD
ATOM    105  H73 UNL     1      26.345   4.915   4.573+21.12 +0.00    +0.163 HD
ATOM    106  H74 UNL     1      16.314   9.598  -0.404 +0.10 +0.00    +0.163 HD
ATOM    107  H75 UNL     1      12.090  10.464  -2.729 -0.40 +0.00    +0.163 HD
ATOM    108  H76 UNL     1      22.232   5.336   6.895+99.99 +0.00    +0.209 HD
ATOM    109  H77 UNL     1      19.193  11.243   1.358 +0.15 +0.00    +0.167 HD
ATOM    110  H78 UNL     1       8.257  12.244  -2.058+88.81 +0.00    +0.167 HD
ENDROOT
TORSDOF 37
TER
