USER    Run = 1
USER    DPF = ligand_62_receptor.dpf
USER  
USER    Estimated Free Energy of Binding    =  +15.48 kcal/mol  [=(1)+(2)+(3)-(4)]
USER    
USER    (1) Final Intermolecular Energy     =  +14.28 kcal/mol
USER        vdW + Hbond + desolv Energy     =  +14.28 kcal/mol
USER        Electrostatic Energy            =   +0.00 kcal/mol
USER    (2) Final Total Internal Energy     =   -5.06 kcal/mol
USER    (3) Torsional Free Energy           =   +1.19 kcal/mol
USER    (4) Unbound System's Energy  [=(2)] =   -5.06 kcal/mol
USER    
USER    
USER    NEWDPF move ligand_62.pdbqt
USER    NEWDPF about 0.000000 0.000000 0.000000
USER    NEWDPF tran0 13.514178 7.060501 1.593150
USER    NEWDPF quaternion0 -0.867295 -0.274600 -0.304996 -0.281729
USER    NEWDPF axisangle0 -0.903909 -0.286193 -0.317871 -147.273136
USER    NEWDPF quat0 -0.903909 -0.286193 -0.317871 -147.273136
USER    NEWDPF dihe0 -110.02 -116.23 158.94 180.00 175.17 142.93 179.77 180.00 180.00 79.79 170.15 175.52 122.57 17.77 -1.84 -10.63 18.24 
USER  keepresnum = 1 
USER  
REMARK  17 active torsions:
REMARK  status: ('A' for Active; 'I' for Inactive)
REMARK    1  A    between atoms: C2_2  and  C10_10 
REMARK    2  A    between atoms: C3_3  and  C4_4 
REMARK    3  A    between atoms: C7_7  and  O1_46 
REMARK       I    between atoms: C10_10  and  N1_58 
REMARK    4  A    between atoms: C11_11  and  N1_58 
REMARK    5  A    between atoms: C14_14  and  C17_17 
REMARK       I    between atoms: C17_17  and  N2_59 
REMARK    6  A    between atoms: C21_21  and  C22_22 
REMARK       I    between atoms: C22_22  and  N3_60 
REMARK    7  A    between atoms: C23_23  and  N3_60 
REMARK    8  A    between atoms: C26_26  and  C29_29 
REMARK       I    between atoms: C29_29  and  N4_61 
REMARK    9  A    between atoms: C30_30  and  N4_61 
REMARK   10  A    between atoms: C31_31  and  O12_57 
REMARK   11  A    between atoms: C32_32  and  O11_56 
REMARK   12  A    between atoms: C33_33  and  C36_36 
REMARK       I    between atoms: C36_36  and  N5_62 
REMARK   13  A    between atoms: C37_37  and  N5_62 
REMARK   14  A    between atoms: C38_38  and  O10_55 
REMARK   15  A    between atoms: C39_39  and  O9_54 
REMARK   16  A    between atoms: C40_40  and  C43_43 
REMARK   17  A    between atoms: C43_43  and  O8_53 
USER                              x       y       z     vdW  Elec       q    Type
USER                           _______ _______ _______ _____ _____    ______ ____
ROOT
ATOM      1  C23 UNL     1      17.561   9.467  -0.513 -0.37 +0.00    +0.034 A 
ATOM      2  C24 UNL     1      17.585   8.421  -1.437 +0.31 +0.00    +0.030 A 
ATOM      3  C25 UNL     1      16.449   7.629  -1.640 +0.54 +0.00    +0.019 A 
ATOM      4  C26 UNL     1      15.287   7.875  -0.905 +2.25 +0.00    +0.032 A 
ATOM      5  C27 UNL     1      15.235   8.955  -0.023 +2.74 +0.00    +0.019 A 
ATOM      6  C28 UNL     1      16.367   9.752   0.164 -0.22 +0.00    +0.030 A 
ENDROOT
BRANCH   1   7
ATOM      7  N3  UNL     1      18.687  10.240  -0.160 -0.14 -0.00    -0.325 N 
ATOM      8  C22 UNL     1      20.022   9.875  -0.293 +2.15 +0.00    +0.245 C 
ATOM      9  O4  UNL     1      20.443   8.894  -0.897 +1.93 -0.00    -0.271 OA
ATOM     10  H39 UNL     1      18.487  11.038   0.429 +0.14 +0.00    +0.169 HD
BRANCH   8  11
ATOM     11  C21 UNL     1      20.969  10.833   0.467 -0.39 +0.00    +0.180 C 
ATOM     12  C20 UNL     1      21.610  11.825  -0.508 -0.18 +0.00    +0.037 C 
ATOM     13  C19 UNL     1      22.919  11.147  -0.903 +0.43 +0.00    +0.022 C 
ATOM     14  C18 UNL     1      23.350  10.455   0.379 +0.75 +0.00    +0.127 C 
ATOM     15  N2  UNL     1      22.111  10.125   1.060 -0.08 -0.00    -0.335 N 
ATOM     16  C17 UNL     1      22.143   9.437   2.257 -0.31 +0.00    +0.254 C 
ATOM     17  O3  UNL     1      23.174   9.081   2.817 -0.32 -0.00    -0.267 OA
BRANCH  16  18
ATOM     18  C14 UNL     1      20.858   9.137   2.917 -0.27 +0.00    +0.032 A 
ATOM     19  C13 UNL     1      19.678   9.208   2.179 +0.45 +0.00    +0.019 A 
ATOM     20  C12 UNL     1      18.460   8.910   2.799 -0.43 +0.00    +0.030 A 
ATOM     21  C11 UNL     1      18.415   8.540   4.152 -0.33 +0.00    +0.035 A 
ATOM     22  C16 UNL     1      19.603   8.515   4.887 +3.65 +0.00    +0.030 A 
ATOM     23  C15 UNL     1      20.824   8.823   4.276 +5.02 +0.00    +0.019 A 
BRANCH  21  24
ATOM     24  N1  UNL     1      17.150   8.228   4.692 -0.10 -0.00    -0.323 N 
ATOM     25  C10 UNL     1      15.913   8.577   4.187 -0.32 +0.00    +0.251 C 
ATOM     26  O2  UNL     1      15.690   9.301   3.224 -0.31 -0.00    -0.268 OA
ATOM     27  H38 UNL     1      17.159   7.746   5.581 +0.24 +0.00    +0.169 HD
BRANCH  25  28
ATOM     28  C2  UNL     1      14.783   8.007   4.995 -0.27 +0.00    +0.007 C 
ATOM     29  C1  UNL     1      13.628   8.905   5.324 +0.23 +0.00    +0.054 C 
ATOM     30  C3  UNL     1      14.950   6.744   5.432 -0.17 +0.00    +0.023 C 
BRANCH  30  31
ATOM     31  C4  UNL     1      13.982   6.003   6.246 -0.47 -0.00    -0.035 A 
ATOM     32  C5  UNL     1      12.737   5.665   5.704 -0.41 +0.00    +0.014 A 
ATOM     33  C6  UNL     1      11.802   4.969   6.469 -0.39 +0.00    +0.037 A 
ATOM     34  C7  UNL     1      12.107   4.617   7.779 -0.45 +0.00    +0.065 A 
ATOM     35  C8  UNL     1      13.336   4.951   8.338 -0.45 +0.00    +0.037 A 
ATOM     36  C9  UNL     1      14.274   5.648   7.569 -0.60 +0.00    +0.014 A 
BRANCH  34  37
ATOM     37  O1  UNL     1      11.163   3.938   8.490 -0.10 -0.00    -0.361 OA
ATOM     38  H34 UNL     1      11.090   3.038   8.134 +0.17 +0.00    +0.217 HD
ENDBRANCH  34  37
ENDBRANCH  30  31
ENDBRANCH  25  28
ENDBRANCH  21  24
ENDBRANCH  16  18
ENDBRANCH   8  11
ENDBRANCH   1   7
BRANCH   4  39
ATOM     39  C29 UNL     1      14.122   6.974  -1.074 +1.91 +0.00    +0.256 C 
ATOM     40  O5  UNL     1      13.993   6.379  -2.136 +1.71 -0.00    -0.267 OA
ATOM     41  N4  UNL     1      13.312   6.882   0.039 -0.19 -0.00    -0.320 N 
ATOM     42  H40 UNL     1      13.623   7.332   0.902 -0.23 +0.00    +0.169 HD
BRANCH  41  43
ATOM     43  C30 UNL     1      12.115   6.141   0.177 -0.39 +0.00    +0.071 A 
ATOM     44  C31 UNL     1      11.546   6.065   1.462 -0.11 +0.00    +0.129 A 
ATOM     45  C32 UNL     1      10.332   5.391   1.665 +0.43 +0.00    +0.117 A 
ATOM     46  C33 UNL     1       9.685   4.767   0.585 +0.01 +0.00    +0.068 A 
ATOM     47  C34 UNL     1      10.287   4.797  -0.682 -0.19 +0.00    +0.022 A 
ATOM     48  C35 UNL     1      11.485   5.489  -0.884 -0.29 +0.00    +0.034 A 
BRANCH  44  49
ATOM     49  O12 UNL     1      12.220   6.731   2.461 -0.27 -0.00    -0.351 OA
ATOM     50  C45 UNL     1      11.478   7.807   3.031 -0.15 +0.00    +0.210 C 
ENDBRANCH  44  49
BRANCH  45  51
ATOM     51  O11 UNL     1       9.788   5.386   2.928 -0.10 -0.00    -0.357 OA
ATOM     52  H37 UNL     1      10.456   5.752   3.552 +0.10 +0.00    +0.217 HD
ENDBRANCH  45  51
BRANCH  46  53
ATOM     53  C36 UNL     1       8.382   4.071   0.803 -0.05 +0.00    +0.259 C 
ATOM     54  O6  UNL     1       7.600   4.028  -0.142 -0.06 -0.00    -0.267 OA
ATOM     55  N5  UNL     1       8.200   3.495   2.044 -0.06 -0.00    -0.320 N 
ATOM     56  H41 UNL     1       8.989   3.461   2.679 +0.01 +0.00    +0.169 HD
BRANCH  55  57
ATOM     57  C37 UNL     1       7.068   2.790   2.511 -0.20 +0.00    +0.071 A 
ATOM     58  C38 UNL     1       6.204   3.463   3.392 -0.14 +0.00    +0.129 A 
ATOM     59  C39 UNL     1       5.104   2.816   3.972 -0.18 +0.00    +0.118 A 
ATOM     60  C40 UNL     1       4.804   1.500   3.622 -0.29 +0.00    +0.073 A 
ATOM     61  C41 UNL     1       5.635   0.841   2.701 -0.05 +0.00    +0.023 A 
ATOM     62  C42 UNL     1       6.760   1.479   2.156 -0.21 +0.00    +0.034 A 
BRANCH  58  63
ATOM     63  O10 UNL     1       6.462   4.776   3.731 -0.06 -0.00    -0.351 OA
ATOM     64  C44 UNL     1       7.370   4.816   4.840 -0.20 +0.00    +0.210 C 
ENDBRANCH  58  63
BRANCH  59  65
ATOM     65  O9  UNL     1       4.337   3.506   4.872 -0.10 -0.00    -0.357 OA
ATOM     66  H36 UNL     1       3.475   3.053   4.921 +0.08 +0.00    +0.217 HD
ENDBRANCH  59  65
BRANCH  60  67
ATOM     67  C43 UNL     1       3.649   0.786   4.224 -0.28 +0.00    +0.179 C 
ATOM     68  O7  UNL     1       3.037  -0.165   3.779 -0.08 -0.00    -0.646 OA
BRANCH  67  69
ATOM     69  O8  UNL     1       3.299   1.322   5.412 +0.01 -0.00    -0.773 OA
ATOM     70  H35 UNL     1       4.161   1.580   5.801 -0.05 +0.00    +0.167 HD
ENDBRANCH  67  69
ENDBRANCH  60  67
ENDBRANCH  55  57
ENDBRANCH  46  53
ENDBRANCH  41  43
ENDBRANCH   4  39
TORSDOF 17
TER
