USER    Run = 1
USER    DPF = ligand_522_receptor.dpf
USER  
USER    Estimated Free Energy of Binding    =  +37.86 kcal/mol  [=(1)+(2)+(3)-(4)]
USER    
USER    (1) Final Intermolecular Energy     =  +36.67 kcal/mol
USER        vdW + Hbond + desolv Energy     =  +36.67 kcal/mol
USER        Electrostatic Energy            =   +0.00 kcal/mol
USER    (2) Final Total Internal Energy     =   +4.80 kcal/mol
USER    (3) Torsional Free Energy           =   +1.19 kcal/mol
USER    (4) Unbound System's Energy  [=(2)] =   +4.80 kcal/mol
USER    
USER    
USER    NEWDPF move ligand_522.pdbqt
USER    NEWDPF about 0.000000 0.000000 0.000000
USER    NEWDPF tran0 12.238643 8.235910 2.214847
USER    NEWDPF quaternion0 0.383226 -0.798156 0.454752 0.096361
USER    NEWDPF axisangle0 0.385017 -0.801888 0.456878 168.940719
USER    NEWDPF quat0 0.385017 -0.801888 0.456878 168.940719
USER    NEWDPF dihe0 81.07 -163.38 -173.70 -65.16 -151.67 155.42 -79.52 180.00 -180.00 40.34 -85.34 126.29 113.75 -174.14 -179.91 -158.55 20.82 16.89 11.67 142.84 180.00 -175.05 -17.28 25.47 7.10 83.10 -39.21 -150.21 64.77 -90.03 -74.06 -13.22 
USER  keepresnum = 1 
USER  
REMARK  32 active torsions:
REMARK  status: ('A' for Active; 'I' for Inactive)
REMARK    1  A    between atoms: C2_2  and  C3_3 
REMARK    2  A    between atoms: C3_3  and  S1_42 
REMARK    3  A    between atoms: C4_4  and  S1_42 
REMARK    4  A    between atoms: C5_5  and  N5_49 
REMARK    5  A    between atoms: C9_9  and  N1_44 
REMARK       I    between atoms: C10_10  and  N1_44 
REMARK       I    between atoms: C10_10  and  N2_45 
REMARK    6  A    between atoms: C11_11  and  C12_12 
REMARK    7  A    between atoms: C11_11  and  N2_45 
REMARK    8  A    between atoms: C12_12  and  C13_13 
REMARK    9  A    between atoms: C13_13  and  N3_46 
REMARK   10  A    between atoms: C14_14  and  N3_46 
REMARK   11  A    between atoms: C14_14  and  N4_48 
REMARK   12  A    between atoms: C16_16  and  C17_17 
REMARK       I    between atoms: C16_16  and  N5_49 
REMARK   13  A    between atoms: C18_18  and  O6_64 
REMARK   14  A    between atoms: C20_20  and  O5_63 
REMARK   15  A    between atoms: C21_21  and  C23_23 
REMARK       I    between atoms: C23_23  and  N6_50 
REMARK   16  A    between atoms: C24_24  and  N6_50 
REMARK   17  A    between atoms: C25_25  and  S2_43 
REMARK   18  A    between atoms: C26_26  and  N7_51 
REMARK   19  A    between atoms: C30_30  and  C31_31 
REMARK       I    between atoms: C30_30  and  N7_51 
REMARK   20  A    between atoms: C31_31  and  C32_32 
REMARK   21  A    between atoms: C32_32  and  C33_33 
REMARK   22  A    between atoms: C33_33  and  C34_34 
REMARK   23  A    between atoms: C34_34  and  N8_52 
REMARK       I    between atoms: C35_35  and  N8_52 
REMARK       I    between atoms: C35_35  and  N9_54 
REMARK   24  A    between atoms: C36_36  and  C37_37 
REMARK   25  A    between atoms: C36_36  and  S2_43 
REMARK   26  A    between atoms: C37_37  and  N11_56 
REMARK   27  A    between atoms: C38_38  and  C39_39 
REMARK   28  A    between atoms: C38_38  and  O5_63 
REMARK   29  A    between atoms: C39_39  and  N12_57 
REMARK   30  A    between atoms: C40_40  and  C41_41 
REMARK   31  A    between atoms: C40_40  and  O6_64 
REMARK   32  A    between atoms: C41_41  and  N13_58 
USER                              x       y       z     vdW  Elec       q    Type
USER                           _______ _______ _______ _____ _____    ______ ____
ROOT
ATOM      1  C17 UNL     1      12.819   7.045   2.181 -0.15 +0.00    +0.066 A 
ATOM      2  C18 UNL     1      12.854   6.742   3.558 -0.28 +0.00    +0.087 A 
ATOM      3  C19 UNL     1      13.932   7.195   4.336 -0.42 +0.00    +0.075 A 
ATOM      4  C20 UNL     1      14.996   7.889   3.754 -0.42 +0.00    +0.087 A 
ATOM      5  C21 UNL     1      14.967   8.202   2.394 +0.47 +0.00    +0.066 A 
ATOM      6  C22 UNL     1      13.892   7.763   1.614 +9.97 +0.00    +0.040 A 
ENDROOT
BRANCH   5   7
ATOM      7  C23 UNL     1      16.047   8.974   1.720 -0.28 +0.00    +0.259 C 
ATOM      8  N6  UNL     1      16.374  10.174   2.325 -0.21 -0.00    -0.322 N 
ATOM      9  H50 UNL     1      16.147  10.217   3.314 +0.12 +0.00    +0.169 HD
ATOM     10  O3  UNL     1      16.583   8.473   0.740 -0.41 -0.00    -0.267 OA
BRANCH   8  11
ATOM     11  C24 UNL     1      17.379  11.066   1.875 -0.48 +0.00    +0.054 A 
ATOM     12  C25 UNL     1      18.676  10.698   1.444 -0.46 +0.00    +0.054 A 
ATOM     13  C26 UNL     1      19.608  11.716   1.096 -0.60 +0.00    +0.053 A 
ATOM     14  C27 UNL     1      19.213  13.057   1.131 -0.59 +0.00    +0.031 A 
ATOM     15  C28 UNL     1      17.909  13.403   1.478 +0.61 +0.00    +0.005 A 
ATOM     16  C29 UNL     1      16.997  12.415   1.837 -0.47 +0.00    +0.031 A 
BRANCH  12  17
ATOM     17  S2  UNL     1      19.183   8.974   1.181+11.42 -0.00    -0.124 SA
BRANCH  17  18
ATOM     18  C36 UNL     1      20.511   8.823   2.434 +1.61 +0.00    +0.109 C 
BRANCH  18  19
ATOM     19  C37 UNL     1      20.525  10.006   3.410 +3.22 +0.00    +0.277 C 
BRANCH  19  20
ATOM     20  N11 UNL     1      21.855  10.297   3.941 +0.30 +0.00    +0.079 N 
ATOM     21  H56 UNL     1      22.171  11.207   3.614 +0.28 +0.00    +0.312 HD
ATOM     22  H57 UNL     1      22.520   9.603   3.571 +0.24 +0.00    +0.312 HD
ENDBRANCH  19  20
ENDBRANCH  18  19
ENDBRANCH  17  18
ENDBRANCH  12  17
BRANCH  13  23
ATOM     23  N7  UNL     1      20.912  11.324   0.701 -0.11 -0.00    -0.326 N 
ATOM     24  C30 UNL     1      21.317  10.161   0.084 -0.23 +0.00    +0.222 C 
ATOM     25  O4  UNL     1      20.601   9.228  -0.267 +0.46 -0.00    -0.273 OA
ATOM     26  H51 UNL     1      21.625  12.001   0.961 +0.90 +0.00    +0.169 HD
BRANCH  24  27
ATOM     27  C31 UNL     1      22.821  10.090  -0.129 -0.38 +0.00    +0.103 C 
BRANCH  27  28
ATOM     28  C32 UNL     1      23.243   8.718  -0.656 -0.36 +0.00    +0.011 C 
BRANCH  28  29
ATOM     29  C33 UNL     1      23.508   7.716   0.472 -0.52 +0.00    +0.020 C 
BRANCH  29  30
ATOM     30  C34 UNL     1      24.339   6.513   0.021 -0.45 +0.00    +0.122 C 
BRANCH  30  31
ATOM     31  N8  UNL     1      25.645   6.539   0.677 -0.12 -0.00    -0.367 N 
ATOM     32  C35 UNL     1      26.698   6.839   0.014 -0.32 +0.00    +0.143 C 
ATOM     33  N9  UNL     1      27.884   6.881   0.661 -0.15 -0.00    -0.274 NA
ATOM     34  N10 UNL     1      26.842   7.149  -1.290 -0.07 -0.00    -0.376 N 
ATOM     35  H52 UNL     1      27.774   6.532   1.607 +0.09 +0.00    +0.127 HD
ATOM     36  H53 UNL     1      28.629   6.382   0.194 +0.07 +0.00    +0.127 HD
ATOM     37  H54 UNL     1      26.102   6.873  -1.919 +0.08 +0.00    +0.158 HD
ATOM     38  H55 UNL     1      27.767   7.077  -1.688 +0.06 +0.00    +0.158 HD
ATOM     39  H8  UNL     1      25.717   6.317   1.670 +0.11 +0.00    +0.162 HD
ENDBRANCH  30  31
ENDBRANCH  29  30
ENDBRANCH  28  29
ENDBRANCH  27  28
ENDBRANCH  24  27
ENDBRANCH  13  23
ENDBRANCH   8  11
ENDBRANCH   5   7
BRANCH   4  40
ATOM     40  O5  UNL     1      16.036   8.324   4.537 -0.28 -0.00    -0.348 OA
BRANCH  40  41
ATOM     41  C38 UNL     1      15.815   9.642   5.075 +3.56 +0.00    +0.205 C 
BRANCH  41  42
ATOM     42  C39 UNL     1      17.141  10.392   5.268 +1.53 +0.00    +0.293 C 
BRANCH  42  43
ATOM     43  N12 UNL     1      18.296   9.532   5.023 +3.07 +0.00    +0.080 N 
ATOM     44  H58 UNL     1      17.965   8.611   4.731 +0.23 +0.00    +0.312 HD
ATOM     45  H59 UNL     1      18.834   9.892   4.235 +0.37 +0.00    +0.312 HD
ENDBRANCH  42  43
ENDBRANCH  41  42
ENDBRANCH  40  41
ENDBRANCH   4  40
BRANCH   1  46
ATOM     46  C16 UNL     1      11.700   6.676   1.243 -0.24 +0.00    +0.259 C 
ATOM     47  N5  UNL     1      11.439   5.331   1.067 +1.65 -0.00    -0.322 N 
ATOM     48  H49 UNL     1      12.073   4.675   1.516 +3.17 +0.00    +0.169 HD
ATOM     49  O2  UNL     1      11.079   7.590   0.709 +0.43 -0.00    -0.267 OA
BRANCH  47  50
ATOM     50  C5  UNL     1      10.365   4.732   0.357 +0.94 +0.00    +0.054 A 
ATOM     51  C4  UNL     1       9.439   3.928   1.066 +0.58 +0.00    +0.054 A 
ATOM     52  C9  UNL     1       8.315   3.366   0.407 -0.10 +0.00    +0.055 A 
ATOM     53  C8  UNL     1       8.155   3.575  -0.962 -0.10 +0.00    +0.031 A 
ATOM     54  C7  UNL     1       9.076   4.347  -1.666 -0.16 +0.00    +0.005 A 
ATOM     55  C6  UNL     1      10.167   4.925  -1.013 -0.19 +0.00    +0.031 A 
BRANCH  51  56
ATOM     56  S1  UNL     1       9.692   3.574   2.829 +1.57 -0.00    -0.125 SA
BRANCH  56  57
ATOM     57  C3  UNL     1       8.945   5.097   3.516 -0.22 +0.00    +0.079 C 
BRANCH  57  58
ATOM     58  C2  UNL     1       8.253   4.844   4.856 -0.32 +0.00    +0.006 C 
ATOM     59  C1  UNL     1       8.585   3.500   5.489 -0.37 +0.00    +0.006 C 
ENDBRANCH  57  58
ENDBRANCH  56  57
ENDBRANCH  51  56
BRANCH  52  60
ATOM     60  N1  UNL     1       7.404   2.599   1.171 -0.06 -0.00    -0.308 N 
ATOM     61  C10 UNL     1       6.028   2.630   1.160 -0.05 +0.00    +0.320 C 
ATOM     62  N2  UNL     1       5.526   1.674   2.025 -0.10 -0.00    -0.343 N 
ATOM     63  O1  UNL     1       5.316   3.379   0.508 -0.06 -0.00    -0.247 OA
ATOM     64  H46 UNL     1       6.072   0.824   2.032 +0.06 +0.00    +0.164 HD
ATOM     65  H45 UNL     1       7.821   2.074   1.928 +0.04 +0.00    +0.170 HD
BRANCH  62  66
ATOM     66  C11 UNL     1       4.095   1.443   2.088 -0.18 +0.00    +0.126 C 
BRANCH  66  67
ATOM     67  C12 UNL     1       3.711   0.401   3.138 -0.34 +0.00    +0.039 C 
BRANCH  67  68
ATOM     68  C13 UNL     1       2.691   0.875   4.173 -0.22 +0.00    +0.122 C 
BRANCH  68  69
ATOM     69  N3  UNL     1       2.962   2.250   4.577 -0.05 -0.00    -0.380 N 
ATOM     70  H3  UNL     1       2.422   3.013   4.167 +0.05 +0.00    +0.160 HD
BRANCH  69  71
ATOM     71  C14 UNL     1       3.879   2.512   5.447 -0.32 +0.00    +0.066 C 
ATOM     72  C15 UNL     1       5.162   3.253   5.158 -0.23 +0.00    +0.088 C 
BRANCH  71  73
ATOM     73  N4  UNL     1       3.680   2.072   6.723 +0.22 -0.00    -0.389 N 
ATOM     74  H47 UNL     1       2.814   1.585   6.922 +0.04 +0.00    +0.157 HD
ATOM     75  H48 UNL     1       3.936   2.760   7.422 +0.05 +0.00    +0.157 HD
ENDBRANCH  71  73
ENDBRANCH  69  71
ENDBRANCH  68  69
ENDBRANCH  67  68
ENDBRANCH  66  67
ENDBRANCH  62  66
ENDBRANCH  52  60
ENDBRANCH  47  50
ENDBRANCH   1  46
BRANCH   2  76
ATOM     76  O6  UNL     1      11.802   6.046   4.093 -0.17 -0.00    -0.348 OA
BRANCH  76  77
ATOM     77  C40 UNL     1      11.880   5.656   5.469 -0.28 +0.00    +0.205 C 
BRANCH  77  78
ATOM     78  C41 UNL     1      12.944   4.567   5.647 +0.07 +0.00    +0.293 C 
BRANCH  78  79
ATOM     79  N13 UNL     1      12.515   3.524   6.575 -0.05 +0.00    +0.080 N 
ATOM     80  H60 UNL     1      11.813   3.909   7.209 +0.24 +0.00    +0.312 HD
ATOM     81  H61 UNL     1      12.044   2.778   6.064 +0.30 +0.00    +0.312 HD
ENDBRANCH  78  79
ENDBRANCH  77  78
ENDBRANCH  76  77
ENDBRANCH   2  76
TORSDOF 32
TER
