USER    Run = 1
USER    DPF = ligand_326_receptor.dpf
USER  
USER    Estimated Free Energy of Binding    =  -11.09 kcal/mol  [=(1)+(2)+(3)-(4)]
USER    Estimated Inhibition Constant, Ki   =    7.37 nM (nanomolar)  [Temperature = 298.15 K]
USER    
USER    (1) Final Intermolecular Energy     =  -12.29 kcal/mol
USER        vdW + Hbond + desolv Energy     =  -12.29 kcal/mol
USER        Electrostatic Energy            =   +0.00 kcal/mol
USER    (2) Final Total Internal Energy     =   -1.91 kcal/mol
USER    (3) Torsional Free Energy           =   +1.19 kcal/mol
USER    (4) Unbound System's Energy  [=(2)] =   -1.91 kcal/mol
USER    
USER    
USER    NEWDPF move ligand_326.pdbqt
USER    NEWDPF about 0.000000 0.000000 0.000000
USER    NEWDPF tran0 14.416492 7.554276 4.150690
USER    NEWDPF quaternion0 -0.683796 -0.312472 -0.111358 0.649910
USER    NEWDPF axisangle0 -0.899719 -0.411141 -0.146522 98.930336
USER    NEWDPF quat0 -0.899719 -0.411141 -0.146522 98.930336
USER    NEWDPF dihe0 -180.00 -41.04 108.40 141.94 -126.12 -54.90 34.44 64.88 
USER  keepresnum = 1 
USER  
REMARK  8 active torsions:
REMARK  status: ('A' for Active; 'I' for Inactive)
REMARK    1  A    between atoms: C6_6  and  C7_7 
REMARK       I    between atoms: C7_7  and  N1_27 
REMARK    2  A    between atoms: C8_8  and  N1_27 
REMARK    3  A    between atoms: C8_8  and  N2_28 
REMARK       I    between atoms: C9_9  and  N3_30 
REMARK       I    between atoms: C9_9  and  N4_31 
REMARK    4  A    between atoms: C11_11  and  C12_12 
REMARK       I    between atoms: C12_12  and  N6_33 
REMARK    5  A    between atoms: C13_13  and  N6_33 
REMARK    6  A    between atoms: C20_20  and  C21_21 
REMARK       I    between atoms: C21_21  and  N8_35 
REMARK    7  A    between atoms: C22_22  and  N8_35 
REMARK    8  A    between atoms: C22_22  and  N9_36 
REMARK       I    between atoms: C23_23  and  N10_38 
REMARK       I    between atoms: C23_23  and  N11_39 
USER                              x       y       z     vdW  Elec       q    Type
USER                           _______ _______ _______ _____ _____    ______ ____
ROOT
ATOM      1  C12 UNL     1      14.157   8.020   4.808 -0.31 +0.00    +0.272 C 
ATOM      2  O2  UNL     1      14.385   9.034   5.454 +0.07 -0.00    -0.266 OA
ATOM      3  N6  UNL     1      14.815   7.642   3.650 -0.26 -0.00    -0.322 N 
ATOM      4  H19 UNL     1      14.378   6.918   3.100 -0.46 +0.00    +0.169 HD
ENDROOT
BRANCH   1   5
ATOM      5  C11 UNL     1      13.101   7.097   5.194 -0.36 +0.00    +0.102 A 
ATOM      6  C10 UNL     1      11.746   7.360   5.301 -0.35 +0.00    +0.049 A 
ATOM      7  C4  UNL     1      11.086   6.173   5.717 -0.32 -0.00    -0.006 A 
ATOM      8  C3  UNL     1      12.067   5.201   5.891 -0.38 +0.00    +0.043 A 
ATOM      9  C5  UNL     1       9.742   5.838   5.971 -0.25 +0.00    +0.030 A 
ATOM     10  C2  UNL     1      11.778   3.901   6.320 -0.43 +0.00    +0.031 A 
ATOM     11  N5  UNL     1      13.274   5.789   5.592 -0.19 -0.00    -0.351 N 
ATOM     12  C1  UNL     1      10.436   3.584   6.565 -0.47 +0.00    +0.019 A 
ATOM     13  C6  UNL     1       9.424   4.533   6.381 -0.37 +0.00    +0.033 A 
ATOM     14  H18 UNL     1      14.168   5.332   5.700 +0.11 +0.00    +0.166 HD
BRANCH  13  15
ATOM     15  C7  UNL     1       7.992   4.213   6.639 -0.34 +0.00    +0.252 C 
ATOM     16  O1  UNL     1       7.687   3.339   7.443 -0.37 -0.00    -0.268 OA
ATOM     17  N1  UNL     1       7.068   4.957   5.944 -0.15 -0.00    -0.341 N 
ATOM     18  H13 UNL     1       7.342   5.805   5.477 +0.08 +0.00    +0.164 HD
BRANCH  17  19
ATOM     19  C8  UNL     1       5.668   4.841   6.218 -0.30 +0.00    +0.248 C 
BRANCH  19  20
ATOM     20  N2  UNL     1       5.291   3.445   6.117 -0.16 -0.00    -0.356 N 
ATOM     21  C9  UNL     1       4.752   3.029   5.035 -0.24 +0.00    +0.123 C 
ATOM     22  N3  UNL     1       4.435   1.722   4.903 -0.19 -0.00    -0.279 NA
ATOM     23  N4  UNL     1       4.382   3.699   3.922 -0.05 -0.00    -0.279 NA
ATOM     24  H14 UNL     1       3.508   1.585   4.519 +0.05 +0.00    +0.126 HD
ATOM     25  H15 UNL     1       4.537   1.242   5.791 -0.30 +0.00    +0.126 HD
ATOM     26  H16 UNL     1       4.700   4.661   3.874 +0.05 +0.00    +0.126 HD
ATOM     27  H17 UNL     1       4.609   3.198   3.070 +0.05 +0.00    +0.126 HD
ATOM     28  H2  UNL     1       5.452   2.806   6.896 -0.29 +0.00    +0.163 HD
ENDBRANCH  19  20
ENDBRANCH  17  19
ENDBRANCH  13  15
ENDBRANCH   1   5
BRANCH   3  29
ATOM     29  C13 UNL     1      15.936   8.264   3.055 -0.46 +0.00    +0.037 A 
ATOM     30  C14 UNL     1      17.232   8.180   3.577 -0.53 +0.00    +0.059 A 
ATOM     31  C15 UNL     1      18.266   8.831   2.887 -0.45 +0.00    +0.045 A 
ATOM     32  C16 UNL     1      18.057   9.547   1.713 -0.42 -0.00    -0.007 A 
ATOM     33  N7  UNL     1      19.606   8.916   3.176 -0.18 -0.00    -0.351 N 
ATOM     34  C17 UNL     1      16.753   9.623   1.194 -0.48 +0.00    +0.016 A 
ATOM     35  C19 UNL     1      19.319  10.063   1.306 -0.37 +0.00    +0.049 A 
ATOM     36  C18 UNL     1      15.709   8.977   1.872 -0.07 +0.00    +0.030 A 
ATOM     37  C20 UNL     1      20.275   9.654   2.221 -0.28 +0.00    +0.102 A 
ATOM     38  H20 UNL     1      20.059   8.500   3.980 +0.11 +0.00    +0.166 HD
BRANCH  37  39
ATOM     39  C21 UNL     1      21.703   9.875   2.318 -0.24 +0.00    +0.269 C 
ATOM     40  O3  UNL     1      22.205  10.396   3.308 -0.27 -0.00    -0.266 OA
ATOM     41  N8  UNL     1      22.425   9.429   1.234 -0.18 -0.00    -0.340 N 
ATOM     42  H21 UNL     1      21.985   8.718   0.671 +0.12 +0.00    +0.164 HD
BRANCH  41  43
ATOM     43  C22 UNL     1      23.865   9.420   1.257 -0.28 +0.00    +0.248 C 
BRANCH  43  44
ATOM     44  N9  UNL     1      24.432   8.543   2.264 -0.17 -0.00    -0.356 N 
ATOM     45  C23 UNL     1      24.759   8.976   3.416 -0.57 +0.00    +0.123 C 
ATOM     46  N10 UNL     1      24.617  10.211   3.946 -0.85 -0.00    -0.279 NA
ATOM     47  N11 UNL     1      25.337   8.153   4.318 -0.45 -0.00    -0.279 NA
ATOM     48  H22 UNL     1      23.881  10.717   3.465 +0.09 +0.00    +0.126 HD
ATOM     49  H23 UNL     1      24.396  10.154   4.934 +0.05 +0.00    +0.126 HD
ATOM     50  H24 UNL     1      25.556   7.264   3.878 +0.05 +0.00    +0.126 HD
ATOM     51  H25 UNL     1      26.166   8.556   4.735 -0.47 +0.00    +0.126 HD
ATOM     52  H9  UNL     1      24.571   7.557   2.044 +0.13 +0.00    +0.163 HD
ENDBRANCH  43  44
ENDBRANCH  41  43
ENDBRANCH  37  39
ENDBRANCH   3  29
TORSDOF 8
TER
