USER    Run = 1
USER    DPF = ligand_388_receptor.dpf
USER  
USER    Estimated Free Energy of Binding    = +216.75 kcal/mol  [=(1)+(2)+(3)-(4)]
USER    
USER    (1) Final Intermolecular Energy     = +215.55 kcal/mol
USER        vdW + Hbond + desolv Energy     = +215.55 kcal/mol
USER        Electrostatic Energy            =   +0.00 kcal/mol
USER    (2) Final Total Internal Energy     =   +7.89 kcal/mol
USER    (3) Torsional Free Energy           =   +1.19 kcal/mol
USER    (4) Unbound System's Energy  [=(2)] =   +7.89 kcal/mol
USER    
USER    
USER    NEWDPF move ligand_388.pdbqt
USER    NEWDPF about 0.000000 0.000000 0.000000
USER    NEWDPF tran0 16.523539 9.633919 6.745990
USER    NEWDPF quaternion0 -0.566714 0.677668 -0.437176 0.168759
USER    NEWDPF axisangle0 -0.574960 0.687528 -0.443537 160.568709
USER    NEWDPF quat0 -0.574960 0.687528 -0.443537 160.568709
USER    NEWDPF dihe0 -73.00 -180.00 -161.08 -137.88 154.54 -147.24 180.00 -126.76 69.92 -9.88 87.60 -115.80 -124.44 -179.82 -3.76 119.02 -160.43 104.83 
USER  keepresnum = 1 
USER  
REMARK  18 active torsions:
REMARK  status: ('A' for Active; 'I' for Inactive)
REMARK    1  A    between atoms: C2_2  and  C4_4 
REMARK    2  A    between atoms: C4_4  and  C5_5 
REMARK    3  A    between atoms: C4_4  and  N12_76 
REMARK       I    between atoms: C5_5  and  N1_61 
REMARK    4  A    between atoms: C6_6  and  C7_7 
REMARK    5  A    between atoms: C6_6  and  N1_61 
REMARK       I    between atoms: C7_7  and  N2_62 
REMARK    6  A    between atoms: C8_8  and  N2_62 
REMARK    7  A    between atoms: C11_11  and  C14_14 
REMARK    8  A    between atoms: C14_14  and  O3_48 
REMARK    9  A    between atoms: C15_15  and  O3_48 
REMARK       I    between atoms: C15_15  and  N3_63 
REMARK   10  A    between atoms: C17_17  and  C18_18 
REMARK   11  A    between atoms: C17_17  and  N3_63 
REMARK   12  A    between atoms: C23_23  and  C24_24 
REMARK       I    between atoms: C24_24  and  N4_64 
REMARK   13  A    between atoms: C25_25  and  N4_64 
REMARK   14  A    between atoms: C30_30  and  N7_69 
REMARK   15  A    between atoms: C36_36  and  O15_60 
REMARK   16  A    between atoms: C39_39  and  N9_72 
REMARK   17  A    between atoms: O12_57  and  P2_78 
REMARK   18  A    between atoms: P1_77  and  S2_80 
USER                              x       y       z     vdW  Elec       q    Type
USER                           _______ _______ _______ _____ _____    ______ ____
ROOT
ATOM      1  C25 UNL     1      15.670   8.763   4.637 +0.14 +0.00    +0.140 A 
ATOM      2  C26 UNL     1      15.810   9.385   3.390 -0.33 +0.00    +0.122 A 
ATOM      3  C27 UNL     1      17.067   9.339   2.813 -0.39 +0.00    +0.142 A 
ATOM      4  C28 UNL     1      17.916   8.193   4.509 +0.31 +0.00    +0.183 A 
ATOM      5  C29 UNL     1      15.633  10.424   1.533 +0.15 +0.00    +0.188 A 
ATOM      6  N5  UNL     1      18.171   8.758   3.309 -0.26 -0.00    -0.336 N 
ATOM      7  H5  UNL     1      19.079   8.746   2.844 +0.11 +0.00    +0.168 HD
ATOM      8  N6  UNL     1      16.750   8.161   5.185 +2.43 -0.00    -0.337 N 
ATOM      9  H6  UNL     1      16.684   7.694   6.090 +1.21 +0.00    +0.168 HD
ATOM     10  N7  UNL     1      16.937  10.018   1.631 -0.22 -0.00    -0.297 N 
ATOM     11  N8  UNL     1      14.920  10.060   2.581 +0.65 -0.00    -0.346 N 
ATOM     12  H8  UNL     1      13.931  10.238   2.754 -0.40 +0.00    +0.167 HD
ENDROOT
BRANCH  10  13
ATOM     13  C30 UNL     1      18.017  10.232   0.689 -0.33 +0.00    +0.267 C 
ATOM     14  C31 UNL     1      19.187   9.268   0.833 +2.55 +0.00    +0.251 C 
ATOM     15  C32 UNL     1      20.175  10.047   1.670 -0.34 +0.00    +0.201 C 
ATOM     16  F2  UNL     1      18.870   8.098   1.435+22.05 -0.00    -0.242 F 
ATOM     17  C33 UNL     1      19.927  11.492   1.249 -0.52 +0.00    +0.181 C 
ATOM     18  O11 UNL     1      19.848   9.907   3.052 -0.13 -0.00    -0.303 OA
ATOM     19  C34 UNL     1      20.807  11.980   0.089 -0.20 +0.00    +0.213 C 
ATOM     20  O6  UNL     1      18.540  11.575   0.853 -0.31 -0.00    -0.353 OA
ATOM     21  O7  UNL     1      22.178  11.965   0.464+23.19 -0.00    -0.304 OA
ATOM     22  P1  UNL     1      23.204  11.111  -0.457 +4.06 +0.00    +0.388 P 
ATOM     23  O8  UNL     1      22.571   9.802  -0.832 +0.08 -0.00    -0.246 OA
ATOM     24  O9  UNL     1      24.448  10.959   0.569 +9.62 -0.00    -0.294 OA
ATOM     25  C35 UNL     1      24.235  10.096   1.673 +0.06 +0.00    +0.213 C 
ATOM     26  C36 UNL     1      24.578  10.769   2.989 +0.23 +0.00    +0.183 C 
ATOM     27  C39 UNL     1      25.118   8.858   1.749 -0.33 +0.00    +0.261 C 
ATOM     28  C37 UNL     1      24.638   9.571   3.940 -0.10 +0.00    +0.180 C 
ATOM     29  C38 UNL     1      23.298   9.244   4.629 -0.15 +0.00    +0.213 C 
ATOM     30  O13 UNL     1      25.040   8.430   3.130 -0.36 -0.00    -0.353 OA
ATOM     31  O10 UNL     1      22.190   9.708   3.863 -0.29 -0.00    -0.311 OA
ATOM     32  P2  UNL     1      20.760   8.973   4.002 +3.31 +0.00    +0.327 P 
ATOM     33  S1  UNL     1      20.060   8.641   5.756+34.01 -0.00    -0.007 SA
BRANCH  22  34
ATOM     34  S2  UNL     1      23.766  12.228  -2.110+17.32 -0.00    -0.058 SA
ATOM     35  H50 UNL     1      22.854  13.190  -1.929 -0.21 +0.00    +0.114 HD
ENDBRANCH  22  34
BRANCH  26  36
ATOM     36  O15 UNL     1      25.868  11.388   2.898 +9.71 -0.00    -0.390 OA
ATOM     37  H43 UNL     1      26.378  11.103   3.680 +0.37 +0.00    +0.210 HD
ENDBRANCH  26  36
BRANCH  32  38
ATOM     38  O12 UNL     1      20.975   7.684   3.073 +7.70 -0.00    -0.324 OA
ATOM     39  H42 UNL     1      21.919   7.441   2.979 +0.20 +0.00    +0.220 HD
ENDBRANCH  32  38
BRANCH  27  40
ATOM     40  N9  UNL     1      24.664   7.785   0.876 -0.17 -0.00    -0.309 N 
ATOM     41  C40 UNL     1      23.382   7.585   0.413 -0.36 +0.00    +0.139 A 
ATOM     42  C41 UNL     1      23.417   6.497  -0.425 -0.41 +0.00    +0.151 A 
ATOM     43  C42 UNL     1      24.729   6.020  -0.485 -0.40 +0.00    +0.116 A 
ATOM     44  F1  UNL     1      22.363   5.999  -1.078 +0.48 -0.00    -0.203 F 
ATOM     45  C43 UNL     1      25.491   6.829   0.335 -0.30 +0.00    +0.129 A 
ATOM     46  C45 UNL     1      25.379   4.951  -1.190 -0.29 +0.00    +0.263 A 
ATOM     47  N10 UNL     1      26.828   6.745   0.560 -0.12 -0.00    -0.337 N 
ATOM     48  C44 UNL     1      27.388   5.770  -0.088 -0.19 +0.00    +0.184 A 
ATOM     49  H10 UNL     1      27.337   7.382   1.173 +0.11 +0.00    +0.168 HD
ATOM     50  N11 UNL     1      26.735   4.891  -0.928 -0.16 -0.00    -0.319 N 
ATOM     51  H47 UNL     1      27.238   4.157  -1.403 +0.09 +0.00    +0.169 HD
ATOM     52  O14 UNL     1      24.825   4.162  -1.948 -0.19 -0.00    -0.267 OA
ENDBRANCH  27  40
ENDBRANCH  10  13
BRANCH   1  53
ATOM     53  N4  UNL     1      14.415   8.793   5.254 +0.10 -0.00    -0.307 N 
ATOM     54  C24 UNL     1      13.219   9.026   4.620 +2.64 +0.00    +0.257 C 
ATOM     55  O5  UNL     1      13.027   9.244   3.432 +0.49 -0.00    -0.267 OA
ATOM     56  H46 UNL     1      14.426   8.590   6.248 +0.26 +0.00    +0.170 HD
BRANCH  54  57
ATOM     57  C23 UNL     1      12.050   8.986   5.535 +9.42 +0.00    +0.040 A 
ATOM     58  C18 UNL     1      12.190   8.670   6.899 -0.22 -0.00    -0.025 A 
ATOM     59  C19 UNL     1      11.031   8.664   7.698+17.78 +0.00    +0.010 A 
ATOM     60  C20 UNL     1       9.777   8.951   7.154+25.70 +0.00    +0.001 A 
ATOM     61  C21 UNL     1       9.652   9.250   5.801+28.26 +0.00    +0.001 A 
ATOM     62  C22 UNL     1      10.785   9.268   4.990 +5.32 +0.00    +0.017 A 
BRANCH  58  63
ATOM     63  C17 UNL     1      13.525   8.363   7.544 +0.20 +0.00    +0.167 C 
BRANCH  63  64
ATOM     64  N3  UNL     1      13.625   6.987   8.019 -0.28 -0.00    -0.328 N 
ATOM     65  C15 UNL     1      13.941   5.983   7.124 -0.34 +0.00    +0.362 C 
ATOM     66  O4  UNL     1      14.115   6.162   5.923 -0.38 -0.00    -0.238 OA
ATOM     67  C16 UNL     1      13.462   6.763   9.448 -0.20 +0.00    +0.155 C 
BRANCH  65  68
ATOM     68  O3  UNL     1      14.052   4.766   7.717 -0.46 -0.00    -0.299 OA
BRANCH  68  69
ATOM     69  C14 UNL     1      12.890   4.366   8.449 -0.38 +0.00    +0.219 C 
BRANCH  69  70
ATOM     70  C11 UNL     1      11.726   4.251   7.496 -0.46 -0.00    -0.034 A 
ATOM     71  C10 UNL     1      11.912   3.777   6.192 -0.40 +0.00    +0.011 A 
ATOM     72  C9  UNL     1      10.835   3.693   5.305 -0.43 +0.00    +0.030 A 
ATOM     73  C8  UNL     1       9.552   4.085   5.701 -0.37 +0.00    +0.034 A 
ATOM     74  C13 UNL     1       9.364   4.568   6.996 -0.41 +0.00    +0.030 A 
ATOM     75  C12 UNL     1      10.442   4.653   7.885 -0.43 +0.00    +0.011 A 
BRANCH  73  76
ATOM     76  N2  UNL     1       8.524   3.963   4.749 -0.14 -0.00    -0.326 N 
ATOM     77  C7  UNL     1       7.156   4.027   4.955 -0.21 +0.00    +0.239 C 
ATOM     78  O2  UNL     1       6.577   4.199   6.023 -0.27 -0.00    -0.271 OA
ATOM     79  H45 UNL     1       8.818   3.731   3.798 +0.08 +0.00    +0.169 HD
BRANCH  77  80
ATOM     80  C6  UNL     1       6.362   3.813   3.661 -0.14 +0.00    +0.225 C 
BRANCH  80  81
ATOM     81  N1  UNL     1       6.794   4.740   2.627 -0.01 -0.00    -0.350 N 
ATOM     82  C5  UNL     1       7.670   4.337   1.636 -0.06 +0.00    +0.251 C 
ATOM     83  O1  UNL     1       8.172   3.216   1.632 -0.11 -0.00    -0.271 OA
ATOM     84  H44 UNL     1       6.209   5.549   2.450 +0.07 +0.00    +0.163 HD
BRANCH  82  85
ATOM     85  C4  UNL     1       7.968   5.440   0.590 -0.07 +0.00    +0.312 C 
BRANCH  85  86
ATOM     86  C2  UNL     1       8.336   6.791   1.248 -0.33 +0.00    +0.020 C 
ATOM     87  C1  UNL     1       7.099   7.450   1.875 -0.46 +0.00    +0.012 C 
ATOM     88  C3  UNL     1       9.406   6.631   2.337 -0.33 +0.00    +0.012 C 
ENDBRANCH  85  86
BRANCH  85  89
ATOM     89  N12 UNL     1       6.770   5.563  -0.270 -0.12 +0.00    +0.092 N 
ATOM     90  H48 UNL     1       6.278   6.427  -0.042 +0.01 +0.00    +0.313 HD
ATOM     91  H49 UNL     1       7.076   5.671  -1.238 -0.44 +0.00    +0.313 HD
ENDBRANCH  85  89
ENDBRANCH  82  85
ENDBRANCH  80  81
ENDBRANCH  77  80
ENDBRANCH  73  76
ENDBRANCH  69  70
ENDBRANCH  68  69
ENDBRANCH  65  68
ENDBRANCH  63  64
ENDBRANCH  58  63
ENDBRANCH  54  57
ENDBRANCH   1  53
TORSDOF 18
TER
