USER    Run = 1
USER    DPF = ligand_23_receptor.dpf
USER  
USER    Estimated Free Energy of Binding    =  -10.77 kcal/mol  [=(1)+(2)+(3)-(4)]
USER    Estimated Inhibition Constant, Ki   =   12.72 nM (nanomolar)  [Temperature = 298.15 K]
USER    
USER    (1) Final Intermolecular Energy     =  -11.96 kcal/mol
USER        vdW + Hbond + desolv Energy     =  -11.96 kcal/mol
USER        Electrostatic Energy            =   +0.00 kcal/mol
USER    (2) Final Total Internal Energy     =   -3.99 kcal/mol
USER    (3) Torsional Free Energy           =   +1.19 kcal/mol
USER    (4) Unbound System's Energy  [=(2)] =   -3.99 kcal/mol
USER    
USER    
USER    NEWDPF move ligand_23.pdbqt
USER    NEWDPF about 0.000000 0.000000 0.000000
USER    NEWDPF tran0 10.677076 7.191895 3.142964
USER    NEWDPF quaternion0 0.496395 0.021371 -0.070728 0.864947
USER    NEWDPF axisangle0 0.989103 0.042583 -0.140932 60.246713
USER    NEWDPF quat0 0.989103 0.042583 -0.140932 60.246713
USER    NEWDPF dihe0 -29.86 -73.16 66.27 150.21 -168.06 -98.95 11.22 110.25 49.75 20.06 179.10 16.70 -93.04 -136.36 179.24 -140.82 46.43 145.73 -108.11 -70.12 
USER  keepresnum = 1 
USER  
REMARK  20 active torsions:
REMARK  status: ('A' for Active; 'I' for Inactive)
REMARK    1  A    between atoms: C3_3  and  N7_43 
REMARK    2  A    between atoms: C5_5  and  N3_39 
REMARK    3  A    between atoms: C6_6  and  C7_7 
REMARK       I    between atoms: C6_6  and  N3_39 
REMARK    4  A    between atoms: C8_8  and  C17_17 
REMARK    5  A    between atoms: C11_11  and  C13_13 
REMARK    6  A    between atoms: C13_13  and  N4_40 
REMARK    7  A    between atoms: C14_14  and  N4_40 
REMARK       I    between atoms: C17_17  and  N5_41 
REMARK    8  A    between atoms: C18_18  and  C19_19 
REMARK    9  A    between atoms: C18_18  and  N5_41 
REMARK   10  A    between atoms: C19_19  and  C20_20 
REMARK   11  A    between atoms: C20_20  and  C21_21 
REMARK   12  A    between atoms: C21_21  and  C22_22 
REMARK       I    between atoms: C22_22  and  N6_42 
REMARK   13  A    between atoms: C23_23  and  C24_24 
REMARK       I    between atoms: C23_23  and  N7_43 
REMARK   14  A    between atoms: C26_26  and  C34_34 
REMARK   15  A    between atoms: C27_27  and  C30_30 
REMARK   16  A    between atoms: C30_30  and  N8_44 
REMARK   17  A    between atoms: C31_31  and  C32_32 
REMARK       I    between atoms: C31_31  and  N8_44 
REMARK   18  A    between atoms: C32_32  and  C33_33 
REMARK   19  A    between atoms: C33_33  and  O7_51 
REMARK   20  A    between atoms: N6_42  and  O4_48 
USER                              x       y       z     vdW  Elec       q    Type
USER                           _______ _______ _______ _____ _____    ______ ____
ROOT
ATOM      1  C1  UNL     1      12.218   4.236   6.951 -0.50 +0.00    +0.089 C 
ATOM      2  C2  UNL     1      11.952   4.976   5.678 -0.34 +0.00    +0.080 A 
ATOM      3  C3  UNL     1      12.703   6.316   3.986 -0.07 +0.00    +0.112 A 
ATOM      4  C4  UNL     1      11.482   6.256   3.352 -0.25 +0.00    +0.097 A 
ATOM      5  C5  UNL     1      10.515   5.500   3.974 -0.20 +0.00    +0.112 A 
ATOM      6  N1  UNL     1      12.961   5.678   5.142 -0.13 -0.00    -0.332 N 
ATOM      7  H1  UNL     1      13.877   5.727   5.588 +0.11 +0.00    +0.168 HD
ATOM      8  N2  UNL     1      10.736   4.854   5.132 -0.12 -0.00    -0.332 N 
ATOM      9  H2  UNL     1      10.009   4.294   5.575 +0.11 +0.00    +0.168 HD
ENDROOT
BRANCH   5  10
ATOM     10  N3  UNL     1       9.216   5.311   3.485 -0.08 -0.00    -0.309 N 
ATOM     11  C6  UNL     1       8.193   6.224   3.411 -0.15 +0.00    +0.258 C 
ATOM     12  O1  UNL     1       8.248   7.396   3.767 -0.11 -0.00    -0.267 OA
ATOM     13  H34 UNL     1       9.060   4.347   3.193 +0.06 +0.00    +0.170 HD
BRANCH  11  14
ATOM     14  C7  UNL     1       6.917   5.759   2.798 -0.17 +0.00    +0.048 A 
ATOM     15  C8  UNL     1       6.776   5.345   1.471 -0.15 +0.00    +0.047 A 
ATOM     16  C9  UNL     1       5.542   4.878   0.992 -0.17 +0.00    +0.018 A 
ATOM     17  C10 UNL     1       4.442   4.808   1.847 -0.15 +0.00    +0.010 A 
ATOM     18  C11 UNL     1       4.563   5.185   3.190 -0.17 -0.00    -0.029 A 
ATOM     19  C12 UNL     1       5.803   5.663   3.651 -0.17 +0.00    +0.027 A 
BRANCH  15  20
ATOM     20  C17 UNL     1       7.892   5.383   0.518 -0.09 +0.00    +0.252 C 
ATOM     21  N5  UNL     1       8.810   6.380   0.734 -0.07 -0.00    -0.357 N 
ATOM     22  H36 UNL     1       8.631   7.072   1.453 +0.09 +0.00    +0.162 HD
ATOM     23  O2  UNL     1       7.935   4.548  -0.376 -0.07 -0.00    -0.268 OA
BRANCH  21  24
ATOM     24  C18 UNL     1       9.918   6.607  -0.172 -0.26 +0.00    +0.123 C 
BRANCH  24  25
ATOM     25  C19 UNL     1       9.700   7.807  -1.094 -0.34 +0.00    +0.020 C 
BRANCH  25  26
ATOM     26  C20 UNL     1      10.505   7.703  -2.395 -0.41 +0.00    +0.011 C 
BRANCH  26  27
ATOM     27  C21 UNL     1      11.297   6.397  -2.479 -0.29 +0.00    +0.105 C 
BRANCH  27  28
ATOM     28  C22 UNL     1      10.567   5.304  -3.232 -0.16 +0.00    +0.240 C 
ATOM     29  N6  UNL     1       9.384   4.926  -2.634 -0.12 -0.00    -0.237 N 
ATOM     30  H37 UNL     1       8.855   5.569  -2.054 +0.02 +0.00    +0.197 HD
ATOM     31  O3  UNL     1      10.977   4.767  -4.259 -0.50 -0.00    -0.271 OA
BRANCH  29  32
ATOM     32  O4  UNL     1       8.616   3.995  -3.376 -0.14 -0.00    -0.287 OA
ATOM     33  H40 UNL     1       8.900   4.175  -4.300 +0.08 +0.00    +0.244 HD
ENDBRANCH  29  32
ENDBRANCH  27  28
ENDBRANCH  26  27
ENDBRANCH  25  26
ENDBRANCH  24  25
ENDBRANCH  21  24
ENDBRANCH  15  20
BRANCH  18  34
ATOM     34  C13 UNL     1       3.362   5.127   4.108 -0.08 +0.00    +0.308 C 
BRANCH  34  35
ATOM     35  N4  UNL     1       3.595   5.712   5.430 -0.15 +0.00    +0.091 N 
ATOM     36  H35 UNL     1       2.688   5.922   5.845 +0.11 +0.00    +0.316 HD
BRANCH  35  37
ATOM     37  C14 UNL     1       4.341   4.847   6.357 -0.27 +0.00    +0.212 C 
ATOM     38  C15 UNL     1       3.337   4.237   7.341 -0.38 +0.00    +0.042 C 
ATOM     39  C16 UNL     1       5.427   5.587   7.138 -0.41 +0.00    +0.042 C 
ENDBRANCH  35  37
ENDBRANCH  34  35
ENDBRANCH  18  34
ENDBRANCH  11  14
ENDBRANCH   5  10
BRANCH   3  40
ATOM     40  N7  UNL     1      13.814   7.020   3.510 -0.21 -0.00    -0.309 N 
ATOM     41  C23 UNL     1      14.830   7.597   4.233 -0.35 +0.00    +0.257 C 
ATOM     42  O5  UNL     1      14.980   7.545   5.446 -0.12 -0.00    -0.267 OA
ATOM     43  H38 UNL     1      13.856   7.005   2.502 -0.43 +0.00    +0.170 HD
BRANCH  41  44
ATOM     44  C24 UNL     1      15.860   8.314   3.424 -0.49 +0.00    +0.033 A 
ATOM     45  C25 UNL     1      15.649   9.603   2.916 -0.37 +0.00    +0.034 A 
ATOM     46  C26 UNL     1      16.646  10.261   2.163 -0.44 +0.00    +0.056 A 
ATOM     47  C27 UNL     1      17.875   9.601   1.922 -0.43 -0.00    -0.025 A 
ATOM     48  C28 UNL     1      18.078   8.314   2.450 -0.22 +0.00    +0.011 A 
ATOM     49  C29 UNL     1      17.083   7.681   3.199 -0.54 +0.00    +0.017 A 
BRANCH  46  50
ATOM     50  C34 UNL     1      16.354  11.646   1.616 -0.18 +0.00    +0.418 C 
ATOM     51  F1  UNL     1      17.102  11.949   0.516 -0.12 -0.00    -0.166 F 
ATOM     52  F2  UNL     1      16.628  12.627   2.520 -0.11 -0.00    -0.166 F 
ATOM     53  F3  UNL     1      15.062  11.817   1.233 -0.04 -0.00    -0.166 F 
ENDBRANCH  46  50
BRANCH  47  54
ATOM     54  C30 UNL     1      18.985  10.232   1.113 -0.40 +0.00    +0.162 C 
BRANCH  54  55
ATOM     55  N8  UNL     1      20.267   9.672   1.467 -0.04 -0.00    -0.357 N 
ATOM     56  C31 UNL     1      21.424  10.171   0.913 -0.31 +0.00    +0.219 C 
ATOM     57  O6  UNL     1      21.437  11.045   0.052 -0.39 -0.00    -0.274 OA
ATOM     58  H39 UNL     1      20.334   9.095   2.295 +0.11 +0.00    +0.162 HD
BRANCH  56  59
ATOM     59  C32 UNL     1      22.677   9.508   1.444 -0.39 +0.00    +0.128 C 
BRANCH  59  60
ATOM     60  C33 UNL     1      23.041   8.276   0.631 -0.37 +0.00    +0.173 C 
BRANCH  60  61
ATOM     61  O7  UNL     1      23.717   8.642  -0.566 -0.22 -0.00    -0.400 OA
ATOM     62  H41 UNL     1      23.688   9.620  -0.606 +0.17 +0.00    +0.209 HD
ENDBRANCH  60  61
ENDBRANCH  59  60
ENDBRANCH  56  59
ENDBRANCH  54  55
ENDBRANCH  47  54
ENDBRANCH  41  44
ENDBRANCH   3  40
TORSDOF 20
TER
