USER    Run = 1
USER    DPF = ligand_206_receptor.dpf
USER  
USER    Estimated Free Energy of Binding    =  -10.09 kcal/mol  [=(1)+(2)+(3)-(4)]
USER    Estimated Inhibition Constant, Ki   =   40.18 nM (nanomolar)  [Temperature = 298.15 K]
USER    
USER    (1) Final Intermolecular Energy     =  -11.28 kcal/mol
USER        vdW + Hbond + desolv Energy     =  -11.28 kcal/mol
USER        Electrostatic Energy            =   +0.00 kcal/mol
USER    (2) Final Total Internal Energy     =   -3.88 kcal/mol
USER    (3) Torsional Free Energy           =   +1.19 kcal/mol
USER    (4) Unbound System's Energy  [=(2)] =   -3.88 kcal/mol
USER    
USER    
USER    NEWDPF move ligand_206.pdbqt
USER    NEWDPF about 0.000000 0.000000 0.000000
USER    NEWDPF tran0 22.098712 5.824018 0.906748
USER    NEWDPF quaternion0 -0.127973 -0.975783 0.147014 0.099282
USER    NEWDPF axisangle0 -0.128609 -0.980628 0.147744 168.604392
USER    NEWDPF quat0 -0.128609 -0.980628 0.147744 168.604392
USER    NEWDPF dihe0 154.32 -39.01 -129.61 -155.77 -175.56 35.38 -88.75 46.38 86.78 -106.64 14.18 -162.85 -121.09 -144.91 164.20 83.71 -1.32 
USER  keepresnum = 1 
USER  
REMARK  17 active torsions:
REMARK  status: ('A' for Active; 'I' for Inactive)
REMARK    1  A    between atoms: C3_3  and  N5_34 
REMARK    2  A    between atoms: C5_5  and  C6_6 
REMARK       I    between atoms: C6_6  and  N2_30 
REMARK    3  A    between atoms: C7_7  and  C8_8 
REMARK    4  A    between atoms: C7_7  and  N2_30 
REMARK    5  A    between atoms: C8_8  and  C9_9 
REMARK    6  A    between atoms: C9_9  and  N3_31 
REMARK    7  A    between atoms: C9_9  and  N4_33 
REMARK    8  A    between atoms: C10_10  and  C11_11 
REMARK       I    between atoms: C10_10  and  N5_34 
REMARK    9  A    between atoms: C13_13  and  N7_36 
REMARK   10  A    between atoms: C16_16  and  C17_17 
REMARK       I    between atoms: C16_16  and  N7_36 
REMARK   11  A    between atoms: C19_19  and  N9_38 
REMARK   12  A    between atoms: C22_22  and  C23_23 
REMARK       I    between atoms: C22_22  and  N9_38 
REMARK   13  A    between atoms: C24_24  and  N12_42 
REMARK   14  A    between atoms: C26_26  and  C27_27 
REMARK   15  A    between atoms: C26_26  and  N12_42 
REMARK   16  A    between atoms: C26_26  and  O5_49 
REMARK   17  A    between atoms: C27_27  and  N13_44 
USER                              x       y       z     vdW  Elec       q    Type
USER                           _______ _______ _______ _____ _____    ______ ____
ROOT
ATOM      1  C16 UNL     1      20.500  10.231   2.527 -0.22 +0.00    +0.273 C 
ATOM      2  N7  UNL     1      21.243   9.144   2.100 -0.04 -0.00    -0.320 N 
ATOM      3  O3  UNL     1      20.965  11.205   3.113 +0.58 -0.00    -0.266 OA
ATOM      4  H28 UNL     1      20.752   8.360   1.701 +0.74 +0.00    +0.169 HD
ENDROOT
BRANCH   2   5
ATOM      5  C13 UNL     1      22.613   8.999   2.217 -0.41 +0.00    +0.053 A 
ATOM      6  C12 UNL     1      23.344   7.846   1.833 -0.28 +0.00    +0.066 A 
ATOM      7  C11 UNL     1      24.696   8.059   2.091 -0.36 +0.00    +0.105 A 
ATOM      8  N6  UNL     1      24.779   9.341   2.609 -0.24 -0.00    -0.354 N 
ATOM      9  C14 UNL     1      23.529   9.901   2.695 -0.22 +0.00    +0.120 A 
ATOM     10  C15 UNL     1      25.992  10.014   3.026 -0.11 +0.00    +0.156 C 
BRANCH   7  11
ATOM     11  C10 UNL     1      25.846   7.183   1.869 -0.26 +0.00    +0.273 C 
ATOM     12  N5  UNL     1      27.005   7.860   1.537 -0.22 -0.00    -0.320 N 
ATOM     13  H27 UNL     1      26.956   8.859   1.405 +0.11 +0.00    +0.169 HD
ATOM     14  O2  UNL     1      25.756   5.962   1.961 -0.09 -0.00    -0.266 OA
BRANCH  12  15
ATOM     15  C3  UNL     1      28.244   7.291   1.304 -0.30 +0.00    +0.053 A 
ATOM     16  C2  UNL     1      29.440   7.564   1.921 -0.33 +0.00    +0.120 A 
ATOM     17  N1  UNL     1      30.414   6.782   1.350 -0.14 -0.00    -0.354 N 
ATOM     18  C1  UNL     1      31.821   6.915   1.662 -0.22 +0.00    +0.156 C 
ATOM     19  C5  UNL     1      29.853   5.949   0.403 -0.15 +0.00    +0.104 A 
ATOM     20  C4  UNL     1      28.509   6.295   0.336 -0.21 +0.00    +0.066 A 
BRANCH  19  21
ATOM     21  C6  UNL     1      30.512   4.947  -0.413 -0.04 +0.00    +0.268 C 
ATOM     22  N2  UNL     1      31.286   4.048   0.292 -0.02 -0.00    -0.355 N 
ATOM     23  H23 UNL     1      31.047   3.945   1.272 +0.07 +0.00    +0.162 HD
ATOM     24  O1  UNL     1      30.352   4.864  -1.625 -0.03 -0.00    -0.266 OA
BRANCH  22  25
ATOM     25  C7  UNL     1      31.809   2.862  -0.363 -0.12 +0.00    +0.130 C 
BRANCH  25  26
ATOM     26  C8  UNL     1      31.150   1.584   0.140 -0.23 +0.00    +0.089 C 
BRANCH  26  27
ATOM     27  C9  UNL     1      30.549   1.796   1.510 -0.47 +0.00    +0.049 C 
BRANCH  27  28
ATOM     28  N3  UNL     1      29.285   1.657   1.731 -0.23 -0.00    -0.393 N 
ATOM     29  H24 UNL     1      28.729   2.022   0.949 +0.05 +0.00    +0.157 HD
ATOM     30  H3  UNL     1      28.890   1.239   2.574 -0.47 +0.00    +0.157 HD
ENDBRANCH  27  28
BRANCH  27  31
ATOM     31  N4  UNL     1      31.351   2.163   2.546 -0.18 -0.00    -0.293 NA
ATOM     32  H25 UNL     1      31.769   3.074   2.369 -0.01 +0.00    +0.125 HD
ATOM     33  H26 UNL     1      30.930   2.112   3.468 -0.45 +0.00    +0.125 HD
ENDBRANCH  27  31
ENDBRANCH  26  27
ENDBRANCH  25  26
ENDBRANCH  22  25
ENDBRANCH  19  21
ENDBRANCH  12  15
ENDBRANCH   7  11
ENDBRANCH   2   5
BRANCH   1  34
ATOM     34  C17 UNL     1      19.070  10.119   2.238 -0.36 +0.00    +0.105 A 
ATOM     35  C18 UNL     1      18.118   9.240   2.748 -0.43 +0.00    +0.066 A 
ATOM     36  C19 UNL     1      16.863   9.523   2.154 -0.44 +0.00    +0.053 A 
ATOM     37  C20 UNL     1      17.065  10.566   1.286 -0.40 +0.00    +0.120 A 
ATOM     38  N8  UNL     1      18.392  10.914   1.327 -0.19 -0.00    -0.354 N 
ATOM     39  C21 UNL     1      18.969  11.980   0.533 -0.57 +0.00    +0.156 C 
BRANCH  36  40
ATOM     40  N9  UNL     1      15.690   8.852   2.422 -0.22 -0.00    -0.319 N 
ATOM     41  C22 UNL     1      15.300   8.332   3.641 -0.35 +0.00    +0.290 C 
ATOM     42  O4  UNL     1      15.935   8.379   4.689 -0.28 -0.00    -0.264 OA
ATOM     43  H29 UNL     1      15.037   8.724   1.656 -0.42 +0.00    +0.169 HD
BRANCH  41  44
ATOM     44  C23 UNL     1      13.999   7.686   3.571 -0.33 +0.00    +0.176 A 
ATOM     45  N10 UNL     1      13.231   7.393   4.611 -0.22 -0.00    -0.323 N 
ATOM     46  C24 UNL     1      12.112   6.800   4.069 -0.30 +0.00    +0.124 A 
ATOM     47  H10 UNL     1      13.426   7.568   5.597 +0.12 +0.00    +0.169 HD
ATOM     48  C25 UNL     1      12.202   6.732   2.702 -0.27 +0.00    +0.138 A 
ATOM     49  N11 UNL     1      13.403   7.299   2.395 +0.06 -0.00    -0.344 N 
ATOM     50  H30 UNL     1      13.810   7.427   1.477 -0.34 +0.00    +0.167 HD
BRANCH  46  51
ATOM     51  N12 UNL     1      11.005   6.311   4.753 -0.11 -0.00    -0.321 N 
ATOM     52  H12 UNL     1      10.309   6.945   5.147 +0.11 +0.00    +0.169 HD
BRANCH  51  53
ATOM     53  C26 UNL     1      10.885   5.026   4.874 -0.27 +0.00    +0.162 C 
BRANCH  53  54
ATOM     54  C27 UNL     1       9.579   4.316   4.606 -0.35 +0.00    +0.048 C 
ATOM     55  C28 UNL     1       8.468   5.007   4.316 -0.27 +0.00    +0.040 C 
BRANCH  54  56
ATOM     56  N13 UNL     1       9.591   2.934   4.710 -0.16 -0.00    -0.300 NA
ATOM     57  H31 UNL     1       9.075   2.514   3.933 -0.50 +0.00    +0.124 HD
ATOM     58  H32 UNL     1      10.524   2.550   4.815 -0.19 +0.00    +0.124 HD
ENDBRANCH  54  56
ENDBRANCH  53  54
BRANCH  53  59
ATOM     59  O5  UNL     1      11.872   4.180   5.237 -0.23 -0.00    -0.345 OA
ATOM     60  H33 UNL     1      11.462   3.388   5.632 +0.14 +0.00    +0.219 HD
ENDBRANCH  53  59
ENDBRANCH  51  53
ENDBRANCH  46  51
ENDBRANCH  41  44
ENDBRANCH  36  40
ENDBRANCH   1  34
TORSDOF 17
TER
