USER    Run = 1
USER    DPF = ligand_325_receptor.dpf
USER  
USER    Estimated Free Energy of Binding    = +734.70 kcal/mol  [=(1)+(2)+(3)-(4)]
USER    
USER    (1) Final Intermolecular Energy     = +733.51 kcal/mol
USER        vdW + Hbond + desolv Energy     = +733.51 kcal/mol
USER        Electrostatic Energy            =   +0.00 kcal/mol
USER    (2) Final Total Internal Energy     =  +89.58 kcal/mol
USER    (3) Torsional Free Energy           =   +1.19 kcal/mol
USER    (4) Unbound System's Energy  [=(2)] =  +89.58 kcal/mol
USER    
USER    
USER    NEWDPF move ligand_325.pdbqt
USER    NEWDPF about 0.000000 0.000000 0.000000
USER    NEWDPF tran0 23.205736 6.232045 6.146991
USER    NEWDPF quaternion0 -0.610922 -0.178732 -0.040798 -0.770172
USER    NEWDPF axisangle0 -0.957804 -0.280216 -0.063962 -79.261283
USER    NEWDPF quat0 -0.957804 -0.280216 -0.063962 -79.261283
USER    NEWDPF dihe0 131.01 101.23 156.55 30.51 -110.55 117.45 180.00 136.19 46.24 139.71 61.82 20.38 168.54 -46.33 178.08 61.16 148.81 -48.69 -69.60 77.39 -62.00 -93.12 180.00 9.69 180.00 
USER  keepresnum = 1 
USER  
REMARK  25 active torsions:
REMARK  status: ('A' for Active; 'I' for Inactive)
REMARK    1  A    between atoms: C3_3  and  N10_62 
REMARK    2  A    between atoms: C5_5  and  C6_6 
REMARK       I    between atoms: C6_6  and  N2_54 
REMARK    3  A    between atoms: C7_7  and  N2_54 
REMARK    4  A    between atoms: C9_9  and  C11_11 
REMARK       I    between atoms: C11_11  and  N4_56 
REMARK    5  A    between atoms: C12_12  and  N4_56 
REMARK    6  A    between atoms: C14_14  and  C16_16 
REMARK       I    between atoms: C16_16  and  N6_58 
REMARK    7  A    between atoms: C17_17  and  N6_58 
REMARK    8  A    between atoms: C19_19  and  C21_21 
REMARK       I    between atoms: C21_21  and  N8_60 
REMARK    9  A    between atoms: C22_22  and  C23_23 
REMARK   10  A    between atoms: C22_22  and  N8_60 
REMARK   11  A    between atoms: C23_23  and  C24_24 
REMARK   12  A    between atoms: C24_24  and  N9_61 
REMARK   13  A    between atoms: C30_30  and  C31_31 
REMARK       I    between atoms: C30_30  and  N10_62 
REMARK   14  A    between atoms: C31_31  and  C32_32 
REMARK   15  A    between atoms: C32_32  and  C33_33 
REMARK   16  A    between atoms: C33_33  and  N11_63 
REMARK   17  A    between atoms: C34_34  and  C35_35 
REMARK       I    between atoms: C34_34  and  N11_63 
REMARK   18  A    between atoms: C36_36  and  N14_67 
REMARK   19  A    between atoms: C39_39  and  C40_40 
REMARK       I    between atoms: C39_39  and  N14_67 
REMARK   20  A    between atoms: C40_40  and  C41_41 
REMARK   21  A    between atoms: C41_41  and  N15_68 
REMARK   22  A    between atoms: C42_42  and  C43_43 
REMARK       I    between atoms: C42_42  and  N15_68 
REMARK   23  A    between atoms: C44_44  and  N18_72 
REMARK   24  A    between atoms: C47_47  and  C48_48 
REMARK       I    between atoms: C47_47  and  N18_72 
REMARK   25  A    between atoms: C50_50  and  N20_74 
USER                              x       y       z     vdW  Elec       q    Type
USER                           _______ _______ _______ _____ _____    ______ ____
ROOT
ATOM      1  C30 UNL     1      26.061   9.048   3.311 -0.39 +0.00    +0.222 C 
ATOM      2  N10 UNL     1      24.964   9.630   2.698 -0.30 -0.00    -0.326 N 
ATOM      3  O5  UNL     1      26.091   7.943   3.843 -0.46 -0.00    -0.273 OA
ATOM      4  H60 UNL     1      25.065  10.546   2.282 +0.13 +0.00    +0.169 HD
ENDROOT
BRANCH   2   5
ATOM      5  C3  UNL     1      23.719   9.044   2.589 -0.46 +0.00    +0.052 A 
ATOM      6  C2  UNL     1      23.428   7.805   3.103 +3.27 +0.00    +0.120 A 
ATOM      7  N1  UNL     1      22.114   7.520   2.822 +2.56 -0.00    -0.354 N 
ATOM      8  C1  UNL     1      21.454   6.292   3.219+83.31 +0.00    +0.156 C 
ATOM      9  C5  UNL     1      21.530   8.569   2.130 +1.71 +0.00    +0.105 A 
ATOM     10  C4  UNL     1      22.535   9.520   1.977 -0.37 +0.00    +0.066 A 
BRANCH   9  11
ATOM     11  C6  UNL     1      20.138   8.592   1.677+46.86 +0.00    +0.273 C 
ATOM     12  N2  UNL     1      19.987   8.519   0.304+99.99 -0.00    -0.320 N 
ATOM     13  H56 UNL     1      20.815   8.493  -0.274 +0.46 +0.00    +0.169 HD
ATOM     14  O1  UNL     1      19.200   8.681   2.467 +0.07 -0.00    -0.266 OA
BRANCH  12  15
ATOM     15  C7  UNL     1      18.782   8.511  -0.370+22.99 +0.00    +0.053 A 
ATOM     16  C8  UNL     1      18.518   9.345  -1.428+38.40 +0.00    +0.120 A 
ATOM     17  N3  UNL     1      17.245   9.086  -1.874 +0.35 -0.00    -0.354 N 
ATOM     18  C9  UNL     1      16.661   8.087  -1.111 -0.28 +0.00    +0.105 A 
ATOM     19  C29 UNL     1      16.622   9.784  -2.981+84.56 +0.00    +0.156 C 
ATOM     20  C10 UNL     1      17.626   7.720  -0.176+38.93 +0.00    +0.066 A 
BRANCH  18  21
ATOM     21  C11 UNL     1      15.306   7.572  -1.320+18.75 +0.00    +0.273 C 
ATOM     22  N4  UNL     1      14.412   7.921  -0.323 +0.74 -0.00    -0.320 N 
ATOM     23  H57 UNL     1      14.740   8.510   0.427 -0.47 +0.00    +0.169 HD
ATOM     24  O2  UNL     1      15.016   6.899  -2.305+12.57 -0.00    -0.266 OA
BRANCH  22  25
ATOM     25  C12 UNL     1      13.076   7.567  -0.264 +4.79 +0.00    +0.053 A 
ATOM     26  C13 UNL     1      12.135   7.611  -1.260 +4.11 +0.00    +0.120 A 
ATOM     27  N5  UNL     1      10.937   7.180  -0.747 -0.10 -0.00    -0.354 N 
ATOM     28  C14 UNL     1      11.084   6.822   0.582 -0.21 +0.00    +0.105 A 
ATOM     29  C28 UNL     1       9.715   7.102  -1.521 -0.29 +0.00    +0.156 C 
ATOM     30  C15 UNL     1      12.417   7.076   0.893 +0.52 +0.00    +0.066 A 
BRANCH  28  31
ATOM     31  C16 UNL     1      10.001   6.313   1.423 -0.17 +0.00    +0.273 C 
ATOM     32  N6  UNL     1       8.899   7.147   1.481 -0.14 -0.00    -0.320 N 
ATOM     33  H58 UNL     1       8.948   8.042   1.020 +0.10 +0.00    +0.169 HD
ATOM     34  O3  UNL     1      10.097   5.251   2.030 -0.07 -0.00    -0.266 OA
BRANCH  32  35
ATOM     35  C17 UNL     1       7.736   6.889   2.180 -0.30 +0.00    +0.053 A 
ATOM     36  C18 UNL     1       6.487   7.123   1.653 -0.31 +0.00    +0.120 A 
ATOM     37  N7  UNL     1       5.548   6.747   2.584 -0.12 -0.00    -0.354 N 
ATOM     38  C19 UNL     1       6.174   6.317   3.736 +0.31 +0.00    +0.104 A 
ATOM     39  C27 UNL     1       4.123   6.733   2.326 +0.67 +0.00    +0.156 C 
ATOM     40  C20 UNL     1       7.538   6.359   3.475 -0.17 +0.00    +0.066 A 
BRANCH  38  41
ATOM     41  C21 UNL     1       5.547   5.858   4.960 +0.02 +0.00    +0.268 C 
ATOM     42  N8  UNL     1       6.145   4.742   5.511 -0.12 -0.00    -0.356 N 
ATOM     43  H59 UNL     1       6.655   4.169   4.852 +0.07 +0.00    +0.162 HD
ATOM     44  O4  UNL     1       4.549   6.382   5.442 -0.05 -0.00    -0.266 OA
BRANCH  42  45
ATOM     45  C22 UNL     1       5.503   4.011   6.585 -0.40 +0.00    +0.125 C 
BRANCH  45  46
ATOM     46  C23 UNL     1       4.721   2.796   6.088 +0.04 +0.00    +0.050 C 
BRANCH  46  47
ATOM     47  C24 UNL     1       4.308   2.840   4.609 -0.16 +0.00    +0.273 C 
BRANCH  47  48
ATOM     48  N9  UNL     1       5.061   1.930   3.733 -0.26 +0.00    +0.080 N 
ATOM     49  C25 UNL     1       6.494   2.231   3.803 +0.12 +0.00    +0.309 C 
ATOM     50  C26 UNL     1       4.839   0.525   4.088 -0.20 +0.00    +0.309 C 
ENDBRANCH  47  48
ENDBRANCH  46  47
ENDBRANCH  45  46
ENDBRANCH  42  45
ENDBRANCH  38  41
ENDBRANCH  32  35
ENDBRANCH  28  31
ENDBRANCH  22  25
ENDBRANCH  18  21
ENDBRANCH  12  15
ENDBRANCH   9  11
ENDBRANCH   2   5
BRANCH   1  51
ATOM     51  C31 UNL     1      27.271   9.967   3.271 +7.00 +0.00    +0.105 C 
BRANCH  51  52
ATOM     52  C32 UNL     1      28.568   9.234   3.606+22.63 +0.00    +0.029 C 
BRANCH  52  53
ATOM     53  C33 UNL     1      28.317   7.748   3.838+73.18 +0.00    +0.123 C 
BRANCH  53  54
ATOM     54  N11 UNL     1      28.415   6.996   2.611 +2.65 -0.00    -0.354 N 
ATOM     55  C34 UNL     1      29.119   7.441   1.512 -0.26 +0.00    +0.285 C 
ATOM     56  O6  UNL     1      29.797   8.464   1.528 -0.04 -0.00    -0.264 OA
ATOM     57  H61 UNL     1      27.825   6.183   2.453 +4.46 +0.00    +0.162 HD
BRANCH  55  58
ATOM     58  C35 UNL     1      28.964   6.577   0.351 -0.16 +0.00    +0.178 A 
ATOM     59  N12 UNL     1      29.473   5.351   0.286 -0.07 -0.00    -0.323 N 
ATOM     60  C36 UNL     1      29.114   4.869  -0.942 -0.11 +0.00    +0.125 A 
ATOM     61  H12 UNL     1      30.018   4.871   1.001 +0.07 +0.00    +0.169 HD
ATOM     62  C37 UNL     1      28.381   5.794  -1.640 -0.17 +0.00    +0.140 A 
ATOM     63  N13 UNL     1      28.289   6.875  -0.810 -0.12 -0.00    -0.339 N 
ATOM     64  C38 UNL     1      27.600   8.107  -1.107 +0.99 +0.00    +0.157 C 
BRANCH  60  65
ATOM     65  N14 UNL     1      29.506   3.606  -1.292 -0.04 -0.00    -0.312 N 
ATOM     66  C39 UNL     1      30.664   2.982  -0.875 -0.09 +0.00    +0.224 C 
ATOM     67  O7  UNL     1      31.509   3.454  -0.122 -0.06 -0.00    -0.273 OA
ATOM     68  H62 UNL     1      28.863   3.133  -1.911 +0.07 +0.00    +0.170 HD
BRANCH  66  69
ATOM     69  C40 UNL     1      30.782   1.586  -1.455 -0.18 +0.00    +0.123 C 
BRANCH  69  70
ATOM     70  C41 UNL     1      29.545   1.200  -2.250 +0.66 +0.00    +0.132 C 
BRANCH  70  71
ATOM     71  N15 UNL     1      28.460   2.127  -2.009 -0.04 -0.00    -0.354 N 
ATOM     72  C42 UNL     1      27.239   2.025  -2.642 -0.03 +0.00    +0.285 C 
ATOM     73  O8  UNL     1      27.032   1.276  -3.593 -0.23 -0.00    -0.264 OA
ATOM     74  H63 UNL     1      28.427   2.666  -1.143 +0.03 +0.00    +0.162 HD
BRANCH  72  75
ATOM     75  C43 UNL     1      26.235   2.890  -2.047 -0.02 +0.00    +0.178 A 
ATOM     76  N16 UNL     1      26.379   4.205  -1.978 -0.20 -0.00    -0.323 N 
ATOM     77  C44 UNL     1      25.262   4.678  -1.362 -0.39 +0.00    +0.125 A 
ATOM     78  H16 UNL     1      27.168   4.753  -2.320 +0.08 +0.00    +0.169 HD
ATOM     79  C45 UNL     1      24.412   3.648  -1.037 +1.60 +0.00    +0.140 A 
ATOM     80  N17 UNL     1      25.043   2.515  -1.477 +2.66 -0.00    -0.339 N 
ATOM     81  C46 UNL     1      24.540   1.167  -1.362+42.63 +0.00    +0.157 C 
BRANCH  77  82
ATOM     82  N18 UNL     1      25.023   6.002  -1.096 -0.25 -0.00    -0.306 N 
ATOM     83  C47 UNL     1      23.807   6.633  -1.269 -0.41 +0.00    +0.274 C 
ATOM     84  O9  UNL     1      22.778   6.084  -1.652 +0.95 -0.00    -0.266 OA
ATOM     85  H64 UNL     1      25.795   6.524  -0.717 +0.11 +0.00    +0.170 HD
BRANCH  83  86
ATOM     86  C48 UNL     1      23.832   8.057  -0.928 -0.37 +0.00    +0.105 A 
ATOM     87  C49 UNL     1      23.352   9.157  -1.636+11.76 +0.00    +0.066 A 
ATOM     88  C50 UNL     1      23.611  10.330  -0.888+10.07 +0.00    +0.054 A 
ATOM     89  C51 UNL     1      24.235   9.937   0.268 +8.25 +0.00    +0.120 A 
ATOM     90  N19 UNL     1      24.357   8.571   0.248 -0.13 -0.00    -0.354 N 
ATOM     91  C52 UNL     1      24.969   7.801   1.311 -0.37 +0.00    +0.156 C 
BRANCH  88  92
ATOM     92  N20 UNL     1      23.333  11.620  -1.170 +1.11 -0.00    -0.328 N 
ATOM     93  I1  UNL     1      21.820  12.631  -0.405+33.37 +0.00    +0.057 I 
ATOM     94  H65 UNL     1      23.944  12.123  -1.808 +0.24 +0.00    +0.172 HD
ENDBRANCH  88  92
ENDBRANCH  83  86
ENDBRANCH  77  82
ENDBRANCH  72  75
ENDBRANCH  70  71
ENDBRANCH  69  70
ENDBRANCH  66  69
ENDBRANCH  60  65
ENDBRANCH  55  58
ENDBRANCH  53  54
ENDBRANCH  52  53
ENDBRANCH  51  52
ENDBRANCH   1  51
TORSDOF 25
TER
