USER    Run = 1
USER    DPF = ligand_461_receptor.dpf
USER  
USER    Estimated Free Energy of Binding    =  +3.28e+005 kcal/mol  [=(1)+(2)+(3)-(4)]
USER    
USER    (1) Final Intermolecular Energy     =  +3.28e+005 kcal/mol
USER        vdW + Hbond + desolv Energy     =  +2.95e+005 kcal/mol
USER        Electrostatic Energy            =  +3.29e+004 kcal/mol
USER    (2) Final Total Internal Energy     =   +0.00 kcal/mol
USER    (3) Torsional Free Energy           =   +1.19 kcal/mol
USER    (4) Unbound System's Energy  [=(2)] =   +0.00 kcal/mol
USER    
USER    
USER    NEWDPF move ligand_461.pdbqt
USER    NEWDPF about 0.000000 0.000000 0.000000
USER    NEWDPF tran0 21.284657 7.514018 2.211029
USER    NEWDPF quaternion0 0.182570 0.038367 0.913424 -0.361735
USER    NEWDPF axisangle0 0.195832 0.041154 0.979774 -137.586402
USER    NEWDPF quat0 0.195832 0.041154 0.979774 -137.586402
USER  keepresnum = 1 
USER  
REMARK  0 active torsions:
REMARK  status: ('A' for Active; 'I' for Inactive)
REMARK       I    between atoms: C6_6  and  O2_77 
REMARK       I    between atoms: C10_10  and  O12_87 
REMARK       I    between atoms: C11_11  and  O11_86 
REMARK       I    between atoms: C12_12  and  O10_85 
REMARK       I    between atoms: C15_15  and  O9_84 
REMARK       I    between atoms: C16_16  and  O8_83 
REMARK       I    between atoms: C17_17  and  O7_82 
REMARK       I    between atoms: C24_24  and  O48_123 
REMARK       I    between atoms: C25_25  and  O47_122 
REMARK       I    between atoms: C26_26  and  O46_121 
REMARK       I    between atoms: C29_29  and  O45_120 
REMARK       I    between atoms: C30_30  and  O44_119 
REMARK       I    between atoms: C31_31  and  O17_92 
REMARK       I    between atoms: C35_35  and  O17_92 
REMARK       I    between atoms: C36_36  and  O43_118 
REMARK       I    between atoms: C37_37  and  O42_117 
REMARK       I    between atoms: C38_38  and  O41_116 
REMARK       I    between atoms: C40_40  and  C41_41 
REMARK       I    between atoms: C41_41  and  O19_94 
REMARK       I    between atoms: C42_42  and  O19_94 
REMARK       I    between atoms: C43_43  and  O36_111 
REMARK       I    between atoms: C44_44  and  O31_106 
REMARK       I    between atoms: C51_51  and  O30_105 
REMARK       I    between atoms: C52_52  and  O29_104 
REMARK       I    between atoms: C53_53  and  O28_103 
REMARK       I    between atoms: C56_56  and  O27_102 
REMARK       I    between atoms: C57_57  and  O26_101 
REMARK       I    between atoms: C58_58  and  O25_100 
REMARK       I    between atoms: C62_62  and  C63_63 
REMARK       I    between atoms: C62_62  and  O31_106 
REMARK       I    between atoms: C65_65  and  O35_110 
REMARK       I    between atoms: C66_66  and  O34_109 
REMARK       I    between atoms: C67_67  and  O33_108 
REMARK       I    between atoms: C69_69  and  C70_70 
REMARK       I    between atoms: C69_69  and  O36_111 
REMARK       I    between atoms: C72_72  and  O40_115 
REMARK       I    between atoms: C73_73  and  O39_114 
REMARK       I    between atoms: C74_74  and  O38_113 
USER                              x       y       z     vdW  Elec       q    Type
USER                           _______ _______ _______ _____ _____    ______ ____
ROOT
ATOM      1  C1  UNL     1      20.411  13.052   2.786 +3.62 +0.00    +0.213 C 
ATOM      2  C2  UNL     1      19.372  11.976   2.408 -0.26 +0.00    +0.181 C 
ATOM      3  C3  UNL     1      19.353  10.754   3.343 +5.43 +0.00    +0.195 C 
ATOM      4  C4  UNL     1      18.182   9.836   2.951 -0.36 +0.00    +0.198 C 
ATOM      5  C5  UNL     1      18.300   9.497   1.448 -0.22 +0.00    +0.219 C 
ATOM      6  C6  UNL     1      18.534  10.736   0.561 -0.35 +0.00    +0.289 C 
ATOM      7  C7  UNL     1      15.971   8.901   1.281 -0.19 +0.00    +0.295 C 
ATOM      8  C8  UNL     1      15.266   7.611   1.390+45.19 +0.00    +0.056 A 
ATOM      9  C9  UNL     1      15.280   6.748   0.278+99.99 +0.00    +0.058 A 
ATOM     10  C10 UNL     1      14.623   5.533   0.362+99.99 +0.00    +0.102 A 
ATOM     11  C11 UNL     1      13.934   5.198   1.519+99.99 +0.00    +0.133 A 
ATOM     12  C12 UNL     1      13.930   6.053   2.621+54.53 +0.00    +0.114 A 
ATOM     13  C13 UNL     1      14.626   7.269   2.610+18.69 +0.00    +0.030 A 
ATOM     14  C14 UNL     1      14.737   8.116   3.834 -0.47 +0.00    +0.030 A 
ATOM     15  C15 UNL     1      13.609   8.695   4.445 +0.09 +0.00    +0.114 A 
ATOM     16  C16 UNL     1      13.736   9.578   5.521 +8.43 +0.00    +0.133 A 
ATOM     17  C17 UNL     1      14.979   9.869   6.059+39.25 +0.00    +0.102 A 
ATOM     18  C18 UNL     1      16.111   9.278   5.536+75.68 +0.00    +0.058 A 
ATOM     19  C19 UNL     1      15.994   8.428   4.422 -0.25 +0.00    +0.056 A 
ATOM     20  C20 UNL     1      17.241   7.782   3.959 -0.31 +0.00    +0.294 C 
ATOM     21  C21 UNL     1      20.068  10.633   5.590+99.99 +0.00    +0.294 C 
ATOM     22  C22 UNL     1      20.100  11.479   6.798+99.99 +0.00    +0.056 A 
ATOM     23  C23 UNL     1      18.879  11.723   7.454+15.97 +0.00    +0.058 A 
ATOM     24  C24 UNL     1      18.860  12.488   8.611+23.34 +0.00    +0.102 A 
ATOM     25  C25 UNL     1      20.046  13.022   9.097 -0.31 +0.00    +0.133 A 
ATOM     26  C26 UNL     1      21.259  12.800   8.430 +2.07 +0.00    +0.114 A 
ATOM     27  C27 UNL     1      21.329  12.008   7.268+15.24 +0.00    +0.030 A 
ATOM     28  C28 UNL     1      22.627  11.753   6.582+99.99 +0.00    +0.030 A 
ATOM     29  C29 UNL     1      23.652  11.010   7.195+99.99 +0.00    +0.114 A 
ATOM     30  C30 UNL     1      24.895  10.804   6.573+99.99 +0.00    +0.134 A 
ATOM     31  C31 UNL     1      25.148  11.306   5.299+99.99 +0.00    +0.113 A 
ATOM     32  C32 UNL     1      24.150  12.040   4.659+27.00 +0.00    +0.058 A 
ATOM     33  C33 UNL     1      22.913  12.257   5.289+99.99 +0.00    +0.056 A 
ATOM     34  C34 UNL     1      21.936  13.104   4.584+57.16 +0.00    +0.294 C 
ATOM     35  C35 UNL     1      27.046  10.045   4.681+99.99 +0.00    +0.128 A 
ATOM     36  C36 UNL     1      28.321  10.083   5.257+99.99 +0.00    +0.137 A 
ATOM     37  C37 UNL     1      29.117   8.946   5.283+99.99 +0.00    +0.135 A 
ATOM     38  C38 UNL     1      28.651   7.756   4.743+99.99 +0.00    +0.102 A 
ATOM     39  C39 UNL     1      27.382   7.687   4.185+99.99 +0.00    +0.060 A 
ATOM     40  C40 UNL     1      26.587   8.844   4.119+15.02 +0.00    +0.079 A 
ATOM     41  C41 UNL     1      25.350   8.801   3.314 -0.42 +0.00    +0.298 C 
ATOM     42  C42 UNL     1      23.611   7.376   2.653 +5.65 +0.00    +0.302 C 
ATOM     43  C43 UNL     1      24.096   6.602   1.384 -0.18 +0.00    +0.220 C 
ATOM     44  C44 UNL     1      23.782   5.108   1.579 +0.47 +0.00    +0.198 C 
ATOM     45  C45 UNL     1      22.257   4.940   1.685+21.56 +0.00    +0.195 C 
ATOM     46  C46 UNL     1      21.639   6.047   2.561+99.99 +0.00    +0.181 C 
ATOM     47  C47 UNL     1      20.477   5.532   3.418+99.99 +0.00    +0.213 C 
ATOM     48  C48 UNL     1      18.870   5.139   1.678+99.99 +0.00    +0.294 C 
ATOM     49  C49 UNL     1      18.080   4.021   1.110+99.99 +0.00    +0.056 A 
ATOM     50  C50 UNL     1      17.335   3.252   2.030+20.25 +0.00    +0.058 A 
ATOM     51  C51 UNL     1      16.617   2.159   1.586+99.99 +0.00    +0.102 A 
ATOM     52  C52 UNL     1      16.626   1.825   0.243+99.99 +0.00    +0.133 A 
ATOM     53  C53 UNL     1      17.338   2.594  -0.681+61.11 +0.00    +0.114 A 
ATOM     54  C54 UNL     1      18.088   3.725  -0.283+99.99 +0.00    +0.030 A 
ATOM     55  C55 UNL     1      18.832   4.537  -1.289+99.99 +0.00    +0.030 A 
ATOM     56  C56 UNL     1      18.141   5.217  -2.310+99.99 +0.00    +0.114 A 
ATOM     57  C57 UNL     1      18.807   5.985  -3.267+36.42 +0.00    +0.133 A 
ATOM     58  C58 UNL     1      20.187   6.111  -3.247+99.99 +0.00    +0.102 A 
ATOM     59  C59 UNL     1      20.917   5.463  -2.268+99.99 +0.00    +0.058 A 
ATOM     60  C60 UNL     1      20.242   4.687  -1.298+99.99 +0.00    +0.056 A 
ATOM     61  C61 UNL     1      21.080   4.090  -0.241+99.99 +0.00    +0.294 C 
ATOM     62  C62 UNL     1      25.455   3.749   0.556 +1.74 +0.00    +0.294 C 
ATOM     63  C63 UNL     1      25.655   2.840  -0.595+99.99 +0.00    +0.045 A 
ATOM     64  C64 UNL     1      24.581   2.093  -1.113+27.43 +0.00    +0.057 A 
ATOM     65  C65 UNL     1      24.804   1.243  -2.190+70.80 +0.00    +0.102 A 
ATOM     66  C66 UNL     1      26.075   1.137  -2.744 +0.16 +0.00    +0.132 A 
ATOM     67  C67 UNL     1      27.134   1.869  -2.220 +0.98 +0.00    +0.102 A 
ATOM     68  C68 UNL     1      26.941   2.719  -1.140+26.87 +0.00    +0.057 A 
ATOM     69  C69 UNL     1      25.907   6.964  -0.127 -0.24 +0.00    +0.294 C 
ATOM     70  C70 UNL     1      27.374   7.195  -0.161 -0.31 +0.00    +0.045 A 
ATOM     71  C71 UNL     1      28.210   6.735   0.867 -0.22 +0.00    +0.057 A 
ATOM     72  C72 UNL     1      29.568   7.022   0.822 -0.24 +0.00    +0.102 A 
ATOM     73  C73 UNL     1      30.106   7.723  -0.256 -0.16 +0.00    +0.132 A 
ATOM     74  C74 UNL     1      29.283   8.153  -1.294 -0.04 +0.00    +0.102 A 
ATOM     75  C75 UNL     1      27.914   7.893  -1.251 +0.29 +0.00    +0.057 A 
ATOM     76  O1  UNL     1      19.611  11.532   1.058 -0.34 -0.00    -0.349 OA
ATOM     77  O2  UNL     1      17.394  11.559   0.438 -0.17 -0.00    -0.368 OA
ATOM     78  O3  UNL     1      17.252   8.624   0.968 -0.32 -0.00    -0.304 OA
ATOM     79  O4  UNL     1      15.496   9.965   1.628 -0.09 -0.00    -0.259 OA
ATOM     80  O5  UNL     1      17.318   6.562   3.895 +3.86 -0.00    -0.259 OA
ATOM     81  O6  UNL     1      18.301   8.598   3.726 -0.36 -0.00    -0.306 OA
ATOM     82  O7  UNL     1      15.090  10.721   7.121 +5.47 -0.00    -0.358 OA
ATOM     83  O8  UNL     1      12.625  10.155   6.079+99.99 -0.00    -0.356 OA
ATOM     84  O9  UNL     1      12.321   8.422   4.050 -0.23 -0.00    -0.357 OA
ATOM     85  O10 UNL     1      13.202   5.678   3.724 +5.30 -0.00    -0.357 OA
ATOM     86  O11 UNL     1      13.258   4.011   1.607+99.99 -0.00    -0.356 OA
ATOM     87  O12 UNL     1      14.625   4.637  -0.668+99.99 -0.00    -0.358 OA
ATOM     88  O13 UNL     1      19.207  11.196   4.706+99.99 -0.00    -0.307 OA
ATOM     89  O14 UNL     1      20.800   9.678   5.413+99.99 -0.00    -0.259 OA
ATOM     90  O15 UNL     1      21.503  14.140   5.054+99.99 -0.00    -0.259 OA
ATOM     91  O16 UNL     1      21.559  12.483   3.440 +7.76 -0.00    -0.315 OA
ATOM     92  O17 UNL     1      26.350  11.230   4.631+89.33 -0.00    -0.304 OA
ATOM     93  O18 UNL     1      25.013   9.676   2.532 -0.47 -0.00    -0.259 OA
ATOM     94  O19 UNL     1      24.711   7.629   3.536 +0.52 -0.00    -0.283 OA
ATOM     95  O20 UNL     1      22.637   6.626   3.402+99.99 -0.00    -0.348 OA
ATOM     96  O21 UNL     1      19.580   4.649   2.724+99.99 -0.00    -0.315 OA
ATOM     97  O22 UNL     1      18.959   6.249   1.185+99.99 -0.00    -0.259 OA
ATOM     98  O23 UNL     1      21.132   2.913   0.049+99.99 -0.00    -0.259 OA
ATOM     99  O24 UNL     1      21.672   5.136   0.373+14.79 -0.00    -0.307 OA
ATOM    100  O25 UNL     1      20.772   6.881  -4.209+99.99 -0.00    -0.358 OA
ATOM    101  O26 UNL     1      18.064   6.608  -4.234+56.99 -0.00    -0.356 OA
ATOM    102  O27 UNL     1      16.771   5.129  -2.426+99.99 -0.00    -0.357 OA
ATOM    103  O28 UNL     1      17.238   2.157  -1.982+99.99 -0.00    -0.357 OA
ATOM    104  O29 UNL     1      15.907   0.735  -0.170 +9.81 -0.00    -0.356 OA
ATOM    105  O30 UNL     1      15.904   1.411   2.475+96.62 -0.00    -0.358 OA
ATOM    106  O31 UNL     1      24.219   4.290   0.472 -0.47 -0.00    -0.306 OA
ATOM    107  O32 UNL     1      26.294   3.979   1.408+99.99 -0.00    -0.259 OA
ATOM    108  O33 UNL     1      28.379   1.754  -2.764 -0.10 -0.00    -0.358 OA
ATOM    109  O34 UNL     1      26.302   0.305  -3.807 -0.19 -0.00    -0.356 OA
ATOM    110  O35 UNL     1      23.802   0.488  -2.732+99.99 -0.00    -0.358 OA
ATOM    111  O36 UNL     1      25.503   6.818   1.156 -0.21 -0.00    -0.304 OA
ATOM    112  O37 UNL     1      25.194   6.949  -1.117 -0.32 -0.00    -0.259 OA
ATOM    113  O38 UNL     1      29.826   8.836  -2.345 -0.08 -0.00    -0.358 OA
ATOM    114  O39 UNL     1      31.450   7.981  -0.274 -0.05 -0.00    -0.356 OA
ATOM    115  O40 UNL     1      30.417   6.639   1.826 -0.22 -0.00    -0.358 OA
ATOM    116  O41 UNL     1      29.459   6.656   4.705+99.99 -0.00    -0.358 OA
ATOM    117  O42 UNL     1      30.373   8.980   5.824+99.99 -0.00    -0.356 OA
ATOM    118  O43 UNL     1      28.836  11.231   5.804+99.99 -0.00    -0.356 OA
ATOM    119  O44 UNL     1      25.860  10.133   7.275+99.99 -0.00    -0.356 OA
ATOM    120  O45 UNL     1      23.537  10.456   8.450 +9.34 -0.00    -0.357 OA
ATOM    121  O46 UNL     1      22.360  13.399   8.998+37.06 -0.00    -0.357 OA
ATOM    122  O47 UNL     1      20.047  13.780  10.237 -0.58 -0.00    -0.356 OA
ATOM    123  O48 UNL     1      17.686  12.715   9.268+99.99 -0.00    -0.358 OA
ATOM    124  H26 UNL     1      17.502  12.058  -0.387 +0.81 +0.00    +0.212 HD
ATOM    125  H27 UNL     1      14.163  10.978   7.315 +0.20 +0.00    +0.217 HD
ATOM    126  H28 UNL     1      11.884   9.820   5.530+22.47 +0.00    +0.218 HD
ATOM    127  H29 UNL     1      12.321   7.489   3.749 +0.14 +0.00    +0.217 HD
ATOM    128  H30 UNL     1      12.945   4.747   3.543+24.64 +0.00    +0.217 HD
ATOM    129  H31 UNL     1      13.463   3.548   0.766+99.99 +0.00    +0.218 HD
ATOM    130  H32 UNL     1      15.365   4.860  -1.270+99.99 +0.00    +0.217 HD
ATOM    131  H33 UNL     1      21.734   6.912  -4.048 +4.02 +0.00    +0.217 HD
ATOM    132  H34 UNL     1      18.723   7.082  -4.784+99.99+99.99    +0.218 HD
ATOM    133  H35 UNL     1      16.566   5.680  -3.218+87.36 +0.00    +0.217 HD
ATOM    134  H36 UNL     1      17.484   2.887  -2.575+18.39 +0.00    +0.217 HD
ATOM    135  H37 UNL     1      16.086   0.680  -1.132 +0.10 +0.00    +0.218 HD
ATOM    136  H38 UNL     1      15.511   0.690   1.942+17.18 +0.00    +0.217 HD
ATOM    137  H39 UNL     1      28.278   1.104  -3.489 -0.00 +0.00    +0.217 HD
ATOM    138  H40 UNL     1      25.432  -0.108  -3.983 +0.12 +0.00    +0.218 HD
ATOM    139  H41 UNL     1      23.001   0.602  -2.186+48.26 +0.00    +0.217 HD
ATOM    140  H42 UNL     1      29.139   9.025  -3.001 +0.12 +0.00    +0.217 HD
ATOM    141  H43 UNL     1      31.792   7.565   0.542 +0.08 +0.00    +0.218 HD
ATOM    142  H44 UNL     1      29.888   6.349   2.597 +0.10 +0.00    +0.217 HD
ATOM    143  H45 UNL     1      30.258   6.926   5.207+99.99 +0.00    +0.217 HD
ATOM    144  H46 UNL     1      30.481   9.907   6.124+99.99 +0.00    +0.218 HD
ATOM    145  H47 UNL     1      28.111  11.886   5.784 +6.29 +0.00    +0.218 HD
ATOM    146  H48 UNL     1      25.426   9.859   8.111+28.29 +0.00    +0.218 HD
ATOM    147  H49 UNL     1      22.617  10.524   8.763 +0.14 +0.00    +0.217 HD
ATOM    148  H50 UNL     1      23.075  13.453   8.339+15.43 +0.00    +0.217 HD
ATOM    149  H51 UNL     1      20.974  14.064  10.359 +0.14 +0.00    +0.218 HD
ATOM    150  H52 UNL     1      16.954  12.281   8.796 +6.88 +0.00    +0.217 HD
ENDROOT
TORSDOF 38
TER
