USER    Run = 1
USER    DPF = ligand_125_receptor.dpf
USER  
USER    Estimated Free Energy of Binding    = +126.40 kcal/mol  [=(1)+(2)+(3)-(4)]
USER    
USER    (1) Final Intermolecular Energy     = +125.20 kcal/mol
USER        vdW + Hbond + desolv Energy     = +125.20 kcal/mol
USER        Electrostatic Energy            =   +0.00 kcal/mol
USER    (2) Final Total Internal Energy     =  +28.92 kcal/mol
USER    (3) Torsional Free Energy           =   +1.19 kcal/mol
USER    (4) Unbound System's Energy  [=(2)] =  +28.92 kcal/mol
USER    
USER    
USER    NEWDPF move ligand_125.pdbqt
USER    NEWDPF about 0.000000 0.000000 0.000000
USER    NEWDPF tran0 20.885247 5.878589 3.552463
USER    NEWDPF quaternion0 -0.130945 -0.308082 0.479387 0.811251
USER    NEWDPF axisangle0 -0.223952 -0.526907 0.819887 71.563418
USER    NEWDPF quat0 -0.223952 -0.526907 0.819887 71.563418
USER    NEWDPF dihe0 -180.00 -14.95 136.73 70.51 -172.46 -166.51 140.51 -130.11 -180.00 158.51 137.92 79.51 177.94 32.62 -5.27 70.84 -129.95 165.24 93.95 -134.74 -119.20 -52.99 169.69 180.00 -95.75 -175.70 -176.90 
USER  keepresnum = 1 
USER  
REMARK  27 active torsions:
REMARK  status: ('A' for Active; 'I' for Inactive)
REMARK    1  A    between atoms: C2_2  and  C4_4 
REMARK    2  A    between atoms: C4_4  and  C5_5 
REMARK    3  A    between atoms: C4_4  and  N9_64 
REMARK       I    between atoms: C5_5  and  N1_55 
REMARK    4  A    between atoms: C6_6  and  C7_7 
REMARK    5  A    between atoms: C6_6  and  C11_11 
REMARK    6  A    between atoms: C6_6  and  N1_55 
REMARK    7  A    between atoms: C7_7  and  C8_8 
REMARK    8  A    between atoms: C8_8  and  C9_9 
REMARK    9  A    between atoms: C9_9  and  N2_56 
REMARK       I    between atoms: C10_10  and  N3_58 
REMARK       I    between atoms: C10_10  and  N4_59 
REMARK       I    between atoms: C11_11  and  N5_60 
REMARK   10  A    between atoms: C12_12  and  N5_60 
REMARK   11  A    between atoms: C15_15  and  C18_18 
REMARK       I    between atoms: C18_18  and  N6_61 
REMARK   12  A    between atoms: C20_20  and  C30_30 
REMARK   13  A    between atoms: C24_24  and  C29_29 
REMARK   14  A    between atoms: C26_26  and  O4_45 
REMARK       I    between atoms: C29_29  and  N8_63 
REMARK   15  A    between atoms: C31_31  and  C32_32 
REMARK       I    between atoms: C31_31  and  N9_64 
REMARK   16  A    between atoms: C32_32  and  C33_33 
REMARK   17  A    between atoms: C33_33  and  C34_34 
REMARK   18  A    between atoms: C34_34  and  C35_35 
REMARK   19  A    between atoms: C34_34  and  N10_65 
REMARK   20  A    between atoms: C35_35  and  O8_49 
REMARK       I    between atoms: C36_36  and  N10_65 
REMARK       I    between atoms: C36_36  and  N11_66 
REMARK   21  A    between atoms: C37_37  and  C38_38 
REMARK   22  A    between atoms: C37_37  and  C41_41 
REMARK   23  A    between atoms: C37_37  and  N11_66 
REMARK   24  A    between atoms: C38_38  and  C39_39 
REMARK   25  A    between atoms: C39_39  and  C40_40 
REMARK   26  A    between atoms: C40_40  and  O11_52 
REMARK   27  A    between atoms: C41_41  and  O13_54 
USER                              x       y       z     vdW  Elec       q    Type
USER                           _______ _______ _______ _____ _____    ______ ____
ROOT
ATOM      1  C6  UNL     1      22.415   8.223   2.089 +0.27 +0.00    +0.177 C 
ENDROOT
BRANCH   1   2
ATOM      2  C7  UNL     1      22.457   8.357   0.554 +0.05 +0.00    +0.036 C 
BRANCH   2   3
ATOM      3  C8  UNL     1      23.828   8.334  -0.152 -0.52 +0.00    +0.022 C 
BRANCH   3   4
ATOM      4  C9  UNL     1      24.730   9.543   0.094+14.44 +0.00    +0.121 C 
BRANCH   4   5
ATOM      5  N2  UNL     1      25.866   9.153   0.940 +0.05 -0.00    -0.372 N 
ATOM      6  C10 UNL     1      25.716   9.094   2.209 -0.52 +0.00    +0.121 C 
ATOM      7  N3  UNL     1      24.615   9.310   2.969 -0.44 -0.00    -0.279 NA
ATOM      8  N4  UNL     1      26.745   8.752   3.011 -0.38 -0.00    -0.279 NA
ATOM      9  H42 UNL     1      24.893   9.681   3.878 +0.08 +0.00    +0.126 HD
ATOM     10  H43 UNL     1      23.969   9.970   2.545 +0.11 +0.00    +0.126 HD
ATOM     11  H44 UNL     1      26.527   7.949   3.608 -0.29 +0.00    +0.126 HD
ATOM     12  H45 UNL     1      27.598   8.555   2.504 -0.01 +0.00    +0.126 HD
ATOM     13  H2  UNL     1      26.768   8.932   0.519 +0.10 +0.00    +0.161 HD
ENDBRANCH   4   5
ENDBRANCH   3   4
ENDBRANCH   2   3
ENDBRANCH   1   2
BRANCH   1  14
ATOM     14  C11 UNL     1      21.003   8.493   2.684 +2.23 +0.00    +0.245 C 
ATOM     15  O2  UNL     1      20.754   8.346   3.879 +1.16 -0.00    -0.271 OA
ATOM     16  N5  UNL     1      20.058   8.766   1.706+10.72 -0.00    -0.325 N 
ATOM     17  H46 UNL     1      20.363   8.602   0.746 +2.37 +0.00    +0.169 HD
BRANCH  16  18
ATOM     18  C12 UNL     1      18.717   9.149   1.881 +0.24 +0.00    +0.034 A 
ATOM     19  C13 UNL     1      18.295   9.403   3.193 -0.45 +0.00    +0.030 A 
ATOM     20  C14 UNL     1      16.975   9.778   3.456 -0.48 +0.00    +0.019 A 
ATOM     21  C15 UNL     1      16.070   9.907   2.399 -0.43 +0.00    +0.032 A 
ATOM     22  C16 UNL     1      16.471   9.618   1.093 -0.48 +0.00    +0.019 A 
ATOM     23  C17 UNL     1      17.796   9.249   0.836 -0.35 +0.00    +0.030 A 
BRANCH  21  24
ATOM     24  C18 UNL     1      14.665  10.279   2.655 +4.26 +0.00    +0.258 C 
ATOM     25  O3  UNL     1      14.264  11.328   2.153 +1.47 -0.00    -0.267 OA
ATOM     26  N6  UNL     1      13.838   9.422   3.363 +1.87 -0.00    -0.312 N 
ATOM     27  C19 UNL     1      12.386   9.640   3.357+10.74 +0.00    +0.143 C 
ATOM     28  C28 UNL     1      14.132   8.420   4.310 -0.39 +0.00    +0.048 A 
ATOM     29  C20 UNL     1      11.748   8.390   3.981 -0.37 +0.00    +0.054 C 
ATOM     30  C21 UNL     1      12.934   7.802   4.717 -0.42 -0.00    -0.012 A 
ATOM     31  C22 UNL     1      12.959   6.784   5.682 -0.42 +0.00    +0.005 A 
ATOM     32  C23 UNL     1      11.983   5.965   6.316 -0.34 +0.00    +0.049 A 
ATOM     33  C25 UNL     1      14.198   6.424   6.207 -0.42 +0.00    +0.077 A 
ATOM     34  C24 UNL     1      12.631   5.120   7.204 -0.42 +0.00    +0.102 A 
ATOM     35  N7  UNL     1      13.974   5.418   7.113 -0.31 -0.00    -0.349 N 
ATOM     36  H47 UNL     1      14.700   4.960   7.651 +0.05 +0.00    +0.166 HD
ATOM     37  C26 UNL     1      15.391   7.043   5.822 +1.48 +0.00    +0.095 A 
ATOM     38  C27 UNL     1      15.350   8.064   4.869 +0.23 +0.00    +0.069 A 
BRANCH  29  39
ATOM     39  C30 UNL     1      11.217   7.410   2.939 -0.33 +0.00    +0.125 C 
ATOM     40 CL1  UNL     1      12.233   5.949   2.852 +1.49 -0.00    -0.130 Cl
ENDBRANCH  29  39
BRANCH  34  41
ATOM     41  C29 UNL     1      12.151   4.097   8.098 -0.35 +0.00    +0.266 C 
ATOM     42  O5  UNL     1      11.007   4.060   8.534 -0.20 -0.00    -0.266 OA
ATOM     43  N8  UNL     1      13.049   3.133   8.446 +0.19 -0.00    -0.365 N 
ATOM     44  H48 UNL     1      12.710   2.376   9.023 +0.17 +0.00    +0.159 HD
ATOM     45  H49 UNL     1      13.966   3.060   8.036 +0.22 +0.00    +0.159 HD
ENDBRANCH  34  41
BRANCH  37  46
ATOM     46  O4  UNL     1      16.569   6.649   6.394 +3.50 -0.00    -0.358 OA
ATOM     47  H37 UNL     1      17.306   7.001   5.867 +0.32 +0.00    +0.217 HD
ENDBRANCH  37  46
ENDBRANCH  21  24
ENDBRANCH  16  18
ENDBRANCH   1  14
BRANCH   1  48
ATOM     48  N1  UNL     1      22.976   6.939   2.508 +7.76 -0.00    -0.346 N 
ATOM     49  C5  UNL     1      23.081   5.827   1.714 +3.03 +0.00    +0.241 C 
ATOM     50  O1  UNL     1      22.665   5.828   0.555 +0.21 -0.00    -0.271 OA
ATOM     51  H41 UNL     1      23.648   7.002   3.269 +2.97 +0.00    +0.163 HD
BRANCH  49  52
ATOM     52  C4  UNL     1      23.753   4.594   2.377+15.88 +0.00    +0.180 C 
BRANCH  52  53
ATOM     53  C2  UNL     1      22.870   3.335   2.216 +0.73 +0.00    +0.009 C 
ATOM     54  C1  UNL     1      22.007   3.054   3.451 +0.41 +0.00    +0.012 C 
ATOM     55  C3  UNL     1      21.982   3.432   0.972+15.44 +0.00    +0.012 C 
ENDBRANCH  52  53
BRANCH  52  56
ATOM     56  N9  UNL     1      25.124   4.362   1.903 +2.36 -0.00    -0.347 N 
ATOM     57  C31 UNL     1      25.397   3.920   0.629 +0.86 +0.00    +0.218 C 
ATOM     58  O6  UNL     1      24.541   3.711  -0.222 -0.67 -0.00    -0.274 OA
ATOM     59  H50 UNL     1      25.888   4.423   2.567 +2.27 +0.00    +0.163 HD
BRANCH  57  60
ATOM     60  C32 UNL     1      26.872   3.741   0.347 +2.78 +0.00    +0.105 C 
BRANCH  60  61
ATOM     61  C33 UNL     1      27.273   4.420  -0.966 -0.35 +0.00    +0.040 C 
BRANCH  61  62
ATOM     62  C34 UNL     1      26.417   5.646  -1.321 -0.33 +0.00    +0.162 C 
BRANCH  62  63
ATOM     63  C35 UNL     1      25.811   6.226  -0.036 -0.34 +0.00    +0.158 C 
ATOM     64  O7  UNL     1      26.417   6.875   0.807 +0.05 -0.00    -0.649 OA
BRANCH  63  65
ATOM     65  O8  UNL     1      24.463   6.106   0.025 +0.09 -0.00    -0.775 OA
ATOM     66  H38 UNL     1      24.152   6.179  -0.910 +0.12 +0.00    +0.167 HD
ENDBRANCH  63  65
ENDBRANCH  62  63
BRANCH  62  67
ATOM     67  N10 UNL     1      27.192   6.643  -2.058 -0.11 -0.00    -0.234 NA
ATOM     68  C36 UNL     1      28.465   6.938  -1.637 -0.18 +0.00    +0.274 C 
ATOM     69  O9  UNL     1      28.977   6.501  -0.618 -0.12 -0.00    -0.261 OA
ATOM     70  N11 UNL     1      29.080   7.789  -2.520 -0.52 -0.00    -0.234 NA
ATOM     71  H52 UNL     1      28.426   8.476  -2.874 +0.06 +0.00    +0.132 HD
ATOM     72  H51 UNL     1      27.159   6.537  -3.064 +0.69 +0.00    +0.132 HD
BRANCH  70  73
ATOM     73  C37 UNL     1      30.395   8.341  -2.181 -0.22 +0.00    +0.162 C 
BRANCH  73  74
ATOM     74  C38 UNL     1      30.511   9.802  -2.628 +1.69 +0.00    +0.041 C 
BRANCH  74  75
ATOM     75  C39 UNL     1      31.246  10.704  -1.639+15.31 +0.00    +0.112 C 
BRANCH  75  76
ATOM     76  C40 UNL     1      30.824  10.391  -0.233 -0.04 +0.00    +0.139 C 
ATOM     77  O10 UNL     1      31.563  10.209   0.718 +0.16 -0.00    -0.650 OA
BRANCH  76  78
ATOM     78  O11 UNL     1      29.487  10.343  -0.090 +2.82 -0.00    -0.776 OA
ATOM     79  H39 UNL     1      29.273  11.151   0.423 +2.90 +0.00    +0.167 HD
ENDBRANCH  76  78
ENDBRANCH  75  76
ENDBRANCH  74  75
ENDBRANCH  73  74
BRANCH  73  80
ATOM     80  C41 UNL     1      30.695   8.211  -0.683 -0.17 +0.00    +0.158 C 
ATOM     81  O12 UNL     1      29.916   7.830   0.177 +0.02 -0.00    -0.649 OA
BRANCH  80  82
ATOM     82  O13 UNL     1      31.983   8.469  -0.362 +0.08 -0.00    -0.775 OA
ATOM     83  H40 UNL     1      32.373   8.785  -1.206 +0.05 +0.00    +0.167 HD
ENDBRANCH  80  82
ENDBRANCH  73  80
ENDBRANCH  70  73
ENDBRANCH  62  67
ENDBRANCH  61  62
ENDBRANCH  60  61
ENDBRANCH  57  60
ENDBRANCH  52  56
ENDBRANCH  49  52
ENDBRANCH   1  48
TORSDOF 27
TER
