USER    Run = 1
USER    DPF = ligand_312_receptor.dpf
USER  
USER    Estimated Free Energy of Binding    =  +3.69e+003 kcal/mol  [=(1)+(2)+(3)-(4)]
USER    
USER    (1) Final Intermolecular Energy     =  +3.69e+003 kcal/mol
USER        vdW + Hbond + desolv Energy     =  +3.69e+003 kcal/mol
USER        Electrostatic Energy            =   +0.00 kcal/mol
USER    (2) Final Total Internal Energy     =   +0.00 kcal/mol
USER    (3) Torsional Free Energy           =   +1.19 kcal/mol
USER    (4) Unbound System's Energy  [=(2)] =   +0.00 kcal/mol
USER    
USER    
USER    NEWDPF move ligand_312.pdbqt
USER    NEWDPF about 0.000000 0.000000 0.000000
USER    NEWDPF tran0 17.436780 7.241305 2.997369
USER    NEWDPF quaternion0 0.707040 0.044009 0.251003 -0.659663
USER    NEWDPF axisangle0 0.940761 0.058557 0.333975 -97.451612
USER    NEWDPF quat0 0.940761 0.058557 0.333975 -97.451612
USER  keepresnum = 1 
USER  
REMARK  0 active torsions:
REMARK  status: ('A' for Active; 'I' for Inactive)
REMARK       I    between atoms: C2_2  and  C3_3 
REMARK       I    between atoms: C2_2  and  N2_62 
REMARK       I    between atoms: C3_3  and  N1_61 
REMARK       I    between atoms: C4_4  and  C5_5 
REMARK       I    between atoms: C4_4  and  N2_62 
REMARK       I    between atoms: C5_5  and  C6_6 
REMARK       I    between atoms: C5_5  and  N4_64 
REMARK       I    between atoms: C6_6  and  C7_7 
REMARK       I    between atoms: C7_7  and  C8_8 
REMARK       I    between atoms: C8_8  and  C9_9 
REMARK       I    between atoms: C9_9  and  N3_63 
REMARK       I    between atoms: C10_10  and  C11_11 
REMARK       I    between atoms: C10_10  and  N4_64 
REMARK       I    between atoms: C11_11  and  N5_65 
REMARK       I    between atoms: C13_13  and  C14_14 
REMARK       I    between atoms: C13_13  and  N5_65 
REMARK       I    between atoms: C14_14  and  N6_66 
REMARK       I    between atoms: C16_16  and  C17_17 
REMARK       I    between atoms: C16_16  and  N6_66 
REMARK       I    between atoms: C17_17  and  N7_67 
REMARK       I    between atoms: C19_19  and  C20_20 
REMARK       I    between atoms: C19_19  and  N7_67 
REMARK       I    between atoms: C20_20  and  C21_21 
REMARK       I    between atoms: C20_20  and  N9_69 
REMARK       I    between atoms: C21_21  and  C22_22 
REMARK       I    between atoms: C22_22  and  C23_23 
REMARK       I    between atoms: C23_23  and  C24_24 
REMARK       I    between atoms: C24_24  and  N8_68 
REMARK       I    between atoms: C25_25  and  C26_26 
REMARK       I    between atoms: C25_25  and  N9_69 
REMARK       I    between atoms: C26_26  and  N10_70 
REMARK       I    between atoms: C28_28  and  C29_29 
REMARK       I    between atoms: C28_28  and  N10_70 
REMARK       I    between atoms: C29_29  and  N11_71 
REMARK       I    between atoms: C31_31  and  C32_32 
REMARK       I    between atoms: C31_31  and  N11_71 
REMARK       I    between atoms: C32_32  and  N12_72 
REMARK       I    between atoms: C34_34  and  C35_35 
REMARK       I    between atoms: C34_34  and  N12_72 
REMARK       I    between atoms: C35_35  and  C36_36 
REMARK       I    between atoms: C35_35  and  N14_74 
REMARK       I    between atoms: C36_36  and  C37_37 
REMARK       I    between atoms: C37_37  and  C38_38 
REMARK       I    between atoms: C38_38  and  C39_39 
REMARK       I    between atoms: C39_39  and  N13_73 
REMARK       I    between atoms: C40_40  and  C41_41 
REMARK       I    between atoms: C40_40  and  N14_74 
REMARK       I    between atoms: C41_41  and  N15_75 
REMARK       I    between atoms: C43_43  and  C44_44 
REMARK       I    between atoms: C43_43  and  N15_75 
REMARK       I    between atoms: C44_44  and  N16_76 
REMARK       I    between atoms: C46_46  and  N16_76 
USER                              x       y       z     vdW  Elec       q    Type
USER                           _______ _______ _______ _____ _____    ______ ____
ROOT
ATOM      1  C1  UNL     1       9.266  -0.296   2.162+41.17 +0.00    +0.042 C 
ATOM      2  C2  UNL     1       8.346   0.893   2.396+10.61 +0.00    +0.172 C 
ATOM      3  C3  UNL     1       9.128   2.096   2.963+11.02 +0.00    +0.237 C 
ATOM      4  C4  UNL     1       6.556   2.025   1.114 -0.12 +0.00    +0.241 C 
ATOM      5  C5  UNL     1       6.216   2.703  -0.232 -0.06 +0.00    +0.176 C 
ATOM      6  C6  UNL     1       6.432   1.813  -1.467 -0.11 +0.00    +0.035 C 
ATOM      7  C7  UNL     1       5.771   2.370  -2.735 -0.11 +0.00    +0.004 C 
ATOM      8  C8  UNL     1       4.456   1.688  -3.142 -0.07 +0.00    +0.030 C 
ATOM      9  C9  UNL     1       3.264   1.946  -2.219 -0.02 +0.00    +0.267 C 
ATOM     10  C10 UNL     1       8.276   4.116  -0.333 -0.06 +0.00    +0.240 C 
ATOM     11  C11 UNL     1       8.801   5.558  -0.197 -0.14 +0.00    +0.172 C 
ATOM     12  C12 UNL     1       8.783   6.235  -1.560 -0.19 +0.00    +0.042 C 
ATOM     13  C13 UNL     1      10.357   5.453   1.716 +0.31 +0.00    +0.240 C 
ATOM     14  C14 UNL     1      11.822   5.138   2.112+17.57 +0.00    +0.172 C 
ATOM     15  C15 UNL     1      12.009   5.199   3.623 +6.01 +0.00    +0.042 C 
ATOM     16  C16 UNL     1      13.204   5.910   0.174 +0.72 +0.00    +0.240 C 
ATOM     17  C17 UNL     1      14.115   7.059  -0.327 +0.59 +0.00    +0.172 C 
ATOM     18  C18 UNL     1      14.697   6.741  -1.698+11.22 +0.00    +0.042 C 
ATOM     19  C19 UNL     1      15.015   8.109   1.748 +2.81 +0.00    +0.241 C 
ATOM     20  C20 UNL     1      16.259   8.179   2.669 -0.38 +0.00    +0.176 C 
ATOM     21  C21 UNL     1      15.978   8.944   3.967 -0.51 +0.00    +0.035 C 
ATOM     22  C22 UNL     1      15.159   8.109   4.959 +0.12 +0.00    +0.004 C 
ATOM     23  C23 UNL     1      14.827   8.908   6.222+99.99 +0.00    +0.030 C 
ATOM     24  C24 UNL     1      14.099   8.078   7.281 +9.01 +0.00    +0.267 C 
ATOM     25  C25 UNL     1      18.168   8.120   1.069+16.54 +0.00    +0.240 C 
ATOM     26  C26 UNL     1      19.185   8.998   0.301+12.41 +0.00    +0.172 C 
ATOM     27  C27 UNL     1      20.149   8.140  -0.508+99.99 +0.00    +0.042 C 
ATOM     28  C28 UNL     1      19.443  11.072   1.663 -0.41 +0.00    +0.240 C 
ATOM     29  C29 UNL     1      20.358  11.794   2.681 +1.67 +0.00    +0.172 C 
ATOM     30  C30 UNL     1      19.809  13.171   3.033 +7.73 +0.00    +0.042 C 
ATOM     31  C31 UNL     1      22.637  10.885   2.272+59.92 +0.00    +0.240 C 
ATOM     32  C32 UNL     1      24.022  11.181   1.665+93.59 +0.00    +0.172 C 
ATOM     33  C33 UNL     1      23.962  11.021   0.152+27.27 +0.00    +0.042 C 
ATOM     34  C34 UNL     1      25.651  10.579   3.404 +1.29 +0.00    +0.241 C 
ATOM     35  C35 UNL     1      26.405   9.408   4.065+12.75 +0.00    +0.176 C 
ATOM     36  C36 UNL     1      25.422   8.557   4.880 +7.98 +0.00    +0.035 C 
ATOM     37  C37 UNL     1      26.086   7.290   5.433+18.88 +0.00    +0.004 C 
ATOM     38  C38 UNL     1      25.123   6.400   6.226+19.21 +0.00    +0.030 C 
ATOM     39  C39 UNL     1      24.710   7.011   7.565+99.99 +0.00    +0.267 C 
ATOM     40  C40 UNL     1      28.741  10.109   4.499+99.99 +0.00    +0.240 C 
ATOM     41  C41 UNL     1      29.618  10.956   5.449+99.99 +0.00    +0.172 C 
ATOM     42  C42 UNL     1      31.072  10.505   5.384+31.74 +0.00    +0.042 C 
ATOM     43  C43 UNL     1      29.380  11.829   7.773 +0.52 +0.00    +0.240 C 
ATOM     44  C44 UNL     1      28.780  11.505   9.161 +0.06 +0.00    +0.172 C 
ATOM     45  C45 UNL     1      28.981  12.660  10.133 -0.39 +0.00    +0.042 C 
ATOM     46  C46 UNL     1      28.948   9.035   9.337+55.33 +0.00    +0.214 C 
ATOM     47  C47 UNL     1      29.708   7.900   9.964+99.99 +0.00    +0.117 C 
ATOM     48  O1  UNL     1      10.345   2.229   2.890 +1.60 -0.00    -0.271 OA
ATOM     49  O2  UNL     1       5.913   2.256   2.138 -0.13 -0.00    -0.271 OA
ATOM     50  O3  UNL     1       9.015   3.149  -0.509 -0.08 -0.00    -0.271 OA
ATOM     51  O4  UNL     1       9.434   5.550   2.525 -0.12 -0.00    -0.271 OA
ATOM     52  O5  UNL     1      12.800   5.001  -0.550 +1.16 -0.00    -0.271 OA
ATOM     53  O6  UNL     1      13.929   8.622   2.013+84.70 -0.00    -0.271 OA
ATOM     54  O7  UNL     1      17.993   6.923   0.840+99.99 -0.00    -0.271 OA
ATOM     55  O8  UNL     1      18.309  11.455   1.374 -0.34 -0.00    -0.271 OA
ATOM     56  O9  UNL     1      22.334   9.784   2.734 -0.31 -0.00    -0.271 OA
ATOM     57  O10 UNL     1      25.613  11.705   3.900+13.08 -0.00    -0.271 OA
ATOM     58  O11 UNL     1      29.137   9.673   3.422+99.99 -0.00    -0.271 OA
ATOM     59  O12 UNL     1      30.020  12.848   7.533 -0.38 -0.00    -0.271 OA
ATOM     60  O13 UNL     1      28.044   8.857   8.524+57.95 -0.00    -0.274 OA
ATOM     61  N1  UNL     1       8.344   3.074   3.515 -0.11 -0.00    -0.368 N 
ATOM     62  N2  UNL     1       7.739   1.311   1.132 -0.10 -0.00    -0.346 N 
ATOM     63  N3  UNL     1       3.367   1.213  -0.965 -0.12 +0.00    +0.078 N 
ATOM     64  N4  UNL     1       6.901   4.002  -0.270 -0.01 -0.00    -0.346 N 
ATOM     65  N5  UNL     1      10.147   5.530   0.349 -0.07 -0.00    -0.346 N 
ATOM     66  N6  UNL     1      12.752   6.066   1.467 +0.16 -0.00    -0.346 N 
ATOM     67  N7  UNL     1      15.192   7.341   0.618+21.21 -0.00    -0.346 N 
ATOM     68  N8  UNL     1      12.821   7.576   6.796 -0.38 +0.00    +0.078 N 
ATOM     69  N9  UNL     1      17.357   8.816   1.941 -0.21 -0.00    -0.346 N 
ATOM     70  N10 UNL     1      19.936   9.871   1.200 -0.08 -0.00    -0.346 N 
ATOM     71  N11 UNL     1      21.727  11.912   2.175+99.99 -0.00    -0.346 N 
ATOM     72  N12 UNL     1      24.980  10.249   2.243 -0.23 -0.00    -0.346 N 
ATOM     73  N13 UNL     1      23.837   6.091   8.288+62.09 +0.00    +0.078 N 
ATOM     74  N14 UNL     1      27.435   9.971   4.928+91.07 -0.00    -0.346 N 
ATOM     75  N15 UNL     1      29.100  10.880   6.813+30.59 -0.00    -0.346 N 
ATOM     76  N16 UNL     1      29.380  10.285   9.705 +0.70 -0.00    -0.348 N 
ATOM     77  H67 UNL     1       7.350   3.083   3.295 +0.06 +0.00    +0.159 HD
ATOM     78  H68 UNL     1       8.784   3.986   3.625 +0.08 +0.00    +0.159 HD
ATOM     79  H69 UNL     1       8.408   1.600   0.413 +0.07 +0.00    +0.163 HD
ATOM     80  H70 UNL     1       3.379   0.211  -1.153 +0.05 +0.00    +0.312 HD
ATOM     81  H71 UNL     1       2.532   1.380  -0.404 +0.05 +0.00    +0.312 HD
ATOM     82  H72 UNL     1       6.405   4.762   0.181 +0.05 +0.00    +0.163 HD
ATOM     83  H73 UNL     1      10.863   5.062  -0.212 +0.02 +0.00    +0.163 HD
ATOM     84  H74 UNL     1      12.839   6.999   1.870 -0.00 +0.00    +0.163 HD
ATOM     85  H75 UNL     1      16.041   6.774   0.572 +0.81 +0.00    +0.163 HD
ATOM     86  H76 UNL     1      12.223   8.354   6.520 +0.25 +0.00    +0.312 HD
ATOM     87  H77 UNL     1      12.334   7.091   7.548 +0.25 +0.00    +0.312 HD
ATOM     88  H78 UNL     1      17.310   9.826   1.806 +0.14 +0.00    +0.163 HD
ATOM     89  H79 UNL     1      20.685   9.451   1.754 +0.11 +0.00    +0.163 HD
ATOM     90  H80 UNL     1      21.962  12.730   1.627+99.99 +0.00    +0.163 HD
ATOM     91  H81 UNL     1      24.786   9.265   2.096 +0.14 +0.00    +0.163 HD
ATOM     92  H82 UNL     1      24.334   5.220   8.469 +5.06 +0.00    +0.312 HD
ATOM     93  H83 UNL     1      23.618   6.487   9.202+87.80 +0.00    +0.312 HD
ATOM     94  H84 UNL     1      27.123  10.679   5.586+99.99 +0.00    +0.163 HD
ATOM     95  H85 UNL     1      28.645  10.015   7.109+99.99 +0.00    +0.163 HD
ATOM     96  H86 UNL     1      30.305  10.369  10.112 -0.44 +0.00    +0.163 HD
ENDROOT
TORSDOF 39
TER
