USER    Run = 1
USER    DPF = ligand_442_receptor.dpf
USER  
USER    Estimated Free Energy of Binding    =  +1.64e+004 kcal/mol  [=(1)+(2)+(3)-(4)]
USER    
USER    (1) Final Intermolecular Energy     =  +1.64e+004 kcal/mol
USER        vdW + Hbond + desolv Energy     =  +1.64e+004 kcal/mol
USER        Electrostatic Energy            =   +0.00 kcal/mol
USER    (2) Final Total Internal Energy     =   +0.00 kcal/mol
USER    (3) Torsional Free Energy           =   +1.19 kcal/mol
USER    (4) Unbound System's Energy  [=(2)] =   +0.00 kcal/mol
USER    
USER    
USER    NEWDPF move ligand_442.pdbqt
USER    NEWDPF about 0.000000 0.000000 0.000000
USER    NEWDPF tran0 14.803118 8.231896 5.300903
USER    NEWDPF quaternion0 0.961928 0.234406 -0.132224 -0.047585
USER    NEWDPF axisangle0 0.963019 0.234672 -0.132374 -174.545119
USER    NEWDPF quat0 0.963019 0.234672 -0.132374 -174.545119
USER  keepresnum = 1 
USER  
REMARK  0 active torsions:
REMARK  status: ('A' for Active; 'I' for Inactive)
REMARK       I    between atoms: C2_2  and  C3_3 
REMARK       I    between atoms: C3_3  and  C5_5 
REMARK       I    between atoms: C5_5  and  C6_6 
REMARK       I    between atoms: C5_5  and  N8_94 
REMARK       I    between atoms: C6_6  and  N1_87 
REMARK       I    between atoms: C7_7  and  C10_10 
REMARK       I    between atoms: C7_7  and  N1_87 
REMARK       I    between atoms: C10_10  and  N2_88 
REMARK       I    between atoms: C14_14  and  C15_15 
REMARK       I    between atoms: C15_15  and  N3_89 
REMARK       I    between atoms: C16_16  and  C18_18 
REMARK       I    between atoms: C16_16  and  C20_20 
REMARK       I    between atoms: C16_16  and  N3_89 
REMARK       I    between atoms: C20_20  and  N4_90 
REMARK       I    between atoms: C21_21  and  C22_22 
REMARK       I    between atoms: C21_21  and  C26_26 
REMARK       I    between atoms: C21_21  and  N4_90 
REMARK       I    between atoms: C22_22  and  C23_23 
REMARK       I    between atoms: C26_26  and  N5_91 
REMARK       I    between atoms: C27_27  and  C30_30 
REMARK       I    between atoms: C27_27  and  N5_91 
REMARK       I    between atoms: C30_30  and  N6_92 
REMARK       I    between atoms: C34_34  and  C35_35 
REMARK       I    between atoms: C35_35  and  N7_93 
REMARK       I    between atoms: C36_36  and  C37_37 
REMARK       I    between atoms: C36_36  and  C41_41 
REMARK       I    between atoms: C36_36  and  N7_93 
REMARK       I    between atoms: C37_37  and  C38_38 
REMARK       I    between atoms: C41_41  and  O8_78 
REMARK       I    between atoms: C42_42  and  C43_43 
REMARK       I    between atoms: C42_42  and  N8_94 
REMARK       I    between atoms: C43_43  and  N9_95 
REMARK       I    between atoms: C45_45  and  C46_46 
REMARK       I    between atoms: C45_45  and  N9_95 
REMARK       I    between atoms: C50_50  and  C51_51 
REMARK       I    between atoms: C50_50  and  N10_96 
REMARK       I    between atoms: C51_51  and  N11_97 
REMARK       I    between atoms: C54_54  and  C55_55 
REMARK       I    between atoms: C54_54  and  N11_97 
REMARK       I    between atoms: C55_55  and  C56_56 
REMARK       I    between atoms: C55_55  and  N12_98 
REMARK       I    between atoms: C56_56  and  C57_57 
REMARK       I    between atoms: C60_60  and  C61_61 
REMARK       I    between atoms: C60_60  and  N12_98 
REMARK       I    between atoms: C61_61  and  C62_62 
REMARK       I    between atoms: C61_61  and  N14_100 
REMARK       I    between atoms: C62_62  and  C63_63 
REMARK       I    between atoms: C63_63  and  C64_64 
REMARK       I    between atoms: C64_64  and  N13_99 
REMARK       I    between atoms: C65_65  and  C66_66 
REMARK       I    between atoms: C65_65  and  N14_100 
REMARK       I    between atoms: C66_66  and  N15_101 
REMARK       I    between atoms: C69_69  and  N15_101 
USER                              x       y       z     vdW  Elec       q    Type
USER                           _______ _______ _______ _____ _____    ______ ____
ROOT
ATOM      1  C1  UNL     1      18.493   5.786   2.988+16.82 +0.00    +0.005 C 
ATOM      2  C2  UNL     1      17.827   6.942   2.261 +1.61 +0.00    +0.002 C 
ATOM      3  C3  UNL     1      16.335   7.165   2.596 +9.06 +0.00    +0.013 C 
ATOM      4  C4  UNL     1      15.800   8.276   1.676 +0.12 +0.00    +0.012 C 
ATOM      5  C5  UNL     1      15.992   7.520   4.068 -0.21 +0.00    +0.180 C 
ATOM      6  C6  UNL     1      15.725   6.271   4.952+19.56 +0.00    +0.241 C 
ATOM      7  C7  UNL     1      14.776   5.628   7.194 -0.02 +0.00    +0.106 C 
ATOM      8  C8  UNL     1      14.055   6.408   8.319 -0.67 +0.00    +0.048 C 
ATOM      9  C9  UNL     1      16.154   5.216   7.754+99.99 +0.00    +0.048 C 
ATOM     10  C10 UNL     1      13.902   4.339   6.973 -0.31 +0.00    +0.248 C 
ATOM     11  C11 UNL     1      11.868   3.209   6.202 +0.86 +0.00    +0.127 C 
ATOM     12  C12 UNL     1      11.634   2.851   4.747 +0.43 +0.00    +0.022 C 
ATOM     13  C13 UNL     1      11.598   4.215   4.087 +4.46 +0.00    +0.037 C 
ATOM     14  C14 UNL     1      12.688   5.002   4.832 +2.89 +0.00    +0.179 C 
ATOM     15  C15 UNL     1      12.292   6.486   4.819 -0.26 +0.00    +0.241 C 
ATOM     16  C16 UNL     1      10.910   8.200   6.074 -0.26 +0.00    +0.110 C 
ATOM     17  C17 UNL     1      12.022   9.253   6.229+11.64 +0.00    +0.049 C 
ATOM     18  C18 UNL     1       9.955   8.609   4.930 +1.14 +0.00    +0.036 C 
ATOM     19  C19 UNL     1       8.905   7.559   4.590 +5.99 +0.00    +0.008 C 
ATOM     20  C20 UNL     1      10.158   8.103   7.444+72.54 +0.00    +0.246 C 
ATOM     21  C21 UNL     1       8.985   9.379   9.244+99.99 +0.00    +0.177 C 
ATOM     22  C22 UNL     1       9.767  10.423  10.062+99.99 +0.00    +0.038 C 
ATOM     23  C23 UNL     1      10.027  11.790   9.391+99.99 -0.00    -0.020 C 
ATOM     24  C24 UNL     1       8.752  12.533   9.001+99.99 +0.00    +0.009 C 
ATOM     25  C25 UNL     1      10.864  12.668  10.330+99.99 +0.00    +0.009 C 
ATOM     26  C26 UNL     1       7.453   9.585   9.278+27.23 +0.00    +0.241 C 
ATOM     27  C27 UNL     1       5.312   8.792   8.172 +0.16 +0.00    +0.101 C 
ATOM     28  C28 UNL     1       4.639  10.159   8.015 -0.18 +0.00    +0.048 C 
ATOM     29  C29 UNL     1       4.747   8.037   9.383+99.99 +0.00    +0.048 C 
ATOM     30  C30 UNL     1       5.089   7.930   6.893 +8.96 +0.00    +0.228 C 
ATOM     31  C31 UNL     1       3.187   8.357   5.547 +0.33 +0.00    +0.099 C 
ATOM     32  C32 UNL     1       3.410   7.556   4.261 +0.10 +0.00    +0.017 C 
ATOM     33  C33 UNL     1       3.774   6.141   4.713 -0.19 +0.00    +0.031 C 
ATOM     34  C34 UNL     1       3.524   6.168   6.215 -0.22 +0.00    +0.158 C 
ATOM     35  C35 UNL     1       4.178   5.016   7.010 -0.28 +0.00    +0.236 C 
ATOM     36  C36 UNL     1       6.319   3.968   7.739 +1.54 +0.00    +0.108 C 
ATOM     37  C37 UNL     1       6.500   2.718   6.851+81.58 +0.00    +0.031 C 
ATOM     38  C38 UNL     1       7.497   2.770   5.675+59.38 -0.00    -0.021 C 
ATOM     39  C39 UNL     1       7.112   3.775   4.590 -0.30 +0.00    +0.009 C 
ATOM     40  C40 UNL     1       7.608   1.374   5.047+99.99 +0.00    +0.009 C 
ATOM     41  C41 UNL     1       7.624   4.536   8.322 +0.87 +0.00    +0.189 C 
ATOM     42  C42 UNL     1      16.686   9.231   5.748+99.99 +0.00    +0.240 C 
ATOM     43  C43 UNL     1      17.853  10.109   6.248+99.99 +0.00    +0.172 C 
ATOM     44  C44 UNL     1      18.380  11.030   5.155+99.99 +0.00    +0.042 C 
ATOM     45  C45 UNL     1      19.781   8.478   6.295+99.99 +0.00    +0.241 C 
ATOM     46  C46 UNL     1      20.707   7.699   7.244+34.96 +0.00    +0.179 C 
ATOM     47  C47 UNL     1      19.979   6.440   7.743 +9.53 +0.00    +0.037 C 
ATOM     48  C48 UNL     1      19.450   6.838   9.112+17.24 +0.00    +0.022 C 
ATOM     49  C49 UNL     1      20.553   7.731   9.641+69.72 +0.00    +0.127 C 
ATOM     50  C50 UNL     1      22.151   9.283   8.662 +1.90 +0.00    +0.248 C 
ATOM     51  C51 UNL     1      22.775  10.124   7.487+10.48 +0.00    +0.106 C 
ATOM     52  C52 UNL     1      21.867  11.363   7.338+12.96 +0.00    +0.048 C 
ATOM     53  C53 UNL     1      24.167  10.637   7.921+83.39 +0.00    +0.048 C 
ATOM     54  C54 UNL     1      23.692   8.404   5.935+22.09 +0.00    +0.241 C 
ATOM     55  C55 UNL     1      24.084   8.153   4.457 +1.16 +0.00    +0.177 C 
ATOM     56  C56 UNL     1      25.382   8.932   4.167 +1.07 +0.00    +0.038 C 
ATOM     57  C57 UNL     1      26.120   8.681   2.835 -0.66 -0.00    -0.020 C 
ATOM     58  C58 UNL     1      25.758   9.720   1.776 -0.39 +0.00    +0.009 C 
ATOM     59  C59 UNL     1      25.972   7.264   2.290 -0.46 +0.00    +0.009 C 
ATOM     60  C60 UNL     1      22.466   9.564   3.123 -0.36 +0.00    +0.241 C 
ATOM     61  C61 UNL     1      21.196   9.532   2.232 -0.31 +0.00    +0.177 C 
ATOM     62  C62 UNL     1      21.147   8.444   1.145+44.65 +0.00    +0.044 C 
ATOM     63  C63 UNL     1      22.270   8.469   0.111 +0.02 +0.00    +0.105 C 
ATOM     64  C64 UNL     1      22.284   9.748  -0.685 +1.53 +0.00    +0.215 C 
ATOM     65  C65 UNL     1      19.734  11.358   1.357 -0.45 +0.00    +0.246 C 
ATOM     66  C66 UNL     1      19.690  12.886   1.059 -0.30 +0.00    +0.106 C 
ATOM     67  C67 UNL     1      19.579  13.588   2.427 +2.26 +0.00    +0.048 C 
ATOM     68  C68 UNL     1      18.438  13.235   0.240 +6.07 +0.00    +0.048 C 
ATOM     69  C69 UNL     1      21.278  13.140  -0.890+40.24 +0.00    +0.214 C 
ATOM     70  C70 UNL     1      22.597  13.752  -1.283+99.99 +0.00    +0.117 C 
ATOM     71  O1  UNL     1      16.130   5.143   4.699+99.99 -0.00    -0.271 OA
ATOM     72  O2  UNL     1      14.092   3.367   7.720 +1.05 -0.00    -0.271 OA
ATOM     73  O3  UNL     1      12.566   7.221   3.873 -0.29 -0.00    -0.271 OA
ATOM     74  O4  UNL     1      10.150   7.060   8.106+99.99 -0.00    -0.271 OA
ATOM     75  O5  UNL     1       6.884  10.175  10.190+14.86 -0.00    -0.271 OA
ATOM     76  O6  UNL     1       6.028   7.563   6.182+54.70 -0.00    -0.277 OA
ATOM     77  O7  UNL     1       3.494   4.123   7.509 -0.38 -0.00    -0.272 OA
ATOM     78  O8  UNL     1       8.400   5.194   7.325 -0.21 -0.00    -0.399 OA
ATOM     79  O9  UNL     1      15.573   9.264   6.275+99.99 -0.00    -0.271 OA
ATOM     80  O10 UNL     1      19.736   8.232   5.090 +2.12 -0.00    -0.271 OA
ATOM     81  O11 UNL     1      22.482   9.551   9.827 +1.19 -0.00    -0.271 OA
ATOM     82  O12 UNL     1      24.153   7.722   6.847+99.99 -0.00    -0.271 OA
ATOM     83  O13 UNL     1      22.946  10.620   3.542 -0.17 -0.00    -0.271 OA
ATOM     84  O14 UNL     1      23.048  10.674  -0.433 -0.24 -0.00    -0.274 OA
ATOM     85  O15 UNL     1      18.721  10.666   1.461 -0.29 -0.00    -0.271 OA
ATOM     86  O16 UNL     1      20.584  12.522  -1.692 +3.22 -0.00    -0.274 OA
ATOM     87  N1  UNL     1      14.956   6.552   6.069 -0.04 -0.00    -0.342 N 
ATOM     88  N2  UNL     1      12.765   4.364   6.165 -0.27 -0.00    -0.337 N 
ATOM     89  N3  UNL     1      11.490   6.865   5.864 -0.11 -0.00    -0.342 N 
ATOM     90  N4  UNL     1       9.528   9.243   7.888+15.61 -0.00    -0.346 N 
ATOM     91  N5  UNL     1       6.779   8.928   8.276 +7.25 -0.00    -0.342 N 
ATOM     92  N6  UNL     1       3.766   7.564   6.624 -0.12 -0.00    -0.238 NA
ATOM     93  N7  UNL     1       5.550   5.016   7.077 -0.24 -0.00    -0.353 N 
ATOM     94  N8  UNL     1      16.980   8.397   4.697 -0.07 -0.00    -0.346 N 
ATOM     95  N9  UNL     1      18.887   9.318   6.917+99.99 -0.00    -0.346 N 
ATOM     96  N10 UNL     1      21.072   8.427   8.469 -0.09 -0.00    -0.337 N 
ATOM     97  N11 UNL     1      22.879   9.496   6.162 +0.99 -0.00    -0.342 N 
ATOM     98  N12 UNL     1      22.960   8.347   3.527 +0.36 -0.00    -0.346 N 
ATOM     99  N13 UNL     1      21.345   9.827  -1.670+99.99 -0.00    -0.370 N 
ATOM    100  N14 UNL     1      20.975  10.876   1.709 +0.01 -0.00    -0.346 N 
ATOM    101  N15 UNL     1      20.935  13.364   0.423+42.47 -0.00    -0.344 N 
ATOM    102  HA8 UNL     1       9.092   5.701   7.802 +0.14 +0.00    +0.209 HD
ATOM    103  HA9 UNL     1      14.877   7.550   6.279 +0.24 +0.00    +0.163 HD
ATOM    104  HB0 UNL     1      11.310   6.168   6.585 +0.12 +0.00    +0.163 HD
ATOM    105  HB1 UNL     1       9.470  10.053   7.283 +1.26 +0.00    +0.163 HD
ATOM    106  HB2 UNL     1       7.325   8.361   7.629+58.14 +0.00    +0.163 HD
ATOM    107  HB3 UNL     1       6.079   5.711   6.549 +0.08 +0.00    +0.163 HD
ATOM    108  HB4 UNL     1      17.970   8.212   4.532 +0.10 +0.00    +0.163 HD
ATOM    109  HB5 UNL     1      19.054   9.503   7.902+17.96 +0.00    +0.163 HD
ATOM    110  HB6 UNL     1      22.870  10.151   5.377 -0.04 +0.00    +0.163 HD
ATOM    111  HB7 UNL     1      22.319   7.563   3.465 +0.23 +0.00    +0.163 HD
ATOM    112  HB8 UNL     1      20.508   9.260  -1.627 +5.11 +0.00    +0.159 HD
ATOM    113  HB9 UNL     1      21.190  10.761  -2.053+99.99 +0.00    +0.159 HD
ATOM    114  HC0 UNL     1      21.794  11.425   1.459 +0.76 +0.00    +0.163 HD
ATOM    115  HC1 UNL     1      21.643  13.764   1.026+99.99 +0.00    +0.163 HD
ENDROOT
TORSDOF 38
TER
