USER    Run = 1
USER    DPF = ligand_152_receptor.dpf
USER  
USER    Estimated Free Energy of Binding    =  +4.04e+004 kcal/mol  [=(1)+(2)+(3)-(4)]
USER    
USER    (1) Final Intermolecular Energy     =  +4.04e+004 kcal/mol
USER        vdW + Hbond + desolv Energy     =  +4.04e+004 kcal/mol
USER        Electrostatic Energy            =   +0.00 kcal/mol
USER    (2) Final Total Internal Energy     =   +0.00 kcal/mol
USER    (3) Torsional Free Energy           =   +1.19 kcal/mol
USER    (4) Unbound System's Energy  [=(2)] =   +0.00 kcal/mol
USER    
USER    
USER    NEWDPF move ligand_152.pdbqt
USER    NEWDPF about 0.000000 0.000000 0.000000
USER    NEWDPF tran0 17.735678 7.523910 3.605503
USER    NEWDPF quaternion0 -0.921971 -0.177991 0.013311 0.343674
USER    NEWDPF axisangle0 -0.981772 -0.189536 0.014174 139.798208
USER    NEWDPF quat0 -0.981772 -0.189536 0.014174 139.798208
USER  keepresnum = 1 
USER  
REMARK  0 active torsions:
REMARK  status: ('A' for Active; 'I' for Inactive)
REMARK       I    between atoms: C2_2  and  C3_3 
REMARK       I    between atoms: C3_3  and  C5_5 
REMARK       I    between atoms: C5_5  and  C6_6 
REMARK       I    between atoms: C5_5  and  N8_94 
REMARK       I    between atoms: C6_6  and  N1_87 
REMARK       I    between atoms: C7_7  and  C10_10 
REMARK       I    between atoms: C7_7  and  N1_87 
REMARK       I    between atoms: C10_10  and  N2_88 
REMARK       I    between atoms: C14_14  and  C15_15 
REMARK       I    between atoms: C15_15  and  N3_89 
REMARK       I    between atoms: C16_16  and  C18_18 
REMARK       I    between atoms: C16_16  and  C20_20 
REMARK       I    between atoms: C16_16  and  N3_89 
REMARK       I    between atoms: C20_20  and  N4_90 
REMARK       I    between atoms: C21_21  and  C22_22 
REMARK       I    between atoms: C21_21  and  C26_26 
REMARK       I    between atoms: C21_21  and  N4_90 
REMARK       I    between atoms: C22_22  and  C23_23 
REMARK       I    between atoms: C26_26  and  N5_91 
REMARK       I    between atoms: C27_27  and  C30_30 
REMARK       I    between atoms: C27_27  and  N5_91 
REMARK       I    between atoms: C30_30  and  N6_92 
REMARK       I    between atoms: C34_34  and  C35_35 
REMARK       I    between atoms: C35_35  and  N7_93 
REMARK       I    between atoms: C36_36  and  C37_37 
REMARK       I    between atoms: C36_36  and  C41_41 
REMARK       I    between atoms: C36_36  and  N7_93 
REMARK       I    between atoms: C37_37  and  C38_38 
REMARK       I    between atoms: C41_41  and  O8_78 
REMARK       I    between atoms: C42_42  and  C43_43 
REMARK       I    between atoms: C42_42  and  N8_94 
REMARK       I    between atoms: C43_43  and  N9_95 
REMARK       I    between atoms: C45_45  and  C46_46 
REMARK       I    between atoms: C45_45  and  N9_95 
REMARK       I    between atoms: C50_50  and  C51_51 
REMARK       I    between atoms: C50_50  and  N10_96 
REMARK       I    between atoms: C51_51  and  N11_97 
REMARK       I    between atoms: C54_54  and  C55_55 
REMARK       I    between atoms: C54_54  and  N11_97 
REMARK       I    between atoms: C55_55  and  C56_56 
REMARK       I    between atoms: C55_55  and  N12_98 
REMARK       I    between atoms: C56_56  and  C57_57 
REMARK       I    between atoms: C60_60  and  C61_61 
REMARK       I    between atoms: C60_60  and  N12_98 
REMARK       I    between atoms: C61_61  and  C62_62 
REMARK       I    between atoms: C61_61  and  N14_100 
REMARK       I    between atoms: C62_62  and  C63_63 
REMARK       I    between atoms: C63_63  and  C64_64 
REMARK       I    between atoms: C64_64  and  N13_99 
REMARK       I    between atoms: C65_65  and  C66_66 
REMARK       I    between atoms: C65_65  and  N14_100 
REMARK       I    between atoms: C66_66  and  N15_101 
REMARK       I    between atoms: C69_69  and  N15_101 
USER                              x       y       z     vdW  Elec       q    Type
USER                           _______ _______ _______ _____ _____    ______ ____
ROOT
ATOM      1  C1  UNL     1      20.198   7.314  10.545+99.99 +0.00    +0.005 C 
ATOM      2  C2  UNL     1      21.135   6.614   9.575+99.99 +0.00    +0.002 C 
ATOM      3  C3  UNL     1      20.502   5.449   8.786+99.99 +0.00    +0.013 C 
ATOM      4  C4  UNL     1      21.589   4.804   7.913+71.09 +0.00    +0.012 C 
ATOM      5  C5  UNL     1      19.276   5.826   7.919 +5.40 +0.00    +0.180 C 
ATOM      6  C6  UNL     1      17.966   5.917   8.742+99.99 +0.00    +0.241 C 
ATOM      7  C7  UNL     1      15.786   7.183   8.919+99.99 +0.00    +0.106 C 
ATOM      8  C8  UNL     1      15.323   8.574   8.446+99.99 +0.00    +0.048 C 
ATOM      9  C9  UNL     1      15.874   7.263  10.461+99.99 +0.00    +0.048 C 
ATOM     10  C10 UNL     1      14.655   6.163   8.524 -0.31 +0.00    +0.248 C 
ATOM     11  C11 UNL     1      13.566   4.571   7.017 -0.55 +0.00    +0.127 C 
ATOM     12  C12 UNL     1      14.252   3.571   6.105+17.51 +0.00    +0.022 C 
ATOM     13  C13 UNL     1      15.123   4.455   5.232+99.99 +0.00    +0.037 C 
ATOM     14  C14 UNL     1      15.596   5.559   6.195+99.99 +0.00    +0.179 C 
ATOM     15  C15 UNL     1      15.711   6.895   5.440 +1.24 +0.00    +0.241 C 
ATOM     16  C16 UNL     1      14.338   8.573   4.090 -0.37 +0.00    +0.110 C 
ATOM     17  C17 UNL     1      15.111   8.343   2.782 -0.31 +0.00    +0.049 C 
ATOM     18  C18 UNL     1      14.742   9.869   4.827+36.65 +0.00    +0.036 C 
ATOM     19  C19 UNL     1      14.771  11.146   3.999+99.99 +0.00    +0.008 C 
ATOM     20  C20 UNL     1      12.796   8.552   3.817 -0.08 +0.00    +0.246 C 
ATOM     21  C21 UNL     1      10.924   9.265   2.334+99.99 +0.00    +0.177 C 
ATOM     22  C22 UNL     1      10.209  10.620   2.462+99.99 +0.00    +0.038 C 
ATOM     23  C23 UNL     1      10.915  11.851   1.851+99.99 -0.00    -0.020 C 
ATOM     24  C24 UNL     1      11.146  11.742   0.345+99.99 +0.00    +0.009 C 
ATOM     25  C25 UNL     1      10.091  13.109   2.150+99.99 +0.00    +0.009 C 
ATOM     26  C26 UNL     1      10.788   8.642   0.921+99.99 +0.00    +0.241 C 
ATOM     27  C27 UNL     1      12.016   7.184  -0.755 +0.33 +0.00    +0.101 C 
ATOM     28  C28 UNL     1      13.510   7.085  -1.116 +2.68 +0.00    +0.048 C 
ATOM     29  C29 UNL     1      11.252   7.785  -1.939 +0.44 +0.00    +0.048 C 
ATOM     30  C30 UNL     1      11.524   5.779  -0.273 -0.29 +0.00    +0.228 C 
ATOM     31  C31 UNL     1      11.318   4.543  -2.326 +4.55 +0.00    +0.099 C 
ATOM     32  C32 UNL     1      11.665   3.079  -2.017+73.50 +0.00    +0.017 C 
ATOM     33  C33 UNL     1      10.891   2.734  -0.740 +0.15 +0.00    +0.031 C 
ATOM     34  C34 UNL     1       9.923   3.899  -0.592 -0.11 +0.00    +0.158 C 
ATOM     35  C35 UNL     1       9.111   3.885   0.724 -0.01 +0.00    +0.236 C 
ATOM     36  C36 UNL     1       9.138   4.281   3.182 -0.21 +0.00    +0.108 C 
ATOM     37  C37 UNL     1       9.243   2.873   3.810 +0.32 +0.00    +0.031 C 
ATOM     38  C38 UNL     1      10.616   2.379   4.310 +1.44 -0.00    -0.021 C 
ATOM     39  C39 UNL     1      11.640   2.200   3.190+44.66 +0.00    +0.009 C 
ATOM     40  C40 UNL     1      10.436   1.041   5.040+99.99 +0.00    +0.009 C 
ATOM     41  C41 UNL     1       9.672   5.415   4.073 -0.19 +0.00    +0.189 C 
ATOM     42  C42 UNL     1      19.745   6.977   5.754+59.14 +0.00    +0.240 C 
ATOM     43  C43 UNL     1      19.862   8.373   5.102 +9.14 +0.00    +0.172 C 
ATOM     44  C44 UNL     1      19.857   8.269   3.583 +0.11 +0.00    +0.042 C 
ATOM     45  C45 UNL     1      21.174   9.653   6.784+24.73 +0.00    +0.241 C 
ATOM     46  C46 UNL     1      22.590  10.155   7.154 +2.90 +0.00    +0.179 C 
ATOM     47  C47 UNL     1      22.696  10.336   8.678 +2.02 +0.00    +0.037 C 
ATOM     48  C48 UNL     1      22.278  11.782   8.887 -0.21 +0.00    +0.022 C 
ATOM     49  C49 UNL     1      22.923  12.469   7.699+99.99 +0.00    +0.127 C 
ATOM     50  C50 UNL     1      23.632  11.824   5.475+99.99 +0.00    +0.243 C 
ATOM     51  C51 UNL     1      23.614  10.943   4.173 -0.26 +0.00    +0.092 C 
ATOM     52  C52 UNL     1      22.283  11.326   3.486 +9.09 +0.00    +0.042 C 
ATOM     53  C53 UNL     1      24.760  11.399   3.239 +1.80 +0.00    +0.042 C 
ATOM     54  C54 UNL     1      24.785   8.870   4.877 +3.00 +0.00    +0.221 C 
ATOM     55  C55 UNL     1      24.868   7.340   4.639 +5.81 +0.00    +0.171 C 
ATOM     56  C56 UNL     1      26.156   6.699   5.193 +1.41 +0.00    +0.038 C 
ATOM     57  C57 UNL     1      26.015   6.000   6.565 +5.81 -0.00    -0.020 C 
ATOM     58  C58 UNL     1      25.196   4.712   6.461+99.99 +0.00    +0.009 C 
ATOM     59  C59 UNL     1      25.452   6.908   7.656+99.99 +0.00    +0.009 C 
ATOM     60  C60 UNL     1      25.558   7.272   2.241 -0.30 +0.00    +0.241 C 
ATOM     61  C61 UNL     1      25.074   6.876   0.826 -0.35 +0.00    +0.177 C 
ATOM     62  C62 UNL     1      26.231   6.320  -0.028 -0.40 +0.00    +0.044 C 
ATOM     63  C63 UNL     1      27.267   7.333  -0.539 -0.32 +0.00    +0.105 C 
ATOM     64  C64 UNL     1      26.803   8.176  -1.712+44.24 +0.00    +0.215 C 
ATOM     65  C65 UNL     1      23.173   8.463   0.555 -0.34 +0.00    +0.246 C 
ATOM     66  C66 UNL     1      22.474   9.338  -0.535 -0.04 +0.00    +0.106 C 
ATOM     67  C67 UNL     1      23.133  10.728  -0.515 +1.04 +0.00    +0.048 C 
ATOM     68  C68 UNL     1      20.979   9.496  -0.234 +0.60 +0.00    +0.048 C 
ATOM     69  C69 UNL     1      22.191   7.551  -2.282+31.57 +0.00    +0.214 C 
ATOM     70  C70 UNL     1      22.643   7.119  -3.651+31.96 +0.00    +0.117 C 
ATOM     71  O1  UNL     1      17.677   5.100   9.610+99.99 -0.00    -0.271 OA
ATOM     72  O2  UNL     1      13.705   5.996   9.305 +0.21 -0.00    -0.271 OA
ATOM     73  O3  UNL     1      16.798   7.425   5.222 +0.11 -0.00    -0.271 OA
ATOM     74  O4  UNL     1      12.037   7.866   4.510 -0.26 -0.00    -0.271 OA
ATOM     75  O5  UNL     1       9.733   8.663   0.298+25.70 -0.00    -0.271 OA
ATOM     76  O6  UNL     1      11.888   5.354   0.829 +0.50 -0.00    -0.277 OA
ATOM     77  O7  UNL     1       8.002   3.347   0.765 -0.07 -0.00    -0.272 OA
ATOM     78  O8  UNL     1      11.095   5.414   4.134 -0.11 -0.00    -0.399 OA
ATOM     79  O9  UNL     1      19.883   5.924   5.137+58.97 -0.00    -0.271 OA
ATOM     80  O10 UNL     1      20.187   9.775   7.508 +5.77 -0.00    -0.271 OA
ATOM     81  O11 UNL     1      24.109  12.969   5.396+99.99 -0.00    -0.271 OA
ATOM     82  O12 UNL     1      25.501   9.478   5.667+99.99 -0.00    -0.278 OA
ATOM     83  O13 UNL     1      26.640   7.807   2.462 -0.36 -0.00    -0.271 OA
ATOM     84  O14 UNL     1      25.674   8.147  -2.197+99.67 -0.00    -0.274 OA
ATOM     85  O15 UNL     1      22.772   8.346   1.713 -0.27 -0.00    -0.271 OA
ATOM     86  O16 UNL     1      21.452   6.859  -1.591 +0.11 -0.00    -0.274 OA
ATOM     87  N1  UNL     1      17.112   6.925   8.337+99.99 -0.00    -0.342 N 
ATOM     88  N2  UNL     1      14.579   5.593   7.259 -0.27 -0.00    -0.337 N 
ATOM     89  N3  UNL     1      14.521   7.400   4.979 -0.24 -0.00    -0.342 N 
ATOM     90  N4  UNL     1      12.319   9.330   2.789 +9.89 -0.00    -0.346 N 
ATOM     91  N5  UNL     1      11.945   8.034   0.463+41.80 -0.00    -0.342 N 
ATOM     92  N6  UNL     1      10.689   5.047  -1.113 -0.14 -0.00    -0.238 NA
ATOM     93  N7  UNL     1       9.727   4.355   1.850 +0.83 -0.00    -0.353 N 
ATOM     94  N8  UNL     1      19.494   7.023   7.111+99.99 -0.00    -0.346 N 
ATOM     95  N9  UNL     1      21.090   9.014   5.569+15.11 -0.00    -0.346 N 
ATOM     96  N10 UNL     1      22.926  11.485   6.621+99.99 -0.00    -0.337 N 
ATOM     97  N11 UNL     1      23.670   9.470   4.288 -0.54 -0.00    -0.244 NA
ATOM     98  N12 UNL     1      24.627   7.022   3.231 +8.62 -0.00    -0.347 N 
ATOM     99  N13 UNL     1      27.757   9.015  -2.205+99.99 -0.00    -0.370 N 
ATOM    100  N14 UNL     1      24.398   7.972   0.152 -0.17 -0.00    -0.346 N 
ATOM    101  N15 UNL     1      22.722   8.754  -1.874+99.99 -0.00    -0.344 N 
ATOM    102  HA8 UNL     1      11.350   6.311   4.444 +0.13 +0.00    +0.209 HD
ATOM    103  HA9 UNL     1      17.373   7.419   7.488 +9.14 +0.00    +0.163 HD
ATOM    104  HB0 UNL     1      13.667   6.980   5.346 +0.12 +0.00    +0.163 HD
ATOM    105  HB1 UNL     1      12.960   9.840   2.195+13.50 +0.00    +0.163 HD
ATOM    106  HB2 UNL     1      12.508   7.674   1.227 +0.06 +0.00    +0.163 HD
ATOM    107  HB3 UNL     1      10.697   4.665   1.788 -0.20 +0.00    +0.163 HD
ATOM    108  HB4 UNL     1      19.494   7.937   7.568+99.99 +0.00    +0.163 HD
ATOM    109  HB5 UNL     1      21.951   8.837   5.063 +0.73 +0.00    +0.163 HD
ATOM    110  HB6 UNL     1      23.392   8.990   3.428 +0.10 +0.00    +0.131 HD
ATOM    111  HB7 UNL     1      23.662   6.924   2.920 +1.50 +0.00    +0.163 HD
ATOM    112  HB8 UNL     1      28.640   9.163  -1.734 +1.77 +0.00    +0.159 HD
ATOM    113  HB9 UNL     1      27.507   9.647  -2.955+14.49 +0.00    +0.159 HD
ATOM    114  HC0 UNL     1      24.511   7.979  -0.861 +0.11 +0.00    +0.163 HD
ATOM    115  HC1 UNL     1      23.551   9.067  -2.374 +1.42 +0.00    +0.163 HD
ENDROOT
TORSDOF 38
TER
