USER    Run = 1
USER    DPF = ligand_61_receptor.dpf
USER  
USER    Estimated Free Energy of Binding    =  +1.43e+003 kcal/mol  [=(1)+(2)+(3)-(4)]
USER    
USER    (1) Final Intermolecular Energy     =  +1.43e+003 kcal/mol
USER        vdW + Hbond + desolv Energy     =  +1.43e+003 kcal/mol
USER        Electrostatic Energy            =   +0.00 kcal/mol
USER    (2) Final Total Internal Energy     =   +0.00 kcal/mol
USER    (3) Torsional Free Energy           =   +1.19 kcal/mol
USER    (4) Unbound System's Energy  [=(2)] =   +0.00 kcal/mol
USER    
USER    
USER    NEWDPF move ligand_61.pdbqt
USER    NEWDPF about 0.000000 0.000000 0.000000
USER    NEWDPF tran0 13.227040 6.978402 4.289941
USER    NEWDPF quaternion0 -0.166043 -0.509081 0.823253 0.188471
USER    NEWDPF axisangle0 -0.169073 -0.518371 0.838276 158.272924
USER    NEWDPF quat0 -0.169073 -0.518371 0.838276 158.272924
USER  keepresnum = 1 
USER  
REMARK  0 active torsions:
REMARK  status: ('A' for Active; 'I' for Inactive)
REMARK       I    between atoms: C3_3  and  C12_12 
REMARK       I    between atoms: C4_4  and  C6_6 
REMARK       I    between atoms: C5_5  and  N3_47 
REMARK       I    between atoms: C6_6  and  C7_7 
REMARK       I    between atoms: C6_6  and  N5_49 
REMARK       I    between atoms: C7_7  and  C8_8 
REMARK       I    between atoms: C8_8  and  N4_48 
REMARK       I    between atoms: C9_9  and  C10_10 
REMARK       I    between atoms: C9_9  and  N5_49 
REMARK       I    between atoms: C10_10  and  C11_11 
REMARK       I    between atoms: C10_10  and  N7_51 
REMARK       I    between atoms: C11_11  and  N6_50 
REMARK       I    between atoms: C12_12  and  N8_52 
REMARK       I    between atoms: C13_13  and  C14_14 
REMARK       I    between atoms: C13_13  and  C18_18 
REMARK       I    between atoms: C13_13  and  N8_52 
REMARK       I    between atoms: C14_14  and  C15_15 
REMARK       I    between atoms: C14_14  and  O4_67 
REMARK       I    between atoms: C18_18  and  N11_56 
REMARK       I    between atoms: C19_19  and  C21_21 
REMARK       I    between atoms: C19_19  and  N11_56 
REMARK       I    between atoms: C21_21  and  C22_22 
REMARK       I    between atoms: C21_21  and  O10_73 
REMARK       I    between atoms: C22_22  and  C24_24 
REMARK       I    between atoms: C24_24  and  N12_57 
REMARK       I    between atoms: C25_25  and  C26_26 
REMARK       I    between atoms: C25_25  and  C28_28 
REMARK       I    between atoms: C25_25  and  N12_57 
REMARK       I    between atoms: C26_26  and  O7_70 
REMARK       I    between atoms: C28_28  and  N13_58 
REMARK       I    between atoms: C29_29  and  C30_30 
REMARK       I    between atoms: C29_29  and  N13_58 
REMARK       I    between atoms: C30_30  and  C31_31 
REMARK       I    between atoms: C32_32  and  C34_34 
REMARK       I    between atoms: C35_35  and  C37_37 
REMARK       I    between atoms: C37_37  and  N16_63 
REMARK       I    between atoms: C38_38  and  C39_39 
REMARK       I    between atoms: C38_38  and  N16_63 
REMARK       I    between atoms: C39_39  and  C40_40 
REMARK       I    between atoms: C40_40  and  S3_76 
USER                              x       y       z     vdW  Elec       q    Type
USER                           _______ _______ _______ _____ _____    ______ ____
ROOT
ATOM      1  C1  UNL     1      13.460   8.953   2.481+75.94 +0.00    +0.054 C 
ATOM      2  C2  UNL     1      14.837   9.536   2.489 +3.43 +0.00    +0.009 A 
ATOM      3  C3  UNL     1      15.809   9.169   3.402 -0.38 +0.00    +0.111 A 
ATOM      4  C4  UNL     1      17.356  10.606   2.503 -0.39 +0.00    +0.117 A 
ATOM      5  C5  UNL     1      15.265  10.461   1.552 +2.32 +0.00    +0.087 A 
ATOM      6  C6  UNL     1      18.809  11.094   2.474 -0.27 +0.00    +0.296 C 
ATOM      7  C7  UNL     1      18.913  12.617   2.642 -0.09 +0.00    +0.146 C 
ATOM      8  C8  UNL     1      18.803  13.435   1.375 -0.20 +0.00    +0.217 C 
ATOM      9  C9  UNL     1      19.522   9.140   1.139 +9.37 +0.00    +0.315 C 
ATOM     10  C10 UNL     1      20.864   8.530   0.674+87.99 +0.00    +0.336 C 
ATOM     11  C11 UNL     1      21.066   8.772  -0.830 +3.92 +0.00    +0.250 C 
ATOM     12  C12 UNL     1      15.621   8.072   4.422 -0.26 +0.00    +0.269 C 
ATOM     13  C13 UNL     1      16.915   6.745   6.103+23.09 +0.00    +0.211 C 
ATOM     14  C14 UNL     1      18.394   6.617   6.573+99.99 +0.00    +0.201 C 
ATOM     15  C15 UNL     1      19.386   6.764   5.464+64.51 +0.00    +0.057 A 
ATOM     16  C16 UNL     1      20.087   7.845   4.972+60.73 +0.00    +0.116 A 
ATOM     17  C17 UNL     1      20.733   6.177   3.811+37.30 +0.00    +0.180 A 
ATOM     18  C18 UNL     1      16.011   6.660   7.363+10.85 +0.00    +0.243 C 
ATOM     19  C19 UNL     1      13.643   6.834   8.184 -0.57 +0.00    +0.110 C 
ATOM     20  C20 UNL     1      13.899   7.878   9.278 -0.38 +0.00    +0.035 C 
ATOM     21  C21 UNL     1      13.433   5.406   8.775 +0.10 +0.00    +0.153 C 
ATOM     22  C22 UNL     1      12.979   4.320   7.771 -0.57 +0.00    +0.104 C 
ATOM     23  C23 UNL     1      14.122   3.774   6.915 +0.42 +0.00    +0.022 C 
ATOM     24  C24 UNL     1      11.833   4.813   6.893 -0.34 +0.00    +0.224 C 
ATOM     25  C25 UNL     1       9.559   5.799   6.951 -0.18 +0.00    +0.205 C 
ATOM     26  C26 UNL     1       8.731   4.836   6.070 -0.31 +0.00    +0.146 C 
ATOM     27  C27 UNL     1       7.904   3.830   6.870 -0.45 +0.00    +0.042 C 
ATOM     28  C28 UNL     1       8.687   6.473   8.038 +5.27 +0.00    +0.243 C 
ATOM     29  C29 UNL     1       6.499   7.509   8.464 +3.12 +0.00    +0.129 C 
ATOM     30  C30 UNL     1       5.441   8.402   7.814 +0.79 +0.00    +0.084 C 
ATOM     31  C31 UNL     1       4.659   7.702   6.737 +3.28 +0.00    +0.052 A 
ATOM     32  C32 UNL     1       4.187   6.359   5.032 +0.02 +0.00    +0.073 A 
ATOM     33  C33 UNL     1       3.010   7.080   5.068 -0.14 +0.00    +0.083 A 
ATOM     34  C34 UNL     1       4.520   5.242   3.958 -0.13 +0.00    +0.102 A 
ATOM     35  C35 UNL     1       5.775   3.733   2.897 -0.10 +0.00    +0.108 A 
ATOM     36  C36 UNL     1       4.677   3.745   2.057 -0.09 +0.00    +0.087 A 
ATOM     37  C37 UNL     1       6.987   2.929   2.707 -0.14 +0.00    +0.268 C 
ATOM     38  C38 UNL     1       8.768   2.337   1.115 -0.20 +0.00    +0.123 C 
ATOM     39  C39 UNL     1       9.920   3.242   1.570+39.10 +0.00    +0.029 C 
ATOM     40  C40 UNL     1      10.012   4.514   0.735 +1.73 +0.00    +0.064 C 
ATOM     41  C41 UNL     1      10.415   6.261   2.815 -0.29 +0.00    +0.078 C 
ATOM     42  C42 UNL     1      12.499   4.770   1.970+99.99 +0.00    +0.078 C 
ATOM     43  N1  UNL     1      17.056   9.703   3.444 -0.22 -0.00    -0.339 N 
ATOM     44  H1  UNL     1      17.732   9.429   4.158 +0.11 +0.00    +0.167 HD
ATOM     45  N2  UNL     1      16.493  11.009   1.554 -0.24 -0.00    -0.335 N 
ATOM     46  H2  UNL     1      16.761  11.706   0.859 +0.14 +0.00    +0.168 HD
ATOM     47  N3  UNL     1      14.424  10.926   0.545+13.11 -0.00    -0.288 NA
ATOM     48  N4  UNL     1      17.600  13.428   0.739 +1.68 -0.00    -0.370 N 
ATOM     49  N5  UNL     1      19.624  10.602   1.341 -0.42 +0.00    +0.098 N 
ATOM     50  N6  UNL     1      22.033   9.684  -1.150 +9.27 -0.00    -0.368 N 
ATOM     51  N7  UNL     1      21.993   9.100   1.476 -0.33 +0.00    +0.093 N 
ATOM     52  N8  UNL     1      16.664   7.965   5.325 +3.35 -0.00    -0.340 N 
ATOM     53  N9  UNL     1      20.897   7.477   3.926+28.18 -0.00    -0.360 N 
ATOM     54  H9  UNL     1      21.495   8.080   3.362 +0.13 +0.00    +0.166 HD
ATOM     55  N10 UNL     1      19.831   5.700   4.716+99.99 -0.00    -0.352 N 
ATOM     56  N11 UNL     1      14.675   6.909   7.158 +0.70 -0.00    -0.352 N 
ATOM     57  N12 UNL     1      10.697   5.146   7.592 -0.14 -0.00    -0.345 N 
ATOM     58  N13 UNL     1       7.569   7.131   7.560+66.21 -0.00    -0.359 N 
ATOM     59  N14 UNL     1       5.111   6.705   6.007 +1.06 -0.00    -0.351 N 
ATOM     60  H14 UNL     1       6.014   6.250   6.139 +0.08 +0.00    +0.166 HD
ATOM     61  N15 UNL     1       5.660   4.581   3.997 -0.04 -0.00    -0.344 N 
ATOM     62  H15 UNL     1       6.361   4.678   4.731 +0.08 +0.00    +0.167 HD
ATOM     63  N16 UNL     1       7.461   2.894   1.407 -0.03 -0.00    -0.356 N 
ATOM     64  O1  UNL     1      19.720  14.139   0.960 +4.68 -0.00    -0.274 OA
ATOM     65  O2  UNL     1      20.416   8.201  -1.700 +4.24 -0.00    -0.271 OA
ATOM     66  O3  UNL     1      14.658   7.319   4.450 -0.44 -0.00    -0.266 OA
ATOM     67  O4  UNL     1      18.643   5.314   7.111+39.73 -0.00    -0.387 OA
ATOM     68  O5  UNL     1      16.445   6.267   8.448+80.87 -0.00    -0.271 OA
ATOM     69  O6  UNL     1      11.911   4.902   5.672 -0.26 -0.00    -0.273 OA
ATOM     70  O7  UNL     1       7.880   5.623   5.229 -0.09 -0.00    -0.393 OA
ATOM     71  O8  UNL     1       8.983   6.446   9.232+43.85 -0.00    -0.271 OA
ATOM     72  O9  UNL     1       7.563   2.385   3.643 -0.22 -0.00    -0.266 OA
ATOM     73  O10 UNL     1      12.437   5.442   9.815 +0.21 -0.00    -0.393 OA
ATOM     74  S1  UNL     1       3.074   8.237   6.335 -0.24 -0.00    -0.086 SA
ATOM     75  S2  UNL     1       3.485   4.825   2.652 -0.25 -0.00    -0.080 SA
ATOM     76  S3  UNL     1      11.196   5.790   1.254 +0.17 -0.00    -0.228 SA
ATOM     77  H46 UNL     1      13.993  10.170   0.023+16.85 +0.00    +0.125 HD
ATOM     78  H47 UNL     1      14.949  11.543  -0.068 +0.04 +0.00    +0.125 HD
ATOM     79  H48 UNL     1      17.001  12.610   0.843 +0.10 +0.00    +0.159 HD
ATOM     80  H49 UNL     1      17.593  13.876  -0.168 +0.25 +0.00    +0.159 HD
ATOM     81  H50 UNL     1      20.612  10.795   1.550 +0.27 +0.00    +0.317 HD
ATOM     82  H51 UNL     1      22.311  10.327  -0.415 +0.12 +0.00    +0.159 HD
ATOM     83  H52 UNL     1      22.066  10.002  -2.108+57.32 +0.00    +0.159 HD
ATOM     84  H53 UNL     1      22.844   8.616   1.183 +0.25 +0.00    +0.314 HD
ATOM     85  H54 UNL     1      21.839   8.777   2.443 +0.23 +0.00    +0.314 HD
ATOM     86  H55 UNL     1      17.460   8.547   5.075 +0.11 +0.00    +0.163 HD
ATOM     87  H56 UNL     1      19.572   4.734   4.867+24.76 +0.00    +0.166 HD
ATOM     88  H57 UNL     1      14.365   7.013   6.187 +0.12 +0.00    +0.163 HD
ATOM     89  H58 UNL     1      10.776   5.252   8.608 +0.12 +0.00    +0.163 HD
ATOM     90  H59 UNL     1       7.277   6.844   6.617 +1.51 +0.00    +0.162 HD
ATOM     91  H60 UNL     1       7.057   3.534   0.736 +0.06 +0.00    +0.162 HD
ATOM     92  H61 UNL     1      18.132   5.281   7.948+75.02 +0.00    +0.210 HD
ATOM     93  H62 UNL     1       7.175   5.036   4.876 +0.11 +0.00    +0.210 HD
ATOM     94  H63 UNL     1      12.850   5.841  10.603 +0.31 +0.00    +0.210 HD
ENDROOT
TORSDOF 33
TER
