USER    Run = 1
USER    DPF = ligand_97_receptor.dpf
USER  
USER    Estimated Free Energy of Binding    =  +2.18e+004 kcal/mol  [=(1)+(2)+(3)-(4)]
USER    
USER    (1) Final Intermolecular Energy     =  +2.18e+004 kcal/mol
USER        vdW + Hbond + desolv Energy     =  +2.18e+004 kcal/mol
USER        Electrostatic Energy            =   +0.00 kcal/mol
USER    (2) Final Total Internal Energy     =   +0.00 kcal/mol
USER    (3) Torsional Free Energy           =   +1.19 kcal/mol
USER    (4) Unbound System's Energy  [=(2)] =   +0.00 kcal/mol
USER    
USER    
USER    NEWDPF move ligand_97.pdbqt
USER    NEWDPF about 0.000000 0.000000 0.000000
USER    NEWDPF tran0 11.624685 6.964371 4.200381
USER    NEWDPF quaternion0 -0.731426 -0.120042 -0.048004 -0.669554
USER    NEWDPF axisangle0 -0.984735 -0.161616 -0.064629 -95.934759
USER    NEWDPF quat0 -0.984735 -0.161616 -0.064629 -95.934759
USER  keepresnum = 1 
USER  
REMARK  0 active torsions:
REMARK  status: ('A' for Active; 'I' for Inactive)
REMARK       I    between atoms: C2_2  and  C3_3 
REMARK       I    between atoms: C3_3  and  C5_5 
REMARK       I    between atoms: C5_5  and  C6_6 
REMARK       I    between atoms: C5_5  and  N3_85 
REMARK       I    between atoms: C6_6  and  C7_7 
REMARK       I    between atoms: C6_6  and  O5_72 
REMARK       I    between atoms: C7_7  and  C8_8 
REMARK       I    between atoms: C8_8  and  N1_83 
REMARK       I    between atoms: C12_12  and  C13_13 
REMARK       I    between atoms: C13_13  and  C14_14 
REMARK       I    between atoms: C13_13  and  O4_71 
REMARK       I    between atoms: C17_17  and  C18_18 
REMARK       I    between atoms: C28_28  and  C29_29 
REMARK       I    between atoms: C28_28  and  N3_85 
REMARK       I    between atoms: C29_29  and  C30_30 
REMARK       I    between atoms: C29_29  and  N4_86 
REMARK       I    between atoms: C33_33  and  C34_34 
REMARK       I    between atoms: C33_33  and  N4_86 
REMARK       I    between atoms: C34_34  and  C35_35 
REMARK       I    between atoms: C34_34  and  N5_87 
REMARK       I    between atoms: C39_39  and  O9_76 
REMARK       I    between atoms: C39_39  and  N5_87 
REMARK       I    between atoms: C40_40  and  C41_41 
REMARK       I    between atoms: C40_40  and  O9_76 
REMARK       I    between atoms: C44_44  and  N6_88 
REMARK       I    between atoms: C47_47  and  C48_48 
REMARK       I    between atoms: C47_47  and  N6_88 
REMARK       I    between atoms: C48_48  and  C49_49 
REMARK       I    between atoms: C48_48  and  N9_91 
REMARK       I    between atoms: C49_49  and  C50_50 
REMARK       I    between atoms: C50_50  and  C51_51 
REMARK       I    between atoms: C51_51  and  N7_89 
REMARK       I    between atoms: C52_52  and  N7_89 
REMARK       I    between atoms: C52_52  and  N8_90 
REMARK       I    between atoms: C53_53  and  C54_54 
REMARK       I    between atoms: C53_53  and  N9_91 
REMARK       I    between atoms: C54_54  and  C55_55 
REMARK       I    between atoms: C54_54  and  N10_92 
REMARK       I    between atoms: C58_58  and  C59_59 
REMARK       I    between atoms: C58_58  and  N10_92 
REMARK       I    between atoms: C59_59  and  C60_60 
REMARK       I    between atoms: C60_60  and  C61_61 
REMARK       I    between atoms: C61_61  and  C62_62 
REMARK       I    between atoms: C62_62  and  C63_63 
REMARK       I    between atoms: C63_63  and  N11_93 
USER                              x       y       z     vdW  Elec       q    Type
USER                           _______ _______ _______ _____ _____    ______ ____
ROOT
ATOM      1  C1  UNL     1       8.616  12.651   5.048+99.99 +0.00    +0.005 C 
ATOM      2  C2  UNL     1       7.975  11.273   5.141+99.99 +0.00    +0.002 C 
ATOM      3  C3  UNL     1       8.839  10.136   4.543+60.88 +0.00    +0.006 C 
ATOM      4  C4  UNL     1       9.153  10.406   3.067+99.99 +0.00    +0.012 C 
ATOM      5  C5  UNL     1       8.178   8.740   4.846+99.99 +0.00    +0.119 C 
ATOM      6  C6  UNL     1       7.385   8.080   3.665+22.23 +0.00    +0.152 C 
ATOM      7  C7  UNL     1       6.622   6.824   4.136 +7.03 +0.00    +0.137 C 
ATOM      8  C8  UNL     1       6.732   5.664   3.156 -0.13 +0.00    +0.222 C 
ATOM      9  C9  UNL     1       5.285   4.314   4.719 -0.20 +0.00    +0.126 C 
ATOM     10  C10 UNL     1       4.685   2.930   4.581 -0.27 +0.00    +0.022 C 
ATOM     11  C11 UNL     1       5.729   2.189   3.757 -0.26 +0.00    +0.029 C 
ATOM     12  C12 UNL     1       6.291   3.244   2.791 -0.16 +0.00    +0.119 C 
ATOM     13  C13 UNL     1       5.732   3.204   1.336 -0.07 +0.00    +0.181 C 
ATOM     14  C14 UNL     1       6.597   2.331   0.390 -0.07 +0.00    +0.245 C 
ATOM     15  C15 UNL     1       6.686   0.832   0.786 +0.58 +0.00    +0.249 C 
ATOM     16  C16 UNL     1       9.103   0.930   0.239 -0.28 +0.00    +0.114 C 
ATOM     17  C17 UNL     1       8.796   2.237  -0.535 -0.10 +0.00    +0.178 C 
ATOM     18  C18 UNL     1      10.035   3.061  -0.832 -0.16 -0.00    -0.027 A 
ATOM     19  C19 UNL     1      10.961   2.614  -1.790 +0.55 +0.00    +0.010 A 
ATOM     20  C20 UNL     1      12.124   3.343  -2.052+99.99 +0.00    +0.001 A 
ATOM     21  C21 UNL     1      12.378   4.526  -1.362+51.30 +0.00    +0.000 A 
ATOM     22  C22 UNL     1      11.465   4.985  -0.416 -0.05 +0.00    +0.001 A 
ATOM     23  C23 UNL     1      10.301   4.262  -0.155 +0.29 +0.00    +0.010 A 
ATOM     24  C24 UNL     1       9.804   1.166   1.582 -0.07 +0.00    +0.035 C 
ATOM     25  C25 UNL     1       3.458   3.901   1.234 -0.01 +0.00    +0.202 C 
ATOM     26  C26 UNL     1       5.958   8.771   1.878 +4.21 +0.00    +0.202 C 
ATOM     27  C27 UNL     1       9.194   7.950   6.978+99.99 +0.00    +0.153 C 
ATOM     28  C28 UNL     1      10.108   7.139   4.785 -0.13 +0.00    +0.243 C 
ATOM     29  C29 UNL     1      11.042   6.093   5.491 -0.25 +0.00    +0.180 C 
ATOM     30  C30 UNL     1      11.877   5.264   4.469 +0.21 +0.00    +0.009 C 
ATOM     31  C31 UNL     1      13.027   4.515   5.149 +3.26 +0.00    +0.012 C 
ATOM     32  C32 UNL     1      11.060   4.288   3.622 +2.68 +0.00    +0.012 C 
ATOM     33  C33 UNL     1       9.399   4.446   6.442 -0.30 +0.00    +0.241 C 
ATOM     34  C34 UNL     1       9.127   3.547   7.678 -0.48 +0.00    +0.184 C 
ATOM     35  C35 UNL     1       8.319   2.272   7.321+13.33 +0.00    +0.010 C 
ATOM     36  C36 UNL     1       8.028   1.434   8.573+22.79 +0.00    +0.012 C 
ATOM     37  C37 UNL     1       9.074   1.394   6.315+99.99 +0.00    +0.012 C 
ATOM     38  C38 UNL     1       7.105   4.852   8.456 +5.56 +0.00    +0.156 C 
ATOM     39  C39 UNL     1       9.214   5.101   9.645+15.15 +0.00    +0.363 C 
ATOM     40  C40 UNL     1      11.354   5.308  10.663+43.11 +0.00    +0.219 C 
ATOM     41  C41 UNL     1      12.418   5.964   9.824 +0.22 -0.00    -0.034 A 
ATOM     42  C42 UNL     1      12.246   7.272   9.360 +7.41 +0.00    +0.011 A 
ATOM     43  C43 UNL     1      13.170   7.833   8.473 -0.48 +0.00    +0.030 A 
ATOM     44  C44 UNL     1      14.281   7.100   8.041 +0.28 +0.00    +0.034 A 
ATOM     45  C45 UNL     1      14.476   5.813   8.542 -0.32 +0.00    +0.030 A 
ATOM     46  C46 UNL     1      13.546   5.244   9.416+22.38 +0.00    +0.011 A 
ATOM     47  C47 UNL     1      16.224   7.187   6.452+67.80 +0.00    +0.245 C 
ATOM     48  C48 UNL     1      16.797   8.097   5.316 +8.71 +0.00    +0.177 C 
ATOM     49  C49 UNL     1      18.165   7.574   4.839 +5.74 +0.00    +0.036 C 
ATOM     50  C50 UNL     1      19.248   7.582   5.935+99.99 +0.00    +0.022 C 
ATOM     51  C51 UNL     1      20.621   7.939   5.374+99.99 +0.00    +0.124 C 
ATOM     52  C52 UNL     1      21.483   9.811   4.041 +3.77 +0.00    +0.291 C 
ATOM     53  C53 UNL     1      15.790  10.374   5.614+43.21 +0.00    +0.241 C 
ATOM     54  C54 UNL     1      16.126  11.883   5.569+99.99 +0.00    +0.180 C 
ATOM     55  C55 UNL     1      15.015  12.754   6.205+99.99 +0.00    +0.009 C 
ATOM     56  C56 UNL     1      15.566  14.140   6.560+42.46 +0.00    +0.012 C 
ATOM     57  C57 UNL     1      13.757  12.917   5.347+99.99 +0.00    +0.012 C 
ATOM     58  C58 UNL     1      17.646  12.099   3.615 +7.56 +0.00    +0.218 C 
ATOM     59  C59 UNL     1      17.682  12.465   2.144 -0.66 +0.00    +0.103 C 
ATOM     60  C60 UNL     1      18.579  11.580   1.281 -0.69 +0.00    +0.009 C 
ATOM     61  C61 UNL     1      18.414  10.059   1.405 -0.53 +0.00    +0.002 C 
ATOM     62  C62 UNL     1      17.003   9.509   1.600 -0.54 +0.00    +0.020 C 
ATOM     63  C63 UNL     1      16.008   9.867   0.496 -0.18 +0.00    +0.135 C 
ATOM     64  C64 UNL     1      13.980  10.395   1.823+99.99 +0.00    +0.226 A 
ATOM     65  C65 UNL     1      12.623   9.812   2.074+99.99 +0.00    +0.112 A 
ATOM     66  C66 UNL     1      12.628   8.499   1.315+99.99 +0.00    +0.112 A 
ATOM     67  C67 UNL     1      13.958   8.466   0.625+99.99 +0.00    +0.226 A 
ATOM     68  O1  UNL     1       7.393   5.735   2.121 -0.09 -0.00    -0.273 OA
ATOM     69  O2  UNL     1       5.767   0.163   1.250+12.14 -0.00    -0.271 OA
ATOM     70  O3  UNL     1       7.852   3.002   0.223 -0.02 -0.00    -0.362 OA
ATOM     71  O4  UNL     1       4.354   2.800   1.279 -0.02 -0.00    -0.386 OA
ATOM     72  O5  UNL     1       6.413   9.047   3.200+15.77 -0.00    -0.388 OA
ATOM     73  O6  UNL     1      10.315   7.437   3.604 -0.26 -0.00    -0.271 OA
ATOM     74  O7  UNL     1       8.655   4.474   5.467 -0.19 -0.00    -0.271 OA
ATOM     75  O8  UNL     1       8.783   6.043  10.298 +2.59 -0.00    -0.238 OA
ATOM     76  O9  UNL     1      10.480   4.625   9.754+28.70 -0.00    -0.299 OA
ATOM     77  O10 UNL     1      16.665   6.054   6.640+76.52 -0.00    -0.271 OA
ATOM     78  O11 UNL     1      22.175   9.139   3.295 -0.34 -0.00    -0.254 OA
ATOM     79  O12 UNL     1      14.647   9.921   5.643+12.63 -0.00    -0.271 OA
ATOM     80  O13 UNL     1      18.631  11.725   4.245+24.53 -0.00    -0.274 OA
ATOM     81  O14 UNL     1      14.408  11.412   2.353 +1.96 -0.00    -0.273 OA
ATOM     82  O15 UNL     1      14.351   7.546  -0.077 -0.18 -0.00    -0.273 OA
ATOM     83  N1  UNL     1       6.023   4.520   3.486 -0.03 -0.00    -0.345 N 
ATOM     84  N2  UNL     1       7.865   0.193   0.472 +0.18 -0.00    -0.352 N 
ATOM     85  N3  UNL     1       9.155   7.837   5.526+67.21 -0.00    -0.347 N 
ATOM     86  N4  UNL     1      10.483   5.286   6.581 -0.10 -0.00    -0.346 N 
ATOM     87  N5  UNL     1       8.471   4.407   8.698 -0.21 -0.00    -0.319 N 
ATOM     88  N6  UNL     1      15.113   7.710   7.083+99.99 -0.00    -0.325 N 
ATOM     89  N7  UNL     1      20.670   9.344   5.029+66.79 -0.00    -0.348 N 
ATOM     90  N8  UNL     1      21.423  11.165   3.953+12.02 -0.00    -0.254 NA
ATOM     91  N9  UNL     1      16.892   9.542   5.594+18.02 -0.00    -0.346 N 
ATOM     92  N10 UNL     1      16.401  12.251   4.183+11.31 -0.00    -0.347 N 
ATOM     93  N11 UNL     1      14.646   9.603   0.932+99.99 -0.00    -0.288 N 
ATOM     94  H96 UNL     1       7.907  -0.774   0.773 +0.25 +0.00    +0.163 HD
ATOM     95  H97 UNL     1      11.092   5.132   7.377 +0.13 +0.00    +0.163 HD
ATOM     96  H98 UNL     1      14.791   8.610   6.728 +5.98 +0.00    +0.169 HD
ATOM     97  H99 UNL     1      20.532  10.013   5.774+99.99 +0.00    +0.163 HD
ATOM     98  HA0 UNL     1      20.489  11.547   4.092+28.72 +0.00    +0.128 HD
ATOM     99  HA1 UNL     1      21.895  11.524   3.134 +0.25 +0.00    +0.128 HD
ATOM    100  HA2 UNL     1      17.756   9.997   5.299 +0.11 +0.00    +0.163 HD
ATOM    101  HA3 UNL     1      15.604  12.196   3.542 +0.34 +0.00    +0.163 HD
ENDROOT
TORSDOF 36
TER
