USER    Run = 1
USER    DPF = ligand_262_receptor.dpf
USER  
USER    Estimated Free Energy of Binding    =  +3.50e+005 kcal/mol  [=(1)+(2)+(3)-(4)]
USER    
USER    (1) Final Intermolecular Energy     =  +3.50e+005 kcal/mol
USER        vdW + Hbond + desolv Energy     =  +1.99e+005 kcal/mol
USER        Electrostatic Energy            =  +1.51e+005 kcal/mol
USER    (2) Final Total Internal Energy     =   +0.00 kcal/mol
USER    (3) Torsional Free Energy           =   +1.19 kcal/mol
USER    (4) Unbound System's Energy  [=(2)] =   +0.00 kcal/mol
USER    
USER    
USER    NEWDPF move ligand_262.pdbqt
USER    NEWDPF about 0.000000 0.000000 0.000000
USER    NEWDPF tran0 19.410243 7.688733 3.065717
USER    NEWDPF quaternion0 -0.148878 0.711148 -0.682799 0.076739
USER    NEWDPF axisangle0 -0.149319 0.713251 -0.684819 171.197756
USER    NEWDPF quat0 -0.149319 0.713251 -0.684819 171.197756
USER  keepresnum = 1 
USER  
REMARK  0 active torsions:
REMARK  status: ('A' for Active; 'I' for Inactive)
REMARK       I    between atoms: C2_2  and  C3_3 
REMARK       I    between atoms: C2_2  and  C7_7 
REMARK       I    between atoms: C2_2  and  N1_58 
REMARK       I    between atoms: C3_3  and  C4_4 
REMARK       I    between atoms: C4_4  and  C5_5 
REMARK       I    between atoms: C5_5  and  N2_59 
REMARK       I    between atoms: C6_6  and  N2_59 
REMARK       I    between atoms: C6_6  and  N3_60 
REMARK       I    between atoms: C7_7  and  N4_61 
REMARK       I    between atoms: C8_8  and  N4_61 
REMARK       I    between atoms: C10_10  and  C15_15 
REMARK       I    between atoms: C11_11  and  O3_79 
REMARK       I    between atoms: C15_15  and  N5_62 
REMARK       I    between atoms: C16_16  and  C17_17 
REMARK       I    between atoms: C16_16  and  C21_21 
REMARK       I    between atoms: C16_16  and  N5_62 
REMARK       I    between atoms: C17_17  and  C18_18 
REMARK       I    between atoms: C18_18  and  C19_19 
REMARK       I    between atoms: C19_19  and  N6_63 
REMARK       I    between atoms: C20_20  and  N6_63 
REMARK       I    between atoms: C20_20  and  N7_64 
REMARK       I    between atoms: C21_21  and  N8_65 
REMARK       I    between atoms: C22_22  and  N8_65 
REMARK       I    between atoms: C24_24  and  C29_29 
REMARK       I    between atoms: C25_25  and  O7_83 
REMARK       I    between atoms: C29_29  and  N9_66 
REMARK       I    between atoms: C30_30  and  C31_31 
REMARK       I    between atoms: C30_30  and  C35_35 
REMARK       I    between atoms: C30_30  and  N9_66 
REMARK       I    between atoms: C31_31  and  C32_32 
REMARK       I    between atoms: C32_32  and  C33_33 
REMARK       I    between atoms: C33_33  and  N10_67 
REMARK       I    between atoms: C34_34  and  N11_69 
REMARK       I    between atoms: C34_34  and  N12_70 
REMARK       I    between atoms: C35_35  and  N13_71 
REMARK       I    between atoms: C36_36  and  N13_71 
REMARK       I    between atoms: C38_38  and  C43_43 
REMARK       I    between atoms: C39_39  and  O10_86 
REMARK       I    between atoms: C43_43  and  N14_72 
REMARK       I    between atoms: C44_44  and  C45_45 
REMARK       I    between atoms: C44_44  and  C49_49 
REMARK       I    between atoms: C44_44  and  N14_72 
REMARK       I    between atoms: C45_45  and  C46_46 
REMARK       I    between atoms: C46_46  and  C47_47 
REMARK       I    between atoms: C47_47  and  N15_73 
REMARK       I    between atoms: C48_48  and  N15_73 
REMARK       I    between atoms: C48_48  and  N16_74 
REMARK       I    between atoms: C49_49  and  N17_75 
REMARK       I    between atoms: C50_50  and  N17_75 
REMARK       I    between atoms: C52_52  and  C57_57 
REMARK       I    between atoms: C53_53  and  O14_90 
REMARK       I    between atoms: C57_57  and  N18_76 
USER                              x       y       z     vdW  Elec       q    Type
USER                           _______ _______ _______ _____ _____    ______ ____
ROOT
ATOM      1  C1  UNL     1       5.262   4.028   8.781+99.99 +0.00    +0.307 C 
ATOM      2  C2  UNL     1       5.857   4.056   6.423 -0.27 +0.00    +0.311 C 
ATOM      3  C3  UNL     1       5.711   3.202   5.152 +0.15 +0.00    +0.047 C 
ATOM      4  C4  UNL     1       4.278   3.055   4.617 -0.25 +0.00    +0.022 C 
ATOM      5  C5  UNL     1       3.186   2.695   5.622 -0.26 +0.00    +0.124 C 
ATOM      6  C6  UNL     1       2.558   0.856   7.082 +5.54 +0.00    +0.291 C 
ATOM      7  C7  UNL     1       7.292   4.649   6.482 -0.32 +0.00    +0.255 C 
ATOM      8  C8  UNL     1       8.597   6.556   5.500 +5.83 +0.00    +0.035 A 
ATOM      9  C9  UNL     1       9.813   6.331   6.147 -0.03 +0.00    +0.049 A 
ATOM     10  C10 UNL     1      10.929   7.164   5.917 -0.30 +0.00    +0.067 A 
ATOM     11  C11 UNL     1      10.811   8.249   5.027 -0.30 +0.00    +0.084 A 
ATOM     12  C12 UNL     1       9.594   8.462   4.370 +0.68 +0.00    +0.040 A 
ATOM     13  C13 UNL     1       8.499   7.628   4.610+18.40 +0.00    +0.032 A 
ATOM     14  C14 UNL     1      11.666  10.390   4.430+99.99 +0.00    +0.210 C 
ATOM     15  C15 UNL     1      12.180   6.829   6.678 -0.26 +0.00    +0.255 C 
ATOM     16  C16 UNL     1      14.559   7.369   7.114 +7.91 +0.00    +0.177 C 
ATOM     17  C17 UNL     1      14.540   7.974   8.531+10.90 +0.00    +0.036 C 
ATOM     18  C18 UNL     1      13.901   9.362   8.690 +2.22 +0.00    +0.022 C 
ATOM     19  C19 UNL     1      14.553  10.469   7.866 +6.58 +0.00    +0.124 C 
ATOM     20  C20 UNL     1      12.960  12.332   8.017 +5.66 +0.00    +0.291 C 
ATOM     21  C21 UNL     1      15.744   7.898   6.273+99.99 +0.00    +0.245 C 
ATOM     22  C22 UNL     1      18.248   7.723   6.204+99.99 +0.00    +0.035 A 
ATOM     23  C23 UNL     1      18.495   8.685   5.225+26.91 +0.00    +0.049 A 
ATOM     24  C24 UNL     1      19.809   8.959   4.802+17.70 +0.00    +0.067 A 
ATOM     25  C25 UNL     1      20.894   8.239   5.339+99.99 +0.00    +0.084 A 
ATOM     26  C26 UNL     1      20.641   7.281   6.325+99.99 +0.00    +0.040 A 
ATOM     27  C27 UNL     1      19.332   7.031   6.753+99.99 +0.00    +0.032 A 
ATOM     28  C28 UNL     1      23.213   7.651   5.220+99.99 +0.00    +0.210 C 
ATOM     29  C29 UNL     1      19.972  10.014   3.756+23.04 +0.00    +0.255 C 
ATOM     30  C30 UNL     1      21.527  11.695   2.745+27.43 +0.00    +0.177 C 
ATOM     31  C31 UNL     1      22.125  12.969   3.369+99.99 +0.00    +0.036 C 
ATOM     32  C32 UNL     1      23.142  12.791   4.512 +9.51 +0.00    +0.022 C 
ATOM     33  C33 UNL     1      24.380  11.951   4.205+15.66 +0.00    +0.121 C 
ATOM     34  C34 UNL     1      26.104  11.918   2.603+99.99 +0.00    +0.121 C 
ATOM     35  C35 UNL     1      22.443  11.106   1.639+99.99 +0.00    +0.245 C 
ATOM     36  C36 UNL     1      23.474   8.915   1.021 -0.43 +0.00    +0.035 A 
ATOM     37  C37 UNL     1      24.602   9.427   0.385 +3.10 +0.00    +0.049 A 
ATOM     38  C38 UNL     1      25.568   8.582  -0.193 +0.94 +0.00    +0.067 A 
ATOM     39  C39 UNL     1      25.367   7.185  -0.172 -0.34 +0.00    +0.084 A 
ATOM     40  C40 UNL     1      24.223   6.678   0.462 -0.44 +0.00    +0.040 A 
ATOM     41  C41 UNL     1      23.294   7.534   1.064 -0.32 +0.00    +0.032 A 
ATOM     42  C42 UNL     1      26.070   4.983  -0.811 -0.34 +0.00    +0.210 C 
ATOM     43  C43 UNL     1      26.783   9.271  -0.753+39.24 +0.00    +0.255 C 
ATOM     44  C44 UNL     1      28.857   9.025  -2.137+49.65 +0.00    +0.177 C 
ATOM     45  C45 UNL     1      29.858   9.781  -1.245+11.02 +0.00    +0.036 C 
ATOM     46  C46 UNL     1      30.810  10.724  -2.002+99.99 +0.00    +0.022 C 
ATOM     47  C47 UNL     1      30.124  11.718  -2.943+99.99 +0.00    +0.124 C 
ATOM     48  C48 UNL     1      27.880  12.707  -3.082+12.53 +0.00    +0.291 C 
ATOM     49  C49 UNL     1      29.598   7.851  -2.821 -0.20 +0.00    +0.245 C 
ATOM     50  C50 UNL     1      30.178   5.455  -2.328 -0.09 +0.00    +0.035 A 
ATOM     51  C51 UNL     1      30.030   4.451  -1.369 -0.07 +0.00    +0.049 A 
ATOM     52  C52 UNL     1      30.523   3.149  -1.585 -0.08 +0.00    +0.067 A 
ATOM     53  C53 UNL     1      31.196   2.851  -2.786 -0.03 +0.00    +0.084 A 
ATOM     54  C54 UNL     1      31.349   3.868  -3.738 -0.02 +0.00    +0.040 A 
ATOM     55  C55 UNL     1      30.840   5.155  -3.512 -0.07 +0.00    +0.032 A 
ATOM     56  C56 UNL     1      32.298   1.263  -4.200 -0.02 +0.00    +0.210 C 
ATOM     57  C57 UNL     1      30.256   2.169  -0.487 -0.16 +0.00    +0.252 C 
ATOM     58  N1  UNL     1       5.613   3.211   7.620 +8.83 +0.00    +0.092 N 
ATOM     59  N2  UNL     1       3.537   1.562   6.447 +0.14 -0.00    -0.348 N 
ATOM     60  N3  UNL     1       3.074  -0.056   7.945+99.99 -0.00    -0.254 NA
ATOM     61  N4  UNL     1       7.440   5.769   5.679 +0.01 -0.00    -0.325 N 
ATOM     62  N5  UNL     1      13.311   7.559   6.406 -0.16 -0.00    -0.344 N 
ATOM     63  N6  UNL     1      14.168  11.787   8.334 -0.23 -0.00    -0.348 N 
ATOM     64  N7  UNL     1      12.774  13.536   8.615 +6.06 -0.00    -0.254 NA
ATOM     65  N8  UNL     1      16.967   7.402   6.700+76.45 -0.00    -0.325 N 
ATOM     66  N9  UNL     1      21.152  10.720   3.776 +8.15 -0.00    -0.344 N 
ATOM     67  N10 UNL     1      25.083  12.529   3.073 +4.38 -0.00    -0.372 N 
ATOM     68  H10 UNL     1      24.767  13.406   2.660 +0.88 +0.00    +0.161 HD
ATOM     69  N11 UNL     1      26.734  12.391   1.505+99.99 -0.00    -0.279 NA
ATOM     70  N12 UNL     1      26.714  10.795   3.042+34.66 -0.00    -0.279 NA
ATOM     71  N13 UNL     1      22.540   9.723   1.689 -0.14 -0.00    -0.325 N 
ATOM     72  N14 UNL     1      27.730   8.477  -1.362 +3.03 -0.00    -0.344 N 
ATOM     73  N15 UNL     1      28.939  12.280  -2.342+28.03 -0.00    -0.348 N 
ATOM     74  N16 UNL     1      26.824  13.027  -2.291+99.99 -0.00    -0.254 NA
ATOM     75  N17 UNL     1      29.622   6.711  -2.028 -0.09 -0.00    -0.325 N 
ATOM     76  N18 UNL     1      30.896   0.966  -0.521 +0.10 -0.00    -0.366 N 
ATOM     77  O1  UNL     1       1.355   0.982   6.921+99.99+99.99    -0.254 OA
ATOM     78  O2  UNL     1       8.161   4.123   7.171 -0.35 -0.00    -0.271 OA
ATOM     79  O3  UNL     1      11.912   9.033   4.797 +2.17 -0.00    -0.355 OA
ATOM     80  O4  UNL     1      12.188   5.932   7.516 -0.24 -0.00    -0.268 OA
ATOM     81  O5  UNL     1      12.113  11.844   7.284+99.99 -0.00    -0.254 OA
ATOM     82  O6  UNL     1      15.572   8.697   5.357 +4.17 -0.00    -0.271 OA
ATOM     83  O7  UNL     1      22.147   8.524   4.856+42.09 -0.00    -0.355 OA
ATOM     84  O8  UNL     1      19.094  10.203   2.923 -0.24 -0.00    -0.268 OA
ATOM     85  O9  UNL     1      22.955  11.814   0.775+99.99 -0.00    -0.271 OA
ATOM     86  O10 UNL     1      26.312   6.388  -0.771 -0.18 -0.00    -0.355 OA
ATOM     87  O11 UNL     1      26.905  10.490  -0.648+99.99 -0.00    -0.268 OA
ATOM     88  O12 UNL     1      27.826  12.764  -4.300+99.99 -0.00    -0.254 OA
ATOM     89  O13 UNL     1      30.184   7.998  -3.888 -0.40 -0.00    -0.271 OA
ATOM     90  O14 UNL     1      31.660   1.572  -2.965 -0.05 -0.00    -0.355 OA
ATOM     91  O15 UNL     1      29.482   2.432   0.428 -0.29 -0.00    -0.268 OA
ATOM     92  H56 UNL     1       6.511   2.755   7.834 +0.10 +0.00    +0.316 HD
ATOM     93  H57 UNL     1       4.334   1.744   7.054 +0.65 +0.00    +0.163 HD
ATOM     94  H58 UNL     1       2.377  -0.692   8.310+70.05 +0.00    +0.128 HD
ATOM     95  H59 UNL     1       3.936  -0.492   7.651+99.99 +0.00    +0.128 HD
ATOM     96  H60 UNL     1       6.624   6.061   5.154 +0.08 +0.00    +0.169 HD
ATOM     97  H61 UNL     1      13.265   8.298   5.703 +0.12 +0.00    +0.163 HD
ATOM     98  H62 UNL     1      14.562  12.104   9.207 -0.21 +0.00    +0.163 HD
ATOM     99  H63 UNL     1      13.587  14.135   8.642 +5.62 +0.00    +0.128 HD
ATOM    100  H64 UNL     1      11.937  14.003   8.289 +0.38 +0.00    +0.128 HD
ATOM    101  H65 UNL     1      16.935   6.685   7.416 -0.36 +0.00    +0.169 HD
ATOM    102  H66 UNL     1      21.883  10.382   4.391 +0.15 +0.00    +0.163 HD
ATOM    103  H67 UNL     1      26.161  13.123   1.091 +0.02 +0.00    +0.126 HD
ATOM    104  H68 UNL     1      26.878  11.662   0.803 +1.39 +0.00    +0.126 HD
ATOM    105  H69 UNL     1      27.710  10.821   2.850+18.61 +0.00    +0.126 HD
ATOM    106  H70 UNL     1      26.535  10.588   4.014 +0.10 +0.00    +0.126 HD
ATOM    107  H71 UNL     1      21.832   9.263   2.248 +0.12 +0.00    +0.169 HD
ATOM    108  H72 UNL     1      27.376   7.567  -1.648 +0.07 +0.00    +0.163 HD
ATOM    109  H73 UNL     1      28.992  12.676  -1.414 -0.13 +0.00    +0.163 HD
ATOM    110  H74 UNL     1      25.984  13.204  -2.829+66.97 +0.00    +0.128 HD
ATOM    111  H75 UNL     1      26.669  12.335  -1.559 +6.28 +0.00    +0.128 HD
ATOM    112  H76 UNL     1      29.179   6.809  -1.119 +0.07 +0.00    +0.169 HD
ATOM    113  H77 UNL     1      30.662   0.276   0.178 +0.55 +0.00    +0.159 HD
ATOM    114  H78 UNL     1      31.448   0.691  -1.325 -0.11 +0.00    +0.159 HD
ENDROOT
TORSDOF 36
TER
