USER    Run = 1
USER    DPF = ligand_299_receptor.dpf
USER  
USER    Estimated Free Energy of Binding    =  +17.01 kcal/mol  [=(1)+(2)+(3)-(4)]
USER    
USER    (1) Final Intermolecular Energy     =  +15.81 kcal/mol
USER        vdW + Hbond + desolv Energy     =  +15.81 kcal/mol
USER        Electrostatic Energy            =   +0.00 kcal/mol
USER    (2) Final Total Internal Energy     =   +0.01 kcal/mol
USER    (3) Torsional Free Energy           =   +1.19 kcal/mol
USER    (4) Unbound System's Energy  [=(2)] =   +0.01 kcal/mol
USER    
USER    
USER    NEWDPF move ligand_299.pdbqt
USER    NEWDPF about 0.000000 0.000000 0.000000
USER    NEWDPF tran0 14.557763 7.655901 2.860684
USER    NEWDPF quaternion0 0.741287 -0.149840 0.271197 -0.595393
USER    NEWDPF axisangle0 0.922648 -0.186499 0.337548 -106.918690
USER    NEWDPF quat0 0.922648 -0.186499 0.337548 -106.918690
USER    NEWDPF dihe0 -156.75 180.00 -32.45 132.33 119.92 55.05 -98.52 22.27 -7.08 138.38 69.90 106.63 135.30 -95.93 32.61 125.18 82.77 -43.26 -100.64 16.74 -14.66 70.21 -27.95 -15.54 -180.00 -52.06 
USER  keepresnum = 1 
USER  
REMARK  26 active torsions:
REMARK  status: ('A' for Active; 'I' for Inactive)
REMARK    1  A    between atoms: C2_2  and  C3_3 
REMARK    2  A    between atoms: C2_2  and  N1_46 
REMARK    3  A    between atoms: C3_3  and  O2_37 
REMARK    4  A    between atoms: C5_5  and  C6_6 
REMARK    5  A    between atoms: C5_5  and  O4_39 
REMARK    6  A    between atoms: C9_9  and  N2_47 
REMARK    7  A    between atoms: C11_11  and  C14_14 
REMARK    8  A    between atoms: C14_14  and  C15_15 
REMARK       I    between atoms: C15_15  and  N4_49 
REMARK    9  A    between atoms: C16_16  and  C17_17 
REMARK   10  A    between atoms: C16_16  and  N4_49 
REMARK   11  A    between atoms: C17_17  and  C18_18 
REMARK   12  A    between atoms: C18_18  and  C19_19 
REMARK   13  A    between atoms: C19_19  and  C20_20 
REMARK   14  A    between atoms: C20_20  and  C21_21 
REMARK   15  A    between atoms: C21_21  and  C22_22 
REMARK   16  A    between atoms: C22_22  and  C23_23 
REMARK   17  A    between atoms: C23_23  and  C24_24 
REMARK   18  A    between atoms: C24_24  and  C25_25 
REMARK   19  A    between atoms: C25_25  and  C26_26 
REMARK   20  A    between atoms: C26_26  and  C27_27 
REMARK   21  A    between atoms: C27_27  and  N5_50 
REMARK   22  A    between atoms: C28_28  and  C29_29 
REMARK       I    between atoms: C28_28  and  N5_50 
REMARK   23  A    between atoms: C30_30  and  O10_45 
REMARK   24  A    between atoms: O4_39  and  P1_51 
REMARK   25  A    between atoms: O10_45  and  P1_51 
REMARK   26  A    between atoms: N1_46  and  P1_51 
USER                              x       y       z     vdW  Elec       q    Type
USER                           _______ _______ _______ _____ _____    ______ ____
ROOT
ATOM      1  C10 UNL     1      11.787   7.363   7.088 -0.06 +0.00    +0.112 C 
ATOM      2  C11 UNL     1      12.451   7.589   8.228 +0.46 +0.00    +0.034 C 
ATOM      3  C12 UNL     1      13.603   8.514   8.182 +0.13 +0.00    +0.257 C 
ATOM      4  C13 UNL     1      13.168   8.890   5.817 +0.66 +0.00    +0.331 C 
ATOM      5  O6  UNL     1      14.357   8.645   9.142 +0.80 -0.00    -0.267 OA
ATOM      6  O7  UNL     1      13.584   9.438   4.799 +3.45 -0.00    -0.246 OA
ATOM      7  N2  UNL     1      12.135   7.962   5.887 -0.21 -0.00    -0.278 N 
ATOM      8  N3  UNL     1      13.781   9.182   7.010 +1.02 -0.00    -0.275 N 
ATOM      9  H47 UNL     1      14.577   9.798   6.948 +0.69 +0.00    +0.173 HD
ENDROOT
BRANCH   2  10
ATOM     10  C14 UNL     1      12.124   6.963   9.550 +5.73 +0.00    +0.148 C 
BRANCH  10  11
ATOM     11  C15 UNL     1      11.819   5.488   9.347 -0.07 +0.00    +0.222 C 
ATOM     12  O8  UNL     1      10.703   5.025   9.572 +2.23 -0.00    -0.273 OA
ATOM     13  N4  UNL     1      12.877   4.747   8.870 -0.00 -0.00    -0.361 N 
ATOM     14  H48 UNL     1      13.700   5.252   8.538 +0.13 +0.00    +0.162 HD
BRANCH  13  15
ATOM     15  C16 UNL     1      12.748   3.350   8.511 +0.01 +0.00    +0.122 C 
BRANCH  15  16
ATOM     16  C17 UNL     1      11.440   3.017   7.792 +0.37 +0.00    +0.020 C 
BRANCH  16  17
ATOM     17  C18 UNL     1      11.054   4.046   6.724 -0.53 +0.00    +0.002 C 
BRANCH  17  18
ATOM     18  C19 UNL     1      11.821   3.791   5.423 -0.41 +0.00    +0.000 C 
BRANCH  18  19
ATOM     19  C20 UNL     1      13.059   4.676   5.244 +1.71 +0.00    +0.000 C 
BRANCH  19  20
ATOM     20  C21 UNL     1      14.136   4.425   6.303 +2.14 +0.00    +0.000 C 
BRANCH  20  21
ATOM     21  C22 UNL     1      14.751   5.709   6.867 +0.05 +0.00    +0.000 C 
BRANCH  21  22
ATOM     22  C23 UNL     1      14.625   6.901   5.914 -0.26 +0.00    +0.000 C 
BRANCH  22  23
ATOM     23  C24 UNL     1      15.245   6.642   4.537 +3.38 +0.00    +0.000 C 
BRANCH  23  24
ATOM     24  C25 UNL     1      14.856   7.632   3.435 -0.27 +0.00    +0.002 C 
BRANCH  24  25
ATOM     25  C26 UNL     1      16.055   8.194   2.670 -0.45 +0.00    +0.020 C 
BRANCH  25  26
ATOM     26  C27 UNL     1      17.166   8.624   3.622 -0.52 +0.00    +0.123 C 
BRANCH  26  27
ATOM     27  N5  UNL     1      18.362   9.001   2.897 -0.21 -0.00    -0.353 N 
ATOM     28  C28 UNL     1      18.639  10.339   2.614 -0.23 +0.00    +0.325 C 
ATOM     29  O9  UNL     1      17.959  11.255   3.079 -0.32 -0.00    -0.263 OA
ATOM     30  H49 UNL     1      18.811   8.307   2.305 +0.13 +0.00    +0.162 HD
BRANCH  28  31
ATOM     31  C29 UNL     1      19.867  10.562   1.704 -0.16 +0.00    +0.472 C 
ATOM     32  F1  UNL     1      19.633  10.205   0.412 -0.15 -0.00    -0.162 F 
ATOM     33  F2  UNL     1      20.963   9.866   2.115 -0.15 -0.00    -0.162 F 
ATOM     34  F3  UNL     1      20.241  11.877   1.676 -0.19 -0.00    -0.162 F 
ENDBRANCH  28  31
ENDBRANCH  26  27
ENDBRANCH  25  26
ENDBRANCH  24  25
ENDBRANCH  23  24
ENDBRANCH  22  23
ENDBRANCH  21  22
ENDBRANCH  20  21
ENDBRANCH  19  20
ENDBRANCH  18  19
ENDBRANCH  17  18
ENDBRANCH  16  17
ENDBRANCH  15  16
ENDBRANCH  13  15
ENDBRANCH  10  11
ENDBRANCH   2  10
BRANCH   7  35
ATOM     35  C9  UNL     1      11.410   7.575   4.680 -0.22 +0.00    +0.257 A 
ATOM     36  C8  UNL     1       9.983   7.979   4.721 +0.11 +0.00    +0.025 A 
ATOM     37  C7  UNL     1       9.211   6.899   4.613 +0.26 +0.00    +0.007 A 
ATOM     38  C6  UNL     1      10.061   5.673   4.514 -0.17 +0.00    +0.171 A 
ATOM     39  O5  UNL     1      11.428   6.151   4.501 -0.14 -0.00    -0.352 OA
BRANCH  38  40
ATOM     40  C5  UNL     1       9.801   4.860   3.246 -0.10 +0.00    +0.215 C 
BRANCH  40  41
ATOM     41  O4  UNL     1       8.841   5.513   2.431 -0.09 -0.00    -0.299 OA
BRANCH  41  42
ATOM     42  P1  UNL     1       8.254   4.692   1.172 -0.03 +0.00    +0.413 P 
ATOM     43  O3  UNL     1       8.939   3.371   0.992 -0.11 -0.00    -0.239 OA
BRANCH  42  44
ATOM     44  O10 UNL     1       6.687   4.589   1.513 -0.06 -0.00    -0.260 OA
BRANCH  44  45
ATOM     45  C30 UNL     1       6.102   4.939   2.695 -0.12 +0.00    +0.080 A 
ATOM     46  C31 UNL     1       6.676   4.385   3.842 -0.18 +0.00    +0.037 A 
ATOM     47  C32 UNL     1       6.148   4.670   5.101 -0.27 +0.00    +0.003 A 
ATOM     48  C33 UNL     1       5.046   5.515   5.216 -0.23 +0.00    +0.000 A 
ATOM     49  C34 UNL     1       4.477   6.075   4.073 -0.14 +0.00    +0.003 A 
ATOM     50  C35 UNL     1       5.005   5.789   2.811 -0.20 +0.00    +0.037 A 
ENDBRANCH  44  45
ENDBRANCH  42  44
BRANCH  42  51
ATOM     51  N1  UNL     1       8.395   5.689  -0.118 -0.09 -0.00    -0.213 NA
ATOM     52  H46 UNL     1       9.028   5.307  -0.809 +0.06 +0.00    +0.134 HD
BRANCH  51  53
ATOM     53  C2  UNL     1       8.651   7.121   0.066 -0.29 +0.00    +0.162 C 
ATOM     54  C1  UNL     1       7.573   7.728   0.959 -0.44 +0.00    +0.037 C 
BRANCH  53  55
ATOM     55  C3  UNL     1      10.029   7.368   0.694 -0.04 +0.00    +0.276 C 
ATOM     56  O1  UNL     1      10.226   7.694   1.858 -0.15 -0.00    -0.263 OA
BRANCH  55  57
ATOM     57  O2  UNL     1      11.004   7.165  -0.237 -0.19 -0.00    -0.325 OA
ATOM     58  C4  UNL     1      10.575   7.371  -1.584 -0.23 +0.00    +0.213 C 
ENDBRANCH  55  57
ENDBRANCH  53  55
ENDBRANCH  51  53
ENDBRANCH  42  51
ENDBRANCH  41  42
ENDBRANCH  40  41
ENDBRANCH  38  40
ENDBRANCH   7  35
TORSDOF 26
TER
