USER    Run = 1
USER    DPF = ligand_302_receptor.dpf
USER  
USER    Estimated Free Energy of Binding    =  +6.38e+003 kcal/mol  [=(1)+(2)+(3)-(4)]
USER    
USER    (1) Final Intermolecular Energy     =  +6.38e+003 kcal/mol
USER        vdW + Hbond + desolv Energy     =  +6.38e+003 kcal/mol
USER        Electrostatic Energy            =   +0.00 kcal/mol
USER    (2) Final Total Internal Energy     =   +0.00 kcal/mol
USER    (3) Torsional Free Energy           =   +1.19 kcal/mol
USER    (4) Unbound System's Energy  [=(2)] =   +0.00 kcal/mol
USER    
USER    
USER    NEWDPF move ligand_302.pdbqt
USER    NEWDPF about 0.000000 0.000000 0.000000
USER    NEWDPF tran0 10.981895 6.286760 2.079525
USER    NEWDPF quaternion0 -0.043125 -0.791806 -0.439464 -0.421966
USER    NEWDPF axisangle0 -0.047567 -0.873368 -0.484732 -130.082509
USER    NEWDPF quat0 -0.047567 -0.873368 -0.484732 -130.082509
USER  keepresnum = 1 
USER  
REMARK  0 active torsions:
REMARK  status: ('A' for Active; 'I' for Inactive)
REMARK       I    between atoms: C2_2  and  C4_4 
REMARK       I    between atoms: C4_4  and  C5_5 
REMARK       I    between atoms: C5_5  and  C6_6 
REMARK       I    between atoms: C5_5  and  N5_57 
REMARK       I    between atoms: C6_6  and  N1_53 
REMARK       I    between atoms: C7_7  and  C8_8 
REMARK       I    between atoms: C7_7  and  N1_53 
REMARK       I    between atoms: C8_8  and  N2_54 
REMARK       I    between atoms: C9_9  and  C10_10 
REMARK       I    between atoms: C9_9  and  N2_54 
REMARK       I    between atoms: C10_10  and  N3_55 
REMARK       I    between atoms: C11_11  and  C12_12 
REMARK       I    between atoms: C11_11  and  C13_13 
REMARK       I    between atoms: C11_11  and  N3_55 
REMARK       I    between atoms: C12_12  and  S1_72 
REMARK       I    between atoms: C13_13  and  N4_56 
REMARK       I    between atoms: C14_14  and  C15_15 
REMARK       I    between atoms: C14_14  and  N5_57 
REMARK       I    between atoms: C15_15  and  C16_16 
REMARK       I    between atoms: C15_15  and  N9_62 
REMARK       I    between atoms: C16_16  and  C17_17 
REMARK       I    between atoms: C17_17  and  C18_18 
REMARK       I    between atoms: C18_18  and  N6_58 
REMARK       I    between atoms: C19_19  and  N7_60 
REMARK       I    between atoms: C19_19  and  N8_61 
REMARK       I    between atoms: C20_20  and  C21_21 
REMARK       I    between atoms: C20_20  and  N9_62 
REMARK       I    between atoms: C21_21  and  C22_22 
REMARK       I    between atoms: C21_21  and  N13_67 
REMARK       I    between atoms: C22_22  and  C23_23 
REMARK       I    between atoms: C23_23  and  C24_24 
REMARK       I    between atoms: C24_24  and  N10_63 
REMARK       I    between atoms: C25_25  and  N11_65 
REMARK       I    between atoms: C25_25  and  N12_66 
REMARK       I    between atoms: C26_26  and  C27_27 
REMARK       I    between atoms: C26_26  and  N13_67 
REMARK       I    between atoms: C27_27  and  N14_68 
REMARK       I    between atoms: C28_28  and  C29_29 
REMARK       I    between atoms: C28_28  and  N14_68 
REMARK       I    between atoms: C29_29  and  N15_69 
REMARK       I    between atoms: C30_30  and  C31_31 
REMARK       I    between atoms: C30_30  and  N15_69 
REMARK       I    between atoms: C31_31  and  C32_32 
REMARK       I    between atoms: C31_31  and  N16_70 
REMARK       I    between atoms: C32_32  and  S2_73 
REMARK       I    between atoms: C33_33  and  C34_34 
REMARK       I    between atoms: C33_33  and  N16_70 
REMARK       I    between atoms: C34_34  and  C35_35 
REMARK       I    between atoms: C34_34  and  N17_71 
REMARK       I    between atoms: C35_35  and  C36_36 
REMARK       I    between atoms: C39_39  and  O11_52 
USER                              x       y       z     vdW  Elec       q    Type
USER                           _______ _______ _______ _____ _____    ______ ____
ROOT
ATOM      1  C1  UNL     1      14.971   7.015  -2.020+39.16 +0.00    +0.009 C 
ATOM      2  C2  UNL     1      13.760   7.361  -1.146 +9.52 -0.00    -0.020 C 
ATOM      3  C3  UNL     1      12.506   7.411  -2.017+10.11 +0.00    +0.009 C 
ATOM      4  C4  UNL     1      13.662   6.347   0.016 +2.65 +0.00    +0.038 C 
ATOM      5  C5  UNL     1      12.617   6.639   1.107 -0.19 +0.00    +0.177 C 
ATOM      6  C6  UNL     1      12.700   8.082   1.642+64.64 +0.00    +0.240 C 
ATOM      7  C7  UNL     1      14.122   9.735   2.752+15.75 +0.00    +0.225 C 
ATOM      8  C8  UNL     1      14.894  10.411   1.616+16.34 +0.00    +0.235 C 
ATOM      9  C9  UNL     1      15.052  12.458   0.252 +3.47 +0.00    +0.225 C 
ATOM     10  C10 UNL     1      16.540  12.744  -0.015+19.26 +0.00    +0.236 C 
ATOM     11  C11 UNL     1      18.861  11.975   0.400 -0.48 +0.00    +0.185 C 
ATOM     12  C12 UNL     1      19.692  11.763   1.672 -0.60 +0.00    +0.105 C 
ATOM     13  C13 UNL     1      19.081  10.813  -0.592 +2.11 +0.00    +0.239 C 
ATOM     14  C14 UNL     1      10.664   5.147   0.715 +0.93 +0.00    +0.241 C 
ATOM     15  C15 UNL     1       9.176   5.145   0.306 -0.12 +0.00    +0.176 C 
ATOM     16  C16 UNL     1       9.057   5.214  -1.227 -0.19 +0.00    +0.036 C 
ATOM     17  C17 UNL     1       9.870   4.154  -1.981 -0.23 +0.00    +0.022 C 
ATOM     18  C18 UNL     1       9.486   2.717  -1.629 -0.16 +0.00    +0.121 C 
ATOM     19  C19 UNL     1      11.448   1.399  -1.685 -0.17 +0.00    +0.121 C 
ATOM     20  C20 UNL     1       7.180   6.502   0.927 -0.22 +0.00    +0.241 C 
ATOM     21  C21 UNL     1       6.663   7.656   1.821 -0.35 +0.00    +0.176 C 
ATOM     22  C22 UNL     1       6.873   9.012   1.131+20.07 +0.00    +0.036 C 
ATOM     23  C23 UNL     1       6.313   9.116  -0.291+16.37 +0.00    +0.022 C 
ATOM     24  C24 UNL     1       4.809   8.869  -0.386+99.99 +0.00    +0.121 C 
ATOM     25  C25 UNL     1       4.377   7.770  -2.431+99.99 +0.00    +0.121 C 
ATOM     26  C26 UNL     1       6.984   6.747   4.096 +2.43 +0.00    +0.236 C 
ATOM     27  C27 UNL     1       7.885   6.783   5.342+28.55 +0.00    +0.225 C 
ATOM     28  C28 UNL     1       9.937   5.865   4.349 -0.18 +0.00    +0.235 C 
ATOM     29  C29 UNL     1      10.991   4.753   4.393 -0.17 +0.00    +0.225 C 
ATOM     30  C30 UNL     1      11.982   4.654   6.646 -0.34 +0.00    +0.241 C 
ATOM     31  C31 UNL     1      12.072   3.857   7.963 -0.37 +0.00    +0.185 C 
ATOM     32  C32 UNL     1      13.440   3.158   7.962 +2.47 +0.00    +0.105 C 
ATOM     33  C33 UNL     1       9.711   3.343   8.464 +0.30 +0.00    +0.251 C 
ATOM     34  C34 UNL     1       8.768   2.256   9.044 +0.52 +0.00    +0.313 C 
ATOM     35  C35 UNL     1       8.423   1.173   7.996+99.99 +0.00    +0.083 C 
ATOM     36  C36 UNL     1       8.003   1.703   6.643+99.99 -0.00    -0.056 A 
ATOM     37  C37 UNL     1       6.871   2.518   6.518+99.99 +0.00    +0.010 A 
ATOM     38  C38 UNL     1       6.536   3.087   5.291 +5.72 +0.00    +0.037 A 
ATOM     39  C39 UNL     1       7.330   2.838   4.179 +0.06 +0.00    +0.065 A 
ATOM     40  C40 UNL     1       8.415   1.974   4.261+42.35 +0.00    +0.037 A 
ATOM     41  C41 UNL     1       8.751   1.404   5.491+99.99 +0.00    +0.010 A 
ATOM     42  O1  UNL     1      11.828   8.922   1.417+99.99 -0.00    -0.271 OA
ATOM     43  O2  UNL     1      15.716   9.813   0.918 -0.10 -0.00    -0.272 OA
ATOM     44  O3  UNL     1      16.891  13.495  -0.922+99.99 -0.00    -0.272 OA
ATOM     45  O4  UNL     1      20.018  10.772  -1.386+95.79 -0.00    -0.271 OA
ATOM     46  O5  UNL     1      11.294   4.116   0.949+99.99 -0.00    -0.271 OA
ATOM     47  O6  UNL     1       6.441   5.941   0.119 -0.17 -0.00    -0.271 OA
ATOM     48  O7  UNL     1       6.099   5.911   3.926 -0.13 -0.00    -0.272 OA
ATOM     49  O8  UNL     1       9.916   6.705   3.445 -0.19 -0.00    -0.272 OA
ATOM     50  O9  UNL     1      12.698   5.632   6.432 -0.26 -0.00    -0.271 OA
ATOM     51  O10 UNL     1       9.392   4.517   8.287 -0.35 -0.00    -0.271 OA
ATOM     52  O11 UNL     1       7.084   3.460   2.992 -0.08 -0.00    -0.361 OA
ATOM     53  N1  UNL     1      13.834   8.368   2.372 +9.04 -0.00    -0.351 N 
ATOM     54  N2  UNL     1      14.690  11.769   1.490 +0.83 -0.00    -0.351 N 
ATOM     55  N3  UNL     1      17.437  12.048   0.762 -0.21 -0.00    -0.346 N 
ATOM     56  N4  UNL     1      18.271   9.715  -0.456 -0.01 -0.00    -0.368 N 
ATOM     57  N5  UNL     1      11.256   6.388   0.669 -0.18 -0.00    -0.346 N 
ATOM     58  N6  UNL     1      10.403   1.801  -2.301 -0.05 -0.00    -0.372 N 
ATOM     59  H6  UNL     1      10.211   1.484  -3.251 +0.24 +0.00    +0.161 HD
ATOM     60  N7  UNL     1      12.278   0.523  -2.295 -0.49 -0.00    -0.279 NA
ATOM     61  N8  UNL     1      11.922   1.688  -0.453 +0.87 -0.00    -0.279 NA
ATOM     62  N9  UNL     1       8.542   6.289   0.979 -0.06 -0.00    -0.346 N 
ATOM     63  N10 UNL     1       4.412   8.876  -1.790 +9.05 -0.00    -0.372 N 
ATOM     64  H10 UNL     1       4.165   9.751  -2.253 +0.01 +0.00    +0.161 HD
ATOM     65  N11 UNL     1       4.667   6.508  -2.045+99.99 -0.00    -0.279 NA
ATOM     66  N12 UNL     1       3.979   7.768  -3.723+99.99 -0.00    -0.279 NA
ATOM     67  N13 UNL     1       7.333   7.665   3.124 +0.33 -0.00    -0.346 N 
ATOM     68  N14 UNL     1       8.919   5.769   5.270 -0.06 -0.00    -0.351 N 
ATOM     69  N15 UNL     1      11.148   4.126   5.690 -0.19 -0.00    -0.351 N 
ATOM     70  N16 UNL     1      10.979   2.886   8.151 +0.78 -0.00    -0.345 N 
ATOM     71  N17 UNL     1       7.569   2.878   9.637+30.84 +0.00    +0.092 N 
ATOM     72  S1  UNL     1      21.475  12.079   1.470+99.99 -0.00    -0.180 SA
ATOM     73  S2  UNL     1      13.709   2.194   9.491+38.73 -0.00    -0.180 SA
ATOM     74  H46 UNL     1       6.443   4.185   3.165 +0.09 +0.00    +0.217 HD
ATOM     75  H47 UNL     1      14.623   7.735   2.300 -0.43 +0.00    +0.163 HD
ATOM     76  H48 UNL     1      13.859  12.131   1.945 +0.10 +0.00    +0.163 HD
ATOM     77  H49 UNL     1      17.057  11.261   1.275 +0.14 +0.00    +0.163 HD
ATOM     78  H50 UNL     1      18.397   9.009  -1.171 +0.14 +0.00    +0.159 HD
ATOM     79  H51 UNL     1      17.325   9.804  -0.095 +0.12 +0.00    +0.159 HD
ATOM     80  H52 UNL     1      10.650   7.201   0.568 +0.09 +0.00    +0.163 HD
ATOM     81  H53 UNL     1      11.838   0.190  -3.148 +0.06 +0.00    +0.126 HD
ATOM     82  H54 UNL     1      12.507  -0.257  -1.691 -0.34 +0.00    +0.126 HD
ATOM     83  H55 UNL     1      12.932   1.753  -0.440 -0.26 +0.00    +0.126 HD
ATOM     84  H56 UNL     1      11.531   2.526  -0.019 -0.44 +0.00    +0.126 HD
ATOM     85  H57 UNL     1       8.972   6.556   1.866 +0.09 +0.00    +0.163 HD
ATOM     86  H58 UNL     1       5.218   6.415  -1.188 -0.46 +0.00    +0.126 HD
ATOM     87  H59 UNL     1       5.114   5.969  -2.777+99.99 +0.00    +0.126 HD
ATOM     88  H60 UNL     1       3.593   8.677  -3.956 -0.18 +0.00    +0.126 HD
ATOM     89  H61 UNL     1       3.301   7.037  -3.904+99.99 +0.00    +0.126 HD
ATOM     90  H62 UNL     1       8.294   8.000   3.165 +0.08 +0.00    +0.163 HD
ATOM     91  H63 UNL     1       9.083   5.211   6.105 +0.10 +0.00    +0.163 HD
ATOM     92  H64 UNL     1      10.471   3.428   5.977 +0.10 +0.00    +0.163 HD
ATOM     93  H65 UNL     1      11.259   2.022   8.606 +0.53 +0.00    +0.163 HD
ATOM     94  H66 UNL     1       7.133   2.240  10.300 +1.52 +0.00    +0.313 HD
ATOM     95  H67 UNL     1       7.842   3.716  10.153 +1.41 +0.00    +0.313 HD
ATOM     96  H68 UNL     1      21.362  13.300   0.923 +3.79 +0.00    +0.101 HD
ATOM     97  H69 UNL     1      13.875   3.245  10.310 +4.43 +0.00    +0.101 HD
ENDROOT
TORSDOF 37
TER
