USER    Run = 1
USER    DPF = ligand_433_receptor.dpf
USER  
USER    Estimated Free Energy of Binding    =   -0.65 kcal/mol  [=(1)+(2)+(3)-(4)]
USER    Estimated Inhibition Constant, Ki   =  333.64 mM (millimolar)  [Temperature = 298.15 K]
USER    
USER    (1) Final Intermolecular Energy     =   -1.84 kcal/mol
USER        vdW + Hbond + desolv Energy     =   -1.84 kcal/mol
USER        Electrostatic Energy            =   +0.00 kcal/mol
USER    (2) Final Total Internal Energy     =   +5.05 kcal/mol
USER    (3) Torsional Free Energy           =   +1.19 kcal/mol
USER    (4) Unbound System's Energy  [=(2)] =   +5.05 kcal/mol
USER    
USER    
USER    NEWDPF move ligand_433.pdbqt
USER    NEWDPF about 0.000000 0.000000 0.000000
USER    NEWDPF tran0 22.542261 11.097010 3.071651
USER    NEWDPF quaternion0 -0.163032 -0.089359 -0.809808 0.556459
USER    NEWDPF axisangle0 -0.196217 -0.107548 -0.974645 112.377492
USER    NEWDPF quat0 -0.196217 -0.107548 -0.974645 112.377492
USER    NEWDPF dihe0 -70.71 59.81 180.00 -118.20 113.68 -93.73 -22.52 -116.95 -180.00 25.36 74.36 26.62 179.82 39.82 167.20 144.52 -20.50 -0.69 180.00 56.66 -30.02 
USER  keepresnum = 1 
USER  
REMARK  21 active torsions:
REMARK  status: ('A' for Active; 'I' for Inactive)
REMARK    1  A    between atoms: C2_2  and  O1_38 
REMARK    2  A    between atoms: C7_7  and  N3_45 
REMARK    3  A    between atoms: C8_8  and  N3_45 
REMARK    4  A    between atoms: C17_17  and  O2_39 
REMARK    5  A    between atoms: C18_18  and  C19_19 
REMARK    6  A    between atoms: C18_18  and  O2_39 
REMARK    7  A    between atoms: C19_19  and  S1_51 
REMARK    8  A    between atoms: C20_20  and  C21_21 
REMARK    9  A    between atoms: C20_20  and  S1_51 
REMARK       I    between atoms: C21_21  and  N4_46 
REMARK   10  A    between atoms: C22_22  and  C23_23 
REMARK   11  A    between atoms: C22_22  and  N4_46 
REMARK   12  A    between atoms: C23_23  and  C24_24 
REMARK   13  A    between atoms: C24_24  and  C25_25 
REMARK   14  A    between atoms: C25_25  and  C26_26 
REMARK   15  A    between atoms: C26_26  and  C27_27 
REMARK   16  A    between atoms: C27_27  and  N5_47 
REMARK   17  A    between atoms: C28_28  and  C29_29 
REMARK       I    between atoms: C28_28  and  N5_47 
REMARK   18  A    between atoms: C29_29  and  C30_30 
REMARK   19  A    between atoms: C30_30  and  C31_31 
REMARK   20  A    between atoms: C31_31  and  C32_32 
REMARK   21  A    between atoms: C32_32  and  C33_33 
USER                              x       y       z     vdW  Elec       q    Type
USER                           _______ _______ _______ _____ _____    ______ ____
ROOT
ATOM      1  C20 UNL     1      18.008  11.125   1.493 -0.46 +0.00    +0.176 C 
ENDROOT
BRANCH   1   2
ATOM      2  C21 UNL     1      18.683   9.787   1.748 -0.29 +0.00    +0.226 C 
ATOM      3  O3  UNL     1      18.716   8.888   0.909 +1.47 -0.00    -0.273 OA
ATOM      4  N4  UNL     1      19.256   9.663   2.997 -0.12 -0.00    -0.360 N 
ATOM      5  H45 UNL     1      19.098  10.399   3.686 +0.20 +0.00    +0.162 HD
BRANCH   4   6
ATOM      6  C22 UNL     1      19.926   8.452   3.417 +0.16 +0.00    +0.122 C 
BRANCH   6   7
ATOM      7  C23 UNL     1      21.370   8.370   2.928 +1.27 +0.00    +0.020 C 
BRANCH   7   8
ATOM      8  C24 UNL     1      21.681   9.143   1.641 -0.14 +0.00    +0.002 C 
BRANCH   8   9
ATOM      9  C25 UNL     1      22.560  10.386   1.837 +2.41 +0.00    +0.002 C 
BRANCH   9  10
ATOM     10  C26 UNL     1      23.817  10.375   0.962 +0.90 +0.00    +0.020 C 
BRANCH  10  11
ATOM     11  C27 UNL     1      25.099  10.138   1.761 -0.23 +0.00    +0.122 C 
BRANCH  11  12
ATOM     12  N5  UNL     1      25.400   8.732   1.933 -0.18 -0.00    -0.361 N 
ATOM     13  C28 UNL     1      25.137   8.060   3.105 -0.36 +0.00    +0.217 C 
ATOM     14  O4  UNL     1      24.588   8.567   4.078 -0.63 -0.00    -0.274 OA
ATOM     15  H46 UNL     1      25.900   8.258   1.193 +0.13 +0.00    +0.162 HD
BRANCH  13  16
ATOM     16  C29 UNL     1      25.612   6.621   3.110 +0.95 +0.00    +0.103 C 
BRANCH  16  17
ATOM     17  C30 UNL     1      25.233   5.879   1.827 -0.24 +0.00    +0.009 C 
BRANCH  17  18
ATOM     18  C31 UNL     1      25.548   6.696   0.569 -0.46 +0.00    +0.002 C 
BRANCH  18  19
ATOM     19  C32 UNL     1      26.930   6.390  -0.020 -0.38 +0.00    +0.017 C 
BRANCH  19  20
ATOM     20  C33 UNL     1      27.234   4.899  -0.212 -0.33 +0.00    +0.072 C 
ATOM     21  C34 UNL     1      28.599   4.630  -0.875 -0.19 +0.00    +0.123 C 
ATOM     22  C35 UNL     1      28.506   3.302  -1.635 -0.21 +0.00    +0.119 C 
ATOM     23  N7  UNL     1      29.614   4.312   0.110 -0.07 -0.00    -0.335 N 
ATOM     24  C36 UNL     1      27.138   3.154  -2.272 -0.31 +0.00    +0.101 C 
ATOM     25  N6  UNL     1      28.853   2.335  -0.616 -0.11 -0.00    -0.336 N 
ATOM     26  S2  UNL     1      25.978   4.148  -1.302 -0.60 -0.00    -0.160 SA
ATOM     27  C37 UNL     1      29.669   2.944   0.327 -0.20 +0.00    +0.316 C 
ATOM     28  H47 UNL     1      28.995   1.345  -0.776 -0.36 +0.00    +0.164 HD
ATOM     29  O5  UNL     1      30.325   2.382   1.182 -0.29 -0.00    -0.247 OA
ATOM     30  H48 UNL     1      30.054   4.949   0.761 +0.07 +0.00    +0.164 HD
ENDBRANCH  19  20
ENDBRANCH  18  19
ENDBRANCH  17  18
ENDBRANCH  16  17
ENDBRANCH  13  16
ENDBRANCH  11  12
ENDBRANCH  10  11
ENDBRANCH   9  10
ENDBRANCH   8   9
ENDBRANCH   7   8
ENDBRANCH   6   7
ENDBRANCH   4   6
ENDBRANCH   1   2
BRANCH   1  31
ATOM     31  S1  UNL     1      16.741  11.507   2.746 -0.55 -0.00    -0.158 SA
BRANCH  31  32
ATOM     32  C19 UNL     1      17.376  10.578   4.189 -0.09 +0.00    +0.101 C 
BRANCH  32  33
ATOM     33  C18 UNL     1      16.590   9.304   4.500 -0.05 +0.00    +0.186 C 
BRANCH  33  34
ATOM     34  O2  UNL     1      15.334   9.630   5.096 +1.39 -0.00    -0.347 OA
BRANCH  34  35
ATOM     35  C17 UNL     1      14.321   8.693   5.029 -0.03 +0.00    +0.102 A 
ATOM     36  C2  UNL     1      14.414   7.811   3.825 -0.41 +0.00    +0.102 A 
ATOM     37  C3  UNL     1      13.491   6.849   3.579 -0.25 +0.00    +0.053 A 
ATOM     38  C4  UNL     1      12.409   6.677   4.512 -0.39 +0.00    +0.000 A 
ATOM     39  C5  UNL     1      11.363   5.850   4.518 -0.28 +0.00    +0.047 A 
ATOM     40  C15 UNL     1      12.318   7.538   5.713 -0.39 -0.00    -0.020 A 
ATOM     41  C6  UNL     1      10.630   6.118   5.746 -0.29 +0.00    +0.022 A 
ATOM     42  N2  UNL     1      10.729   4.835   3.860 -0.13 -0.00    -0.220 NA
ATOM     43  C7  UNL     1       9.603   5.247   5.837 -0.26 +0.00    +0.086 A 
ATOM     44  C14 UNL     1      11.235   7.213   6.448 -0.30 +0.00    +0.028 A 
ATOM     45  N1  UNL     1       9.678   4.401   4.693 -0.20 -0.00    -0.211 NA
ATOM     46  H42 UNL     1       8.766   4.360   4.232 +0.09 +0.00    +0.148 HD
ATOM     47  H43 UNL     1      11.373   4.116   3.525 -0.44 +0.00    +0.147 HD
ATOM     48  C16 UNL     1      13.318   8.554   5.932 -0.19 +0.00    +0.052 A 
BRANCH  36  49
ATOM     49  O1  UNL     1      15.507   8.093   3.027 -0.36 -0.00    -0.353 OA
ATOM     50  C1  UNL     1      16.571   7.144   3.005 +1.80 +0.00    +0.210 C 
ENDBRANCH  36  49
BRANCH  43  51
ATOM     51  N3  UNL     1       8.612   5.153   6.785 -0.22 -0.00    -0.248 NA
ATOM     52  H44 UNL     1       8.643   5.962   7.401 +0.08 +0.00    +0.135 HD
BRANCH  51  53
ATOM     53  C8  UNL     1       7.263   4.817   6.520 -0.41 +0.00    +0.016 A 
ATOM     54  C9  UNL     1       6.268   5.371   7.331 -0.36 +0.00    +0.066 A 
ATOM     55  C10 UNL     1       4.926   5.122   7.060 -0.32 +0.00    +0.118 A 
ATOM     56  C11 UNL     1       4.544   4.348   5.972 -0.30 +0.00    +0.042 A 
ATOM     57  F1  UNL     1       3.985   5.644   7.858 +0.19 -0.00    -0.206 F 
ATOM     58  C12 UNL     1       5.524   3.820   5.134 -0.27 +0.00    +0.005 A 
ATOM     59  C13 UNL     1       6.875   4.066   5.400 -0.29 +0.00    +0.024 A 
ENDBRANCH  51  53
ENDBRANCH  43  51
ENDBRANCH  34  35
ENDBRANCH  33  34
ENDBRANCH  32  33
ENDBRANCH  31  32
ENDBRANCH   1  31
TORSDOF 21
TER
