USER    Run = 1
USER    DPF = ligand_513_receptor.dpf
USER  
USER    Estimated Free Energy of Binding    =  -10.04 kcal/mol  [=(1)+(2)+(3)-(4)]
USER    Estimated Inhibition Constant, Ki   =   44.02 nM (nanomolar)  [Temperature = 298.15 K]
USER    
USER    (1) Final Intermolecular Energy     =  -11.23 kcal/mol
USER        vdW + Hbond + desolv Energy     =  -11.23 kcal/mol
USER        Electrostatic Energy            =   +0.00 kcal/mol
USER    (2) Final Total Internal Energy     =   -2.20 kcal/mol
USER    (3) Torsional Free Energy           =   +1.19 kcal/mol
USER    (4) Unbound System's Energy  [=(2)] =   -2.20 kcal/mol
USER    
USER    
USER    NEWDPF move ligand_513.pdbqt
USER    NEWDPF about 0.000000 0.000000 0.000000
USER    NEWDPF tran0 20.738271 8.670943 -0.879263
USER    NEWDPF quaternion0 -0.053157 0.432714 -0.847884 0.301703
USER    NEWDPF axisangle0 -0.055756 0.453863 -0.889325 144.880202
USER    NEWDPF quat0 -0.055756 0.453863 -0.889325 144.880202
USER    NEWDPF dihe0 -120.37 -39.64 64.05 9.36 -120.75 -35.20 142.25 65.14 180.00 -147.77 94.95 138.82 
USER  keepresnum = 1 
USER  
REMARK  12 active torsions:
REMARK  status: ('A' for Active; 'I' for Inactive)
REMARK    1  A    between atoms: C1_1  and  N1_29 
REMARK    2  A    between atoms: C1_1  and  O5_44 
REMARK    3  A    between atoms: C3_3  and  N1_29 
REMARK    4  A    between atoms: C5_5  and  C7_7 
REMARK       I    between atoms: C7_7  and  N3_31 
REMARK    5  A    between atoms: C8_8  and  N3_31 
REMARK    6  A    between atoms: C10_10  and  C11_11 
REMARK       I    between atoms: C11_11  and  N6_35 
REMARK    7  A    between atoms: C12_12  and  N6_35 
REMARK    8  A    between atoms: C14_14  and  C16_16 
REMARK       I    between atoms: C16_16  and  N8_37 
REMARK    9  A    between atoms: C17_17  and  N8_37 
REMARK   10  A    between atoms: C19_19  and  C21_21 
REMARK       I    between atoms: C21_21  and  N10_39 
REMARK   11  A    between atoms: C22_22  and  C23_23 
REMARK   12  A    between atoms: C22_22  and  N10_39 
USER                              x       y       z     vdW  Elec       q    Type
USER                           _______ _______ _______ _____ _____    ______ ____
ROOT
ATOM      1  C11 UNL     1      20.690   9.672   2.430 -0.25 +0.00    +0.290 C 
ATOM      2  N6  UNL     1      21.152   9.295   1.122 +0.18 -0.00    -0.319 N 
ATOM      3  O2  UNL     1      21.477   9.634   3.413 -0.28 -0.00    -0.264 OA
ATOM      4  H32 UNL     1      20.582   9.575   0.293 +0.12 +0.00    +0.169 HD
ENDROOT
BRANCH   1   5
ATOM      5  C10 UNL     1      19.298  10.138   2.613 -0.23 +0.00    +0.178 A 
ATOM      6  N4  UNL     1      18.856  11.401   2.389 -0.21 -0.00    -0.339 N 
ATOM      7  C9  UNL     1      17.542  11.385   2.673 -0.39 +0.00    +0.140 A 
ATOM      8  C27 UNL     1      19.609  12.559   1.914 -0.56 +0.00    +0.157 C 
ATOM      9  C8  UNL     1      17.220  10.105   3.076 -0.38 +0.00    +0.125 A 
ATOM     10  N5  UNL     1      18.311   9.315   3.033 -0.23 -0.00    -0.323 N 
ATOM     11  H5  UNL     1      18.376   8.323   3.263 +0.11 +0.00    +0.169 HD
BRANCH   9  12
ATOM     12  N3  UNL     1      15.918   9.620   3.429 -0.20 -0.00    -0.306 N 
ATOM     13  C7  UNL     1      15.576   8.228   3.503 -0.36 +0.00    +0.274 C 
ATOM     14  O1  UNL     1      16.221   7.384   2.823 -0.55 -0.00    -0.266 OA
ATOM     15  H31 UNL     1      15.164  10.326   3.579 +0.09 +0.00    +0.170 HD
BRANCH  13  16
ATOM     16  C5  UNL     1      14.419   7.772   4.300 -0.43 +0.00    +0.105 A 
ATOM     17  C6  UNL     1      14.371   7.807   5.684 +0.29 +0.00    +0.066 A 
ATOM     18  C3  UNL     1      13.136   7.291   6.030 -0.39 +0.00    +0.051 A 
ATOM     19  C4  UNL     1      12.485   6.952   4.863 -0.31 +0.00    +0.120 A 
ATOM     20  N2  UNL     1      13.258   7.270   3.808 -0.22 -0.00    -0.354 N 
ATOM     21  C28 UNL     1      12.874   7.091   2.409 -0.20 +0.00    +0.156 C 
BRANCH  18  22
ATOM     22  N1  UNL     1      12.634   7.035   7.349 -0.16 -0.00    -0.340 N 
ATOM     23  H30 UNL     1      12.208   7.833   7.871 +0.13 +0.00    +0.167 HD
BRANCH  22  24
ATOM     24  C1  UNL     1      12.792   5.726   8.130 -0.51 +0.00    +0.111 C 
ATOM     25  C2  UNL     1      13.904   4.646   7.759 -0.59 +0.00    +0.097 C 
BRANCH  24  26
ATOM     26  O5  UNL     1      12.032   5.547   9.365 -0.29 -0.00    -0.350 OA
ATOM     27  H35 UNL     1      11.936   4.565   9.461 +0.18 +0.00    +0.219 HD
ENDBRANCH  24  26
ENDBRANCH  22  24
ENDBRANCH  18  22
ENDBRANCH  13  16
ENDBRANCH   9  12
ENDBRANCH   1   5
BRANCH   2  28
ATOM     28  C12 UNL     1      22.384   8.603   0.868 -0.07 +0.00    +0.053 A 
ATOM     29  C13 UNL     1      22.719   7.863  -0.249 -0.23 +0.00    +0.120 A 
ATOM     30  N7  UNL     1      23.992   7.435  -0.135 -0.20 -0.00    -0.354 N 
ATOM     31  C14 UNL     1      24.477   7.910   1.040 -0.35 +0.00    +0.105 A 
ATOM     32  C26 UNL     1      24.697   6.634  -1.134 -0.46 +0.00    +0.156 C 
ATOM     33  C15 UNL     1      23.496   8.650   1.685 -0.40 +0.00    +0.066 A 
BRANCH  31  34
ATOM     34  C16 UNL     1      25.854   7.712   1.549 -0.29 +0.00    +0.273 C 
ATOM     35  N8  UNL     1      26.983   7.884   0.677 -0.18 -0.00    -0.320 N 
ATOM     36  H33 UNL     1      26.861   8.448  -0.193 +0.10 +0.00    +0.169 HD
ATOM     37  O3  UNL     1      26.037   7.415   2.761 -0.35 -0.00    -0.266 OA
BRANCH  35  38
ATOM     38  C17 UNL     1      28.300   7.388   0.962 -0.33 +0.00    +0.053 A 
ATOM     39  C18 UNL     1      29.339   8.149   1.451 -0.13 +0.00    +0.120 A 
ATOM     40  N9  UNL     1      30.447   7.387   1.542 -0.17 -0.00    -0.354 N 
ATOM     41  C19 UNL     1      30.124   6.146   1.095 -0.21 +0.00    +0.104 A 
ATOM     42  C25 UNL     1      31.747   7.855   2.020 -0.21 +0.00    +0.156 C 
ATOM     43  C20 UNL     1      28.788   6.117   0.720 -0.13 +0.00    +0.066 A 
BRANCH  41  44
ATOM     44  C21 UNL     1      31.061   5.004   0.984 -0.12 +0.00    +0.268 C 
ATOM     45  N10 UNL     1      30.725   3.725   1.548 -0.10 -0.00    -0.356 N 
ATOM     46  H34 UNL     1      29.878   3.635   2.152 -0.24 +0.00    +0.162 HD
ATOM     47  O4  UNL     1      32.163   5.154   0.391 -0.04 -0.00    -0.266 OA
BRANCH  45  48
ATOM     48  C22 UNL     1      31.607   2.560   1.452 -0.28 +0.00    +0.122 C 
BRANCH  48  49
ATOM     49  C23 UNL     1      31.157   1.455   2.413 -0.58 +0.00    +0.015 C 
ATOM     50  C24 UNL     1      32.084   1.325   3.620 -0.60 +0.00    +0.006 C 
ENDBRANCH  48  49
ENDBRANCH  45  48
ENDBRANCH  41  44
ENDBRANCH  35  38
ENDBRANCH  31  34
ENDBRANCH   2  28
TORSDOF 12
TER
