USER    Run = 1
USER    DPF = ligand_105_receptor.dpf
USER  
USER    Estimated Free Energy of Binding    =   +1.96 kcal/mol  [=(1)+(2)+(3)-(4)]
USER    
USER    (1) Final Intermolecular Energy     =   +0.77 kcal/mol
USER        vdW + Hbond + desolv Energy     =   +0.77 kcal/mol
USER        Electrostatic Energy            =   +0.00 kcal/mol
USER    (2) Final Total Internal Energy     =   +3.21 kcal/mol
USER    (3) Torsional Free Energy           =   +1.19 kcal/mol
USER    (4) Unbound System's Energy  [=(2)] =   +3.21 kcal/mol
USER    
USER    
USER    NEWDPF move ligand_105.pdbqt
USER    NEWDPF about 0.000000 0.000000 0.000000
USER    NEWDPF tran0 9.518911 7.337554 4.179177
USER    NEWDPF quaternion0 -0.338339 0.841242 -0.034866 0.420266
USER    NEWDPF axisangle0 -0.372866 0.927089 -0.038424 130.297272
USER    NEWDPF quat0 -0.372866 0.927089 -0.038424 130.297272
USER    NEWDPF dihe0 119.15 24.56 -43.45 -71.74 180.00 -65.13 -31.90 -78.12 -110.88 -163.89 -163.89 -163.89 -67.00 44.99 161.21 94.99 -18.47 81.49 177.46 -96.82 
USER  keepresnum = 1 
USER  
REMARK  20 active torsions:
REMARK  status: ('A' for Active; 'I' for Inactive)
REMARK    1  A    between atoms: C3_3  and  N11_44 
REMARK    2  A    between atoms: C4_4  and  N3_33 
REMARK    3  A    between atoms: C5_5  and  C6_6 
REMARK       I    between atoms: C5_5  and  N3_33 
REMARK    4  A    between atoms: C6_6  and  C7_7 
REMARK    5  A    between atoms: C7_7  and  C8_8 
REMARK    6  A    between atoms: C8_8  and  C9_9 
REMARK    7  A    between atoms: C9_9  and  C10_10 
REMARK    8  A    between atoms: C10_10  and  N4_34 
REMARK       I    between atoms: C11_11  and  N5_36 
REMARK       I    between atoms: C11_11  and  N6_37 
REMARK    9  A    between atoms: C12_12  and  C13_13 
REMARK       I    between atoms: C12_12  and  N6_37 
REMARK   10  A    between atoms: C14_14  and  N10_43 
REMARK   11  A    between atoms: C15_15  and  N9_42 
REMARK   12  A    between atoms: C17_17  and  C18_18 
REMARK       I    between atoms: C17_17  and  N11_44 
REMARK   13  A    between atoms: C18_18  and  C19_19 
REMARK   14  A    between atoms: C19_19  and  C20_20 
REMARK   15  A    between atoms: C20_20  and  C21_21 
REMARK   16  A    between atoms: C21_21  and  C22_22 
REMARK   17  A    between atoms: C22_22  and  N12_45 
REMARK       I    between atoms: C23_23  and  N13_47 
REMARK       I    between atoms: C23_23  and  N14_48 
REMARK   18  A    between atoms: C24_24  and  C25_25 
REMARK       I    between atoms: C24_24  and  N14_48 
REMARK   19  A    between atoms: C26_26  and  N18_54 
REMARK   20  A    between atoms: C27_27  and  N17_53 
USER                              x       y       z     vdW  Elec       q    Type
USER                           _______ _______ _______ _____ _____    ______ ____
ROOT
ATOM      1  C1  UNL     1      11.124   5.040   4.224 -0.14 +0.00    +0.054 A 
ATOM      2  C2  UNL     1      11.825   5.569   3.137 +1.38 +0.00    +0.054 A 
ATOM      3  C3  UNL     1      12.898   6.408   3.370 +0.24 +0.00    +0.122 A 
ATOM      4  C4  UNL     1      11.521   5.366   5.507 -0.27 +0.00    +0.122 A 
ATOM      5  N1  UNL     1      13.262   6.710   4.632 -0.24 -0.00    -0.284 N 
ATOM      6  H1  UNL     1      14.054   7.332   4.795 +0.13 +0.00    +0.188 HD
ATOM      7  N2  UNL     1      12.572   6.188   5.704 -0.19 -0.00    -0.284 N 
ATOM      8  H2  UNL     1      12.858   6.425   6.654 +0.15 +0.00    +0.188 HD
ENDROOT
BRANCH   3   9
ATOM      9  N11 UNL     1      13.681   7.001   2.376 +1.33 -0.00    -0.312 N 
ATOM     10  C17 UNL     1      14.731   7.875   2.533 +1.21 +0.00    +0.223 C 
ATOM     11  O3  UNL     1      15.179   8.280   3.599 -0.40 -0.00    -0.273 OA
ATOM     12  H31 UNL     1      13.404   6.724   1.443 -0.26 +0.00    +0.170 HD
BRANCH  10  13
ATOM     13  C18 UNL     1      15.320   8.290   1.192 +1.76 +0.00    +0.103 C 
BRANCH  13  14
ATOM     14  C19 UNL     1      16.062   9.626   1.272 -0.40 +0.00    +0.009 C 
BRANCH  14  15
ATOM     15  C20 UNL     1      15.599  10.492   2.449 -0.38 +0.00    +0.002 C 
BRANCH  15  16
ATOM     16  C21 UNL     1      16.090  11.941   2.392 +0.18 +0.00    +0.020 C 
BRANCH  16  17
ATOM     17  C22 UNL     1      17.286  12.231   3.294 +1.47 +0.00    +0.122 C 
BRANCH  17  18
ATOM     18  N12 UNL     1      18.425  11.426   2.872 -0.12 -0.00    -0.367 N 
ATOM     19  C23 UNL     1      18.916  11.522   1.698 -0.54 +0.00    +0.153 C 
ATOM     20  N13 UNL     1      18.476  12.316   0.685 -0.39 -0.00    -0.274 NA
ATOM     21  N14 UNL     1      20.015  10.770   1.368 -0.26 -0.00    -0.298 N 
ATOM     22  H32 UNL     1      17.530  12.659   0.797 +0.05 +0.00    +0.127 HD
ATOM     23  H33 UNL     1      18.622  11.954  -0.250 +0.09 +0.00    +0.127 HD
ATOM     24  C24 UNL     1      20.731   9.878   2.164 -0.27 +0.00    +0.277 C 
ATOM     25  H34 UNL     1      20.482  11.025   0.506 +0.14 +0.00    +0.171 HD
ATOM     26  O4  UNL     1      20.352   9.340   3.197 -0.28 -0.00    -0.265 OA
ATOM     27  H12 UNL     1      18.840  10.769   3.532 +0.13 +0.00    +0.162 HD
BRANCH  24  28
ATOM     28  C25 UNL     1      22.065   9.529   1.582 -0.31 +0.00    +0.141 A 
ATOM     29  C26 UNL     1      22.473  10.020   0.326 -0.36 +0.00    +0.112 A 
ATOM     30  N15 UNL     1      23.689   9.685  -0.168 +0.33 -0.00    -0.334 N 
ATOM     31  C27 UNL     1      24.487   8.897   0.582 -0.17 +0.00    +0.118 A 
ATOM     32  H15 UNL     1      23.992  10.020  -1.083 +0.35 +0.00    +0.168 HD
ATOM     33  C28 UNL     1      24.045   8.433   1.833 -0.33 +0.00    +0.142 A 
ATOM     34  N16 UNL     1      22.840   8.724   2.369 -0.19 -0.00    -0.337 N 
ATOM     35 CL2  UNL     1      25.018   7.423   2.830 +0.23 -0.00    -0.061 Cl
ATOM     36  H16 UNL     1      22.536   8.375   3.278 +0.12 +0.00    +0.167 HD
BRANCH  29  37
ATOM     37  N18 UNL     1      21.659  10.792  -0.518 +0.27 -0.00    -0.286 NA
ATOM     38  H37 UNL     1      22.240  11.210  -1.251 +0.15 +0.00    +0.125 HD
ATOM     39  H38 UNL     1      21.311  11.600  -0.004 +0.09 +0.00    +0.125 HD
ENDBRANCH  29  37
BRANCH  31  40
ATOM     40  N17 UNL     1      25.747   8.573   0.048 +0.10 -0.00    -0.286 NA
ATOM     41  H35 UNL     1      25.707   7.666  -0.408 +0.08 +0.00    +0.125 HD
ATOM     42  H36 UNL     1      26.431   8.503   0.797 +0.08 +0.00    +0.125 HD
ENDBRANCH  31  40
ENDBRANCH  24  28
ENDBRANCH  17  18
ENDBRANCH  16  17
ENDBRANCH  15  16
ENDBRANCH  14  15
ENDBRANCH  13  14
ENDBRANCH  10  13
ENDBRANCH   3   9
BRANCH   4  43
ATOM     43  N3  UNL     1      10.910   4.907   6.675 -0.15 -0.00    -0.312 N 
ATOM     44  C5  UNL     1       9.962   5.546   7.446 -0.11 +0.00    +0.223 C 
ATOM     45  O1  UNL     1       9.481   6.648   7.218 +0.59 -0.00    -0.273 OA
ATOM     46  H23 UNL     1      11.226   3.987   6.949 +0.12 +0.00    +0.170 HD
BRANCH  44  47
ATOM     47  C6  UNL     1       9.549   4.694   8.637 -0.12 +0.00    +0.103 C 
BRANCH  47  48
ATOM     48  C7  UNL     1       8.167   4.056   8.502 -0.06 +0.00    +0.009 C 
BRANCH  48  49
ATOM     49  C8  UNL     1       7.699   3.811   7.064 -0.48 +0.00    +0.002 C 
BRANCH  49  50
ATOM     50  C9  UNL     1       8.532   4.471   5.958 -0.41 +0.00    +0.020 C 
BRANCH  50  51
ATOM     51  C10 UNL     1       8.728   3.628   4.697 -0.33 +0.00    +0.122 C 
BRANCH  51  52
ATOM     52  N4  UNL     1       8.674   4.457   3.504 -0.05 -0.00    -0.367 N 
ATOM     53  C11 UNL     1       8.583   3.960   2.333 -0.15 +0.00    +0.153 C 
ATOM     54  N5  UNL     1       8.495   2.643   2.004 -0.14 -0.00    -0.274 NA
ATOM     55  N6  UNL     1       8.573   4.800   1.248 -0.03 -0.00    -0.298 N 
ATOM     56  H24 UNL     1       8.226   2.039   2.771 -0.25 +0.00    +0.127 HD
ATOM     57  H25 UNL     1       7.957   2.438   1.172 +0.05 +0.00    +0.127 HD
ATOM     58  C12 UNL     1       8.664   6.190   1.223 -0.13 +0.00    +0.277 C 
ATOM     59  H26 UNL     1       8.686   4.358   0.344 +0.07 +0.00    +0.171 HD
ATOM     60  O2  UNL     1       8.478   6.961   2.156 -0.22 -0.00    -0.265 OA
ATOM     61  H4  UNL     1       8.710   5.472   3.608 +0.09 +0.00    +0.162 HD
BRANCH  58  62
ATOM     62  C13 UNL     1       8.948   6.723  -0.147 -0.21 +0.00    +0.141 A 
ATOM     63  C14 UNL     1       8.042   7.573  -0.812 -0.29 +0.00    +0.112 A 
ATOM     64  N7  UNL     1       8.334   8.034  -2.052 -0.03 -0.00    -0.334 N 
ATOM     65  C15 UNL     1       9.492   7.643  -2.623 -0.31 +0.00    +0.118 A 
ATOM     66  H7  UNL     1       7.694   8.660  -2.541 -0.10 +0.00    +0.168 HD
ATOM     67  C16 UNL     1      10.366   6.788  -1.928 -0.22 +0.00    +0.142 A 
ATOM     68  N8  UNL     1      10.134   6.307  -0.688 -0.10 -0.00    -0.337 N 
ATOM     69 CL1  UNL     1      11.856   6.259  -2.604 -0.40 -0.00    -0.061 Cl
ATOM     70  H8  UNL     1      10.783   5.690  -0.199 +0.08 +0.00    +0.167 HD
BRANCH  63  71
ATOM     71  N10 UNL     1       6.854   8.054  -0.241 -0.33 -0.00    -0.286 NA
ATOM     72  H29 UNL     1       6.091   7.409  -0.467 -0.17 +0.00    +0.125 HD
ATOM     73  H30 UNL     1       6.918   7.996   0.774 +0.05 +0.00    +0.125 HD
ENDBRANCH  63  71
BRANCH  65  74
ATOM     74  N9  UNL     1       9.763   8.129  -3.913 -0.18 -0.00    -0.286 NA
ATOM     75  H27 UNL     1       9.626   9.138  -3.937 +0.07 +0.00    +0.125 HD
ATOM     76  H28 UNL     1      10.735   7.952  -4.153 +0.08 +0.00    +0.125 HD
ENDBRANCH  65  74
ENDBRANCH  58  62
ENDBRANCH  51  52
ENDBRANCH  50  51
ENDBRANCH  49  50
ENDBRANCH  48  49
ENDBRANCH  47  48
ENDBRANCH  44  47
ENDBRANCH   4  43
TORSDOF 20
TER
