USER    Run = 1
USER    DPF = ligand_212_receptor.dpf
USER  
USER    Estimated Free Energy of Binding    =  +2.21e+003 kcal/mol  [=(1)+(2)+(3)-(4)]
USER    
USER    (1) Final Intermolecular Energy     =  +2.21e+003 kcal/mol
USER        vdW + Hbond + desolv Energy     =  +2.21e+003 kcal/mol
USER        Electrostatic Energy            =   +0.00 kcal/mol
USER    (2) Final Total Internal Energy     =  +10.47 kcal/mol
USER    (3) Torsional Free Energy           =   +1.19 kcal/mol
USER    (4) Unbound System's Energy  [=(2)] =  +10.47 kcal/mol
USER    
USER    
USER    NEWDPF move ligand_212.pdbqt
USER    NEWDPF about 0.000000 0.000000 0.000000
USER    NEWDPF tran0 7.010334 4.411608 2.167520
USER    NEWDPF quaternion0 -0.287961 0.623457 -0.168080 -0.707198
USER    NEWDPF axisangle0 -0.407291 0.881815 -0.237732 -89.985212
USER    NEWDPF quat0 -0.407291 0.881815 -0.237732 -89.985212
USER    NEWDPF dihe0 39.78 -136.56 141.93 179.51 -107.22 147.12 140.65 -180.00 107.87 -180.00 -150.46 -150.46 -18.21 -180.00 129.33 163.08 -98.39 -139.01 
USER  keepresnum = 1 
USER  
REMARK  18 active torsions:
REMARK  status: ('A' for Active; 'I' for Inactive)
REMARK    1  A    between atoms: C3_3  and  C35_35 
REMARK    2  A    between atoms: C5_5  and  N2_47 
REMARK    3  A    between atoms: C6_6  and  C7_7 
REMARK       I    between atoms: C6_6  and  N2_47 
REMARK    4  A    between atoms: C9_9  and  N4_49 
REMARK       I    between atoms: C11_11  and  N4_49 
REMARK       I    between atoms: C11_11  and  N5_50 
REMARK    5  A    between atoms: C12_12  and  N5_50 
REMARK    6  A    between atoms: C14_14  and  C17_17 
REMARK       I    between atoms: C17_17  and  N7_52 
REMARK    7  A    between atoms: C18_18  and  N7_52 
REMARK    8  A    between atoms: C20_20  and  C23_23 
REMARK       I    between atoms: C23_23  and  N9_54 
REMARK    9  A    between atoms: C24_24  and  N9_54 
REMARK   10  A    between atoms: C28_28  and  S2_74 
REMARK   11  A    between atoms: C29_29  and  S1_73 
REMARK       I    between atoms: C35_35  and  N10_55 
REMARK   12  A    between atoms: C36_36  and  N10_55 
REMARK   13  A    between atoms: C40_40  and  S4_76 
REMARK   14  A    between atoms: C41_41  and  S3_75 
REMARK   15  A    between atoms: O7_62  and  S1_73 
REMARK   16  A    between atoms: O10_65  and  S2_74 
REMARK   17  A    between atoms: O14_69  and  S3_75 
REMARK   18  A    between atoms: O17_72  and  S4_76 
USER                              x       y       z     vdW  Elec       q    Type
USER                           _______ _______ _______ _____ _____    ______ ____
ROOT
ATOM      1  C11 UNL     1       7.343   4.564   2.808 -0.05 +0.00    +0.327 C 
ATOM      2  N4  UNL     1       6.345   3.860   2.146 -0.02 -0.00    -0.294 N 
ATOM      3  N5  UNL     1       6.854   5.016   4.027 -0.08 -0.00    -0.294 N 
ATOM      4  O2  UNL     1       8.475   4.756   2.385 -0.10 -0.00    -0.247 OA
ATOM      5  H32 UNL     1       5.707   3.370   2.759 +0.07 +0.00    +0.172 HD
ATOM      6  H33 UNL     1       5.865   5.232   4.023 +0.08 +0.00    +0.172 HD
ENDROOT
BRANCH   2   7
ATOM      7  C9  UNL     1       6.461   3.343   0.865 -0.06 +0.00    +0.111 A 
ATOM      8  C10 UNL     1       7.488   2.527   0.429 -0.10 +0.00    +0.067 A 
ATOM      9  C7  UNL     1       7.297   2.233  -0.952 -0.07 +0.00    +0.051 A 
ATOM     10  C8  UNL     1       6.100   2.838  -1.296 -0.06 +0.00    +0.109 A 
ATOM     11  N3  UNL     1       5.580   3.471  -0.184 -0.02 -0.00    -0.346 N 
ATOM     12  C34 UNL     1       4.239   4.019  -0.171 -0.15 +0.00    +0.157 C 
BRANCH   9  13
ATOM     13  C6  UNL     1       8.188   1.424  -1.792 -0.06 +0.00    +0.258 C 
ATOM     14  N2  UNL     1       9.532   1.632  -1.542 -0.06 -0.00    -0.309 N 
ATOM     15  H31 UNL     1       9.753   2.101  -0.672 +0.07 +0.00    +0.170 HD
ATOM     16  O1  UNL     1       7.720   0.621  -2.590 -0.16 -0.00    -0.267 OA
BRANCH  14  17
ATOM     17  C5  UNL     1      10.597   1.014  -2.176 -0.25 +0.00    +0.110 A 
ATOM     18  C4  UNL     1      11.922   1.204  -1.834 +0.28 +0.00    +0.067 A 
ATOM     19  C3  UNL     1      12.746   0.371  -2.645 +0.55 +0.00    +0.051 A 
ATOM     20  C2  UNL     1      11.877  -0.267  -3.513 +1.09 +0.00    +0.109 A 
ATOM     21  N1  UNL     1      10.587   0.162  -3.258 -0.14 -0.00    -0.346 N 
ATOM     22  C1  UNL     1       9.490  -0.159  -4.148 +1.12 +0.00    +0.157 C 
BRANCH  19  23
ATOM     23  C35 UNL     1      14.208   0.264  -2.551+53.75 +0.00    +0.257 C 
ATOM     24  N10 UNL     1      14.731   0.663  -1.334 +5.76 -0.00    -0.323 N 
ATOM     25  H36 UNL     1      14.071   1.028  -0.664 -0.38 +0.00    +0.169 HD
ATOM     26  O11 UNL     1      14.858  -0.140  -3.509+44.26 -0.00    -0.267 OA
BRANCH  24  27
ATOM     27  C36 UNL     1      16.082   0.664  -0.930 +4.62 +0.00    +0.035 A 
ATOM     28  C37 UNL     1      16.865   1.815  -0.813+31.36 +0.00    +0.042 A 
ATOM     29  C38 UNL     1      18.211   1.744  -0.405+99.99 -0.00    -0.022 A 
ATOM     30  C39 UNL     1      18.998   2.901  -0.286+94.59 +0.00    +0.039 A 
ATOM     31  C43 UNL     1      18.782   0.489  -0.110+99.99 -0.00    -0.024 A 
ATOM     32  C40 UNL     1      20.337   2.823   0.124+99.99 +0.00    +0.096 A 
ATOM     33  C41 UNL     1      20.905   1.578   0.409+99.99 +0.00    +0.096 A 
ATOM     34  C42 UNL     1      20.123   0.417   0.297+99.99 +0.00    +0.039 A 
ATOM     35  C44 UNL     1      17.993  -0.663  -0.229+35.23 +0.00    +0.014 A 
ATOM     36  C45 UNL     1      16.659  -0.574  -0.634 +8.82 +0.00    +0.030 A 
BRANCH  32  37
ATOM     37  S4  UNL     1      21.269   4.327   0.195+99.99 +0.00    +0.131 S 
ATOM     38  O15 UNL     1      20.595   5.315  -0.611+64.81 -0.00    -0.598 OA
ATOM     39  O16 UNL     1      21.646   4.553   1.577+99.99 -0.00    -0.598 OA
BRANCH  37  40
ATOM     40  O17 UNL     1      22.641   4.010  -0.589+99.99 -0.00    -0.292 OA
ATOM     41  H40 UNL     1      23.154   4.846  -0.642 +0.27 +0.00    +0.232 HD
ENDBRANCH  37  40
ENDBRANCH  32  37
BRANCH  33  42
ATOM     42  S3  UNL     1      22.583   1.400   0.977+99.99 +0.00    +0.131 S 
ATOM     43  O12 UNL     1      23.393   2.362   0.262+10.67 -0.00    -0.598 OA
ATOM     44  O13 UNL     1      22.897  -0.009   0.945+46.54 -0.00    -0.598 OA
BRANCH  42  45
ATOM     45  O14 UNL     1      22.531   1.866   2.521 +2.00 -0.00    -0.292 OA
ATOM     46  H39 UNL     1      22.150   2.781   2.566 +0.13 +0.00    +0.232 HD
ENDBRANCH  42  45
ENDBRANCH  33  42
ENDBRANCH  24  27
ENDBRANCH  19  23
ENDBRANCH  14  17
ENDBRANCH   9  13
ENDBRANCH   2   7
BRANCH   3  47
ATOM     47  C12 UNL     1       7.605   5.680   4.984 -0.11 +0.00    +0.111 A 
ATOM     48  C13 UNL     1       8.872   6.192   4.782 -0.07 +0.00    +0.067 A 
ATOM     49  C14 UNL     1       9.347   6.764   6.000 +5.48 +0.00    +0.051 A 
ATOM     50  C15 UNL     1       8.305   6.629   6.901+24.28 +0.00    +0.109 A 
ATOM     51  N6  UNL     1       7.240   6.015   6.268 +0.61 -0.00    -0.346 N 
ATOM     52  C16 UNL     1       5.932   5.921   6.883 -0.32 +0.00    +0.157 C 
BRANCH  49  53
ATOM     53  C17 UNL     1      10.669   7.375   6.194 -0.10 +0.00    +0.258 C 
ATOM     54  N7  UNL     1      11.550   7.170   5.144 -0.15 -0.00    -0.309 N 
ATOM     55  H34 UNL     1      11.210   6.667   4.339 +0.11 +0.00    +0.170 HD
ATOM     56  O3  UNL     1      10.911   8.010   7.217 +1.57 -0.00    -0.267 OA
BRANCH  54  57
ATOM     57  C18 UNL     1      12.849   7.649   5.126 -0.33 +0.00    +0.110 A 
ATOM     58  C19 UNL     1      13.837   7.561   4.163 -0.43 +0.00    +0.067 A 
ATOM     59  C20 UNL     1      15.010   8.225   4.634 -0.34 +0.00    +0.051 A 
ATOM     60  C21 UNL     1      14.678   8.705   5.891+14.48 +0.00    +0.109 A 
ATOM     61  N8  UNL     1      13.385   8.356   6.178 -0.13 -0.00    -0.346 N 
ATOM     62  C22 UNL     1      12.715   8.694   7.415 -0.43 +0.00    +0.157 C 
BRANCH  59  63
ATOM     63  C23 UNL     1      16.325   8.418   4.008 -0.38 +0.00    +0.257 C 
ATOM     64  N9  UNL     1      17.363   8.556   4.911 +0.56 -0.00    -0.323 N 
ATOM     65  H35 UNL     1      17.115   8.521   5.889 +2.09 +0.00    +0.169 HD
ATOM     66  O4  UNL     1      16.435   8.449   2.787 -0.39 -0.00    -0.267 OA
BRANCH  64  67
ATOM     67  C24 UNL     1      18.733   8.751   4.634 +1.30 +0.00    +0.035 A 
ATOM     68  C25 UNL     1      19.109   8.808   3.285 -0.36 +0.00    +0.042 A 
ATOM     69  C26 UNL     1      20.450   9.000   2.905 -0.11 -0.00    -0.022 A 
ATOM     70  C27 UNL     1      20.827   9.058   1.553 +3.51 +0.00    +0.039 A 
ATOM     71  C31 UNL     1      21.437   9.135   3.902 +0.91 -0.00    -0.024 A 
ATOM     72  C28 UNL     1      22.168   9.252   1.185 -0.33 +0.00    +0.096 A 
ATOM     73  C29 UNL     1      23.146   9.379   2.177 -0.37 +0.00    +0.096 A 
ATOM     74  C30 UNL     1      22.777   9.325   3.529 -0.45 +0.00    +0.039 A 
ATOM     75  C32 UNL     1      21.056   9.077   5.250+30.91 +0.00    +0.014 A 
ATOM     76  C33 UNL     1      19.717   8.887   5.610+39.11 +0.00    +0.030 A 
BRANCH  72  77
ATOM     77  S2  UNL     1      22.562   9.266  -0.551 -0.15 +0.00    +0.131 S 
ATOM     78  O8  UNL     1      23.493  10.351  -0.780 +1.76 -0.00    -0.598 OA
ATOM     79  O9  UNL     1      21.314   9.192  -1.273 +7.22 -0.00    -0.598 OA
BRANCH  77  80
ATOM     80  O10 UNL     1      23.361   7.886  -0.788 -0.35 -0.00    -0.292 OA
ATOM     81  H38 UNL     1      24.143   8.066  -1.371 +0.17 +0.00    +0.232 HD
ENDBRANCH  77  80
ENDBRANCH  72  77
BRANCH  73  82
ATOM     82  S1  UNL     1      24.848   9.678   1.794 -0.54 +0.00    +0.131 S 
ATOM     83  O5  UNL     1      25.656   8.863   2.679 -0.17 -0.00    -0.598 OA
ATOM     84  O6  UNL     1      25.035  11.101   1.645 +0.61 -0.00    -0.598 OA
BRANCH  82  85
ATOM     85  O7  UNL     1      25.062   9.068   0.317 +0.35 -0.00    -0.292 OA
ATOM     86  H37 UNL     1      24.556   8.227   0.266 +0.18 +0.00    +0.232 HD
ENDBRANCH  82  85
ENDBRANCH  73  82
ENDBRANCH  64  67
ENDBRANCH  59  63
ENDBRANCH  54  57
ENDBRANCH  49  53
ENDBRANCH   3  47
TORSDOF 18
TER
