USER    Run = 1
USER    DPF = ligand_384_receptor.dpf
USER  
USER    Estimated Free Energy of Binding    =  +47.72 kcal/mol  [=(1)+(2)+(3)-(4)]
USER    
USER    (1) Final Intermolecular Energy     =  +46.53 kcal/mol
USER        vdW + Hbond + desolv Energy     =  +46.53 kcal/mol
USER        Electrostatic Energy            =   +0.00 kcal/mol
USER    (2) Final Total Internal Energy     =  +29.73 kcal/mol
USER    (3) Torsional Free Energy           =   +1.19 kcal/mol
USER    (4) Unbound System's Energy  [=(2)] =  +29.73 kcal/mol
USER    
USER    
USER    NEWDPF move ligand_384.pdbqt
USER    NEWDPF about 0.000000 0.000000 0.000000
USER    NEWDPF tran0 11.398711 3.131830 1.671008
USER    NEWDPF quaternion0 0.395840 -0.454235 -0.596566 0.530179
USER    NEWDPF axisangle0 0.466856 -0.535727 -0.703592 115.964854
USER    NEWDPF quat0 0.466856 -0.535727 -0.703592 115.964854
USER    NEWDPF dihe0 180.00 69.19 -170.98 -117.38 -169.55 44.53 -172.93 -48.42 45.23 -102.84 26.34 -176.42 -85.17 -179.82 91.58 -116.31 95.27 -142.33 -132.01 -117.30 -134.58 -140.04 -34.63 -69.60 126.89 65.55 
USER  keepresnum = 1 
USER  
REMARK  26 active torsions:
REMARK  status: ('A' for Active; 'I' for Inactive)
REMARK    1  A    between atoms: C2_2  and  C3_3 
REMARK    2  A    between atoms: C3_3  and  C5_5 
REMARK    3  A    between atoms: C5_5  and  C6_6 
REMARK    4  A    between atoms: C5_5  and  N6_65 
REMARK    5  A    between atoms: C6_6  and  C7_7 
REMARK    6  A    between atoms: C6_6  and  O5_56 
REMARK    7  A    between atoms: C7_7  and  C8_8 
REMARK       I    between atoms: C8_8  and  N1_59 
REMARK    8  A    between atoms: C12_12  and  C13_13 
REMARK    9  A    between atoms: C13_13  and  C14_14 
REMARK   10  A    between atoms: C13_13  and  O4_55 
REMARK   11  A    between atoms: C14_14  and  C16_16 
REMARK       I    between atoms: C16_16  and  N2_60 
REMARK   12  A    between atoms: C17_17  and  C18_18 
REMARK   13  A    between atoms: C17_17  and  C25_25 
REMARK   14  A    between atoms: C17_17  and  N2_60 
REMARK   15  A    between atoms: C18_18  and  C19_19 
REMARK   16  A    between atoms: C26_26  and  C28_28 
REMARK       I    between atoms: C28_28  and  N4_63 
REMARK   17  A    between atoms: C29_29  and  C30_30 
REMARK   18  A    between atoms: C29_29  and  N4_63 
REMARK   19  A    between atoms: C30_30  and  C31_31 
REMARK   20  A    between atoms: C34_34  and  N5_64 
REMARK   21  A    between atoms: C40_40  and  C41_41 
REMARK       I    between atoms: C40_40  and  N6_65 
REMARK   22  A    between atoms: C41_41  and  C42_42 
REMARK   23  A    between atoms: C41_41  and  N7_66 
REMARK   24  A    between atoms: C45_45  and  C46_46 
REMARK       I    between atoms: C45_45  and  N7_66 
REMARK   25  A    between atoms: C46_46  and  C47_47 
REMARK   26  A    between atoms: C46_46  and  N8_67 
USER                              x       y       z     vdW  Elec       q    Type
USER                           _______ _______ _______ _____ _____    ______ ____
ROOT
ATOM      1  C13 UNL     1      11.592   7.310   1.675 +0.19 +0.00    +0.156 C 
ENDROOT
BRANCH   1   2
ATOM      2  C12 UNL     1      10.822   6.787   2.932 -0.32 +0.00    +0.117 C 
ATOM      3  C11 UNL     1       9.296   6.962   2.826 -0.36 +0.00    +0.029 C 
ATOM      4  C10 UNL     1       8.856   7.092   4.277 +0.28 +0.00    +0.022 C 
ATOM      5  C9  UNL     1       9.987   7.906   4.885 +0.47 +0.00    +0.126 C 
ATOM      6  N1  UNL     1      11.182   7.395   4.224 -0.16 -0.00    -0.345 N 
ATOM      7  C8  UNL     1      12.310   6.961   4.901 -0.29 +0.00    +0.222 C 
ATOM      8  O1  UNL     1      13.016   6.045   4.466 -0.18 -0.00    -0.273 OA
BRANCH   7   9
ATOM      9  C7  UNL     1      12.689   7.599   6.229 -0.38 +0.00    +0.137 C 
BRANCH   9  10
ATOM     10  C6  UNL     1      13.179   6.641   7.333 -0.43 +0.00    +0.152 C 
BRANCH  10  11
ATOM     11  C5  UNL     1      12.371   5.298   7.363 -0.45 +0.00    +0.119 C 
BRANCH  11  12
ATOM     12  C3  UNL     1      12.792   4.237   6.277 -0.56 +0.00    +0.006 C 
ATOM     13  C4  UNL     1      13.434   3.007   6.948+13.56 +0.00    +0.012 C 
BRANCH  12  14
ATOM     14  C2  UNL     1      11.708   3.733   5.301 -0.38 +0.00    +0.002 C 
ATOM     15  C1  UNL     1      11.251   2.301   5.521 +4.73 +0.00    +0.005 C 
ENDBRANCH  12  14
ENDBRANCH  11  12
BRANCH  11  16
ATOM     16  N6  UNL     1      10.885   5.486   7.444 -0.11 -0.00    -0.347 N 
ATOM     17  C39 UNL     1      10.250   5.336   8.744 +1.12 +0.00    +0.153 C 
ATOM     18  C40 UNL     1      10.169   5.580   6.248 -0.21 +0.00    +0.243 C 
ATOM     19  O6  UNL     1      10.766   5.679   5.166 -0.17 -0.00    -0.271 OA
BRANCH  18  20
ATOM     20  C41 UNL     1       8.610   5.705   6.206 +0.05 +0.00    +0.180 C 
BRANCH  20  21
ATOM     21  C42 UNL     1       7.927   5.169   7.495 -0.52 +0.00    +0.009 C 
ATOM     22  C43 UNL     1       6.409   5.347   7.531 -0.27 +0.00    +0.012 C 
ATOM     23  C44 UNL     1       8.282   3.704   7.773 -0.62 +0.00    +0.012 C 
ENDBRANCH  20  21
BRANCH  20  24
ATOM     24  N7  UNL     1       7.908   5.240   5.011 -0.08 -0.00    -0.346 N 
ATOM     25  C45 UNL     1       7.076   4.137   5.079 -0.21 +0.00    +0.252 C 
ATOM     26  O7  UNL     1       6.546   3.768   6.123 -0.26 -0.00    -0.271 OA
ATOM     27  H78 UNL     1       8.364   5.333   4.107 +0.09 +0.00    +0.163 HD
BRANCH  25  28
ATOM     28  C46 UNL     1       6.932   3.355   3.738 -0.14 +0.00    +0.316 C 
BRANCH  28  29
ATOM     29  C47 UNL     1       7.626   4.171   2.599 -0.19 +0.00    +0.020 C 
ATOM     30  C48 UNL     1       6.607   4.827   1.658 -0.16 +0.00    +0.012 C 
ATOM     31  C49 UNL     1       8.639   3.367   1.774 -0.21 +0.00    +0.012 C 
ENDBRANCH  28  29
BRANCH  28  32
ATOM     32  N8  UNL     1       5.478   3.037   3.496 -0.16 +0.00    +0.094 N 
ATOM     33  C50 UNL     1       5.288   1.751   2.812 -0.17 +0.00    +0.310 C 
ATOM     34  C51 UNL     1       4.760   2.962   4.783 -0.15 +0.00    +0.310 C 
ENDBRANCH  28  32
ENDBRANCH  25  28
ENDBRANCH  20  24
ENDBRANCH  18  20
ENDBRANCH  11  16
ENDBRANCH  10  11
BRANCH  10  35
ATOM     35  O5  UNL     1      13.166   7.249   8.630 -0.29 -0.00    -0.388 OA
ATOM     36  C38 UNL     1      12.819   8.628   8.622 -0.00 +0.00    +0.202 C 
ENDBRANCH  10  35
ENDBRANCH   9  10
ENDBRANCH   7   9
ENDBRANCH   1   2
BRANCH   1  37
ATOM     37  C14 UNL     1      13.105   6.970   1.619 +0.76 +0.00    +0.105 C 
ATOM     38  C15 UNL     1      13.649   6.628   0.233 +2.50 +0.00    +0.022 C 
BRANCH  37  39
ATOM     39  C16 UNL     1      13.896   8.143   2.196+12.43 +0.00    +0.224 C 
ATOM     40  O2  UNL     1      13.593   8.682   3.257 -0.17 -0.00    -0.273 OA
ATOM     41  N2  UNL     1      14.961   8.544   1.441 +5.43 -0.00    -0.350 N 
ATOM     42  H74 UNL     1      15.108   8.094   0.536 -0.36 +0.00    +0.163 HD
BRANCH  41  43
ATOM     43  C17 UNL     1      15.843   9.653   1.776 -0.17 +0.00    +0.146 C 
BRANCH  43  44
ATOM     44  C18 UNL     1      16.226   9.681   3.273 -0.46 +0.00    +0.070 C 
BRANCH  44  45
ATOM     45  C19 UNL     1      17.403   8.811   3.663 -0.50 -0.00    -0.056 A 
ATOM     46  C20 UNL     1      17.496   7.495   3.187 -0.52 +0.00    +0.007 A 
ATOM     47  C21 UNL     1      18.594   6.697   3.512 +5.51 +0.00    +0.001 A 
ATOM     48  C22 UNL     1      19.606   7.202   4.324 +3.63 +0.00    +0.000 A 
ATOM     49  C23 UNL     1      19.521   8.504   4.814 +2.92 +0.00    +0.001 A 
ATOM     50  C24 UNL     1      18.425   9.304   4.487 +1.44 +0.00    +0.007 A 
ENDBRANCH  44  45
ENDBRANCH  43  44
BRANCH  43  51
ATOM     51  C25 UNL     1      17.052   9.547   0.869 -0.44 +0.00    +0.074 A 
ATOM     52  N3  UNL     1      18.240  10.034   1.173 -0.17 -0.00    -0.347 N 
ATOM     53  C26 UNL     1      19.138   9.820   0.128 +0.04 +0.00    +0.108 A 
ATOM     54  H3  UNL     1      18.470  10.501   2.050 +0.14 +0.00    +0.166 HD
ATOM     55  C27 UNL     1      18.608   9.128  -0.945 +4.67 +0.00    +0.086 A 
ATOM     56  S1  UNL     1      16.962   8.744  -0.650 -0.59 -0.00    -0.084 SA
BRANCH  53  57
ATOM     57  C28 UNL     1      20.510  10.325   0.210 -0.25 +0.00    +0.268 C 
ATOM     58  O3  UNL     1      20.819  11.488  -0.026 -0.48 -0.00    -0.266 OA
ATOM     59  N4  UNL     1      21.398   9.350   0.602 +0.04 -0.00    -0.355 N 
ATOM     60  H75 UNL     1      20.990   8.445   0.836 +1.40 +0.00    +0.162 HD
BRANCH  59  61
ATOM     61  C29 UNL     1      22.783   9.613   0.916 -0.42 +0.00    +0.127 C 
BRANCH  61  62
ATOM     62  C30 UNL     1      23.473   8.378   1.498 -0.47 +0.00    +0.058 C 
BRANCH  62  63
ATOM     63  C31 UNL     1      23.997   7.459   0.424 -0.42 -0.00    -0.057 A 
ATOM     64  C32 UNL     1      23.319   6.278   0.102 -0.46 +0.00    +0.009 A 
ATOM     65  C33 UNL     1      23.818   5.420  -0.882 -0.09 +0.00    +0.024 A 
ATOM     66  C34 UNL     1      24.975   5.744  -1.593 -0.51 +0.00    +0.005 A 
ATOM     67  C35 UNL     1      25.682   6.892  -1.230 -0.33 +0.00    +0.024 A 
ATOM     68  C36 UNL     1      25.190   7.755  -0.246 -0.37 +0.00    +0.009 A 
BRANCH  66  69
ATOM     69  N5  UNL     1      25.531   4.828  -2.494 +0.04 -0.00    -0.303 NA
ATOM     70  H76 UNL     1      26.547   4.833  -2.502 +0.07 +0.00    +0.124 HD
ATOM     71  H77 UNL     1      25.154   3.890  -2.404 +0.06 +0.00    +0.124 HD
ENDBRANCH  66  69
ENDBRANCH  62  63
ENDBRANCH  61  62
ENDBRANCH  59  61
ENDBRANCH  53  57
ENDBRANCH  43  51
ENDBRANCH  41  43
ENDBRANCH  37  39
ENDBRANCH   1  37
BRANCH   1  72
ATOM     72  O4  UNL     1      10.994   6.856   0.443 -0.18 -0.00    -0.388 OA
ATOM     73  C37 UNL     1      11.553   5.645  -0.053 -0.25 +0.00    +0.202 C 
ENDBRANCH   1  72
TORSDOF 26
TER
