USER    Run = 1
USER    DPF = ligand_31_receptor.dpf
USER  
USER    Estimated Free Energy of Binding    =  +1.84e+004 kcal/mol  [=(1)+(2)+(3)-(4)]
USER    
USER    (1) Final Intermolecular Energy     =  +1.84e+004 kcal/mol
USER        vdW + Hbond + desolv Energy     =  +1.84e+004 kcal/mol
USER        Electrostatic Energy            =   +0.00 kcal/mol
USER    (2) Final Total Internal Energy     =   +0.00 kcal/mol
USER    (3) Torsional Free Energy           =   +1.19 kcal/mol
USER    (4) Unbound System's Energy  [=(2)] =   +0.00 kcal/mol
USER    
USER    
USER    NEWDPF move ligand_31.pdbqt
USER    NEWDPF about 0.000000 0.000000 0.000000
USER    NEWDPF tran0 15.302561 7.610673 2.108647
USER    NEWDPF quaternion0 -0.024374 -0.228744 -0.962138 -0.146196
USER    NEWDPF axisangle0 -0.024639 -0.231228 -0.972587 -163.186876
USER    NEWDPF quat0 -0.024639 -0.231228 -0.972587 -163.186876
USER  keepresnum = 1 
USER  
REMARK  0 active torsions:
REMARK  status: ('A' for Active; 'I' for Inactive)
REMARK       I    between atoms: C2_2  and  C3_3 
REMARK       I    between atoms: C2_2  and  C7_7 
REMARK       I    between atoms: C3_3  and  C4_4 
REMARK       I    between atoms: C4_4  and  C5_5 
REMARK       I    between atoms: C5_5  and  C6_6 
REMARK       I    between atoms: C6_6  and  N1_64 
REMARK       I    between atoms: C7_7  and  N2_65 
REMARK       I    between atoms: C8_8  and  C9_9 
REMARK       I    between atoms: C8_8  and  C13_13 
REMARK       I    between atoms: C8_8  and  N2_65 
REMARK       I    between atoms: C9_9  and  C10_10 
REMARK       I    between atoms: C13_13  and  N3_66 
REMARK       I    between atoms: C14_14  and  C15_15 
REMARK       I    between atoms: C14_14  and  C20_20 
REMARK       I    between atoms: C14_14  and  N3_66 
REMARK       I    between atoms: C15_15  and  C16_16 
REMARK       I    between atoms: C16_16  and  C17_17 
REMARK       I    between atoms: C17_17  and  C18_18 
REMARK       I    between atoms: C18_18  and  C19_19 
REMARK       I    between atoms: C19_19  and  N4_67 
REMARK       I    between atoms: C20_20  and  N6_70 
REMARK       I    between atoms: C24_24  and  C25_25 
REMARK       I    between atoms: C25_25  and  N7_71 
REMARK       I    between atoms: C26_26  and  C28_28 
REMARK       I    between atoms: C26_26  and  N7_71 
REMARK       I    between atoms: C28_28  and  N8_72 
REMARK       I    between atoms: C29_29  and  C30_30 
REMARK       I    between atoms: C29_29  and  C32_32 
REMARK       I    between atoms: C29_29  and  N8_72 
REMARK       I    between atoms: C30_30  and  O6_89 
REMARK       I    between atoms: C32_32  and  N9_73 
REMARK       I    between atoms: C33_33  and  C34_34 
REMARK       I    between atoms: C33_33  and  C36_36 
REMARK       I    between atoms: C33_33  and  N9_73 
REMARK       I    between atoms: C34_34  and  C35_35 
REMARK       I    between atoms: C35_35  and  O9_92 
REMARK       I    between atoms: C36_36  and  N10_74 
REMARK       I    between atoms: C37_37  and  C38_38 
REMARK       I    between atoms: C37_37  and  C42_42 
REMARK       I    between atoms: C37_37  and  N10_74 
REMARK       I    between atoms: C38_38  and  C39_39 
REMARK       I    between atoms: C39_39  and  C40_40 
REMARK       I    between atoms: C40_40  and  C41_41 
REMARK       I    between atoms: C41_41  and  N11_75 
REMARK       I    between atoms: C42_42  and  N12_76 
REMARK       I    between atoms: C43_43  and  C44_44 
REMARK       I    between atoms: C43_43  and  C51_51 
REMARK       I    between atoms: C43_43  and  N12_76 
REMARK       I    between atoms: C44_44  and  C45_45 
REMARK       I    between atoms: C48_48  and  O12_95 
REMARK       I    between atoms: C51_51  and  N13_77 
REMARK       I    between atoms: C52_52  and  C53_53 
REMARK       I    between atoms: C52_52  and  C57_57 
REMARK       I    between atoms: C52_52  and  N13_77 
REMARK       I    between atoms: C53_53  and  C54_54 
REMARK       I    between atoms: C54_54  and  C55_55 
REMARK       I    between atoms: C55_55  and  N14_78 
REMARK       I    between atoms: C56_56  and  N15_80 
REMARK       I    between atoms: C56_56  and  N16_81 
REMARK       I    between atoms: C57_57  and  N17_82 
REMARK       I    between atoms: C58_58  and  C59_59 
REMARK       I    between atoms: C58_58  and  C63_63 
REMARK       I    between atoms: C58_58  and  N17_82 
REMARK       I    between atoms: C59_59  and  C60_60 
REMARK       I    between atoms: C63_63  and  N18_83 
USER                              x       y       z     vdW  Elec       q    Type
USER                           _______ _______ _______ _____ _____    ______ ____
ROOT
ATOM      1  C1  UNL     1       8.771   2.421   3.394 +4.17 +0.00    +0.020 C 
ATOM      2  C2  UNL     1       7.650   3.142   4.145 -0.24 +0.00    +0.074 C 
ATOM      3  C3  UNL     1       8.170   3.659   5.500 -0.34 +0.00    +0.013 C 
ATOM      4  C4  UNL     1       7.034   4.130   6.416 -0.45 +0.00    +0.002 C 
ATOM      5  C5  UNL     1       7.507   4.829   7.696 -0.48 +0.00    +0.030 C 
ATOM      6  C6  UNL     1       8.063   3.907   8.784 +1.47 +0.00    +0.267 C 
ATOM      7  C7  UNL     1       7.102   4.271   3.274 -0.12 +0.00    +0.222 C 
ATOM      8  C8  UNL     1       5.628   4.721   1.281 -0.12 +0.00    +0.177 C 
ATOM      9  C9  UNL     1       4.777   5.843   1.904 -0.20 +0.00    +0.038 C 
ATOM     10  C10 UNL     1       3.712   5.371   2.914 -0.18 -0.00    -0.020 C 
ATOM     11  C11 UNL     1       2.997   6.583   3.514 -0.16 +0.00    +0.009 C 
ATOM     12  C12 UNL     1       2.688   4.426   2.285 +0.07 +0.00    +0.009 C 
ATOM     13  C13 UNL     1       6.635   5.277   0.249 -0.12 +0.00    +0.241 C 
ATOM     14  C14 UNL     1       8.742   6.504  -0.040 -0.21 +0.00    +0.176 C 
ATOM     15  C15 UNL     1       9.366   7.835   0.423 +0.56 +0.00    +0.035 C 
ATOM     16  C16 UNL     1       9.788   7.883   1.903 +0.50 +0.00    +0.003 C 
ATOM     17  C17 UNL     1       8.752   8.525   2.835 +0.78 +0.00    +0.007 C 
ATOM     18  C18 UNL     1       8.737  10.054   2.783+99.99 +0.00    +0.075 C 
ATOM     19  C19 UNL     1       9.957  10.667   3.443+99.99 +0.00    +0.068 C 
ATOM     20  C20 UNL     1       9.778   5.351   0.007 -0.12 +0.00    +0.243 C 
ATOM     21  C21 UNL     1      10.530   5.848  -2.353 -0.22 +0.00    +0.127 C 
ATOM     22  C22 UNL     1      11.765   5.396  -3.113 +1.44 +0.00    +0.022 C 
ATOM     23  C23 UNL     1      12.035   4.009  -2.541+99.99 +0.00    +0.037 C 
ATOM     24  C24 UNL     1      11.648   4.136  -1.065 +3.15 +0.00    +0.179 C 
ATOM     25  C25 UNL     1      12.887   4.427  -0.192+16.05 +0.00    +0.241 C 
ATOM     26  C26 UNL     1      14.142   6.258   0.927+99.99 +0.00    +0.172 C 
ATOM     27  C27 UNL     1      15.547   6.215   0.348+99.99 +0.00    +0.042 C 
ATOM     28  C28 UNL     1      13.733   7.702   1.258+17.36 +0.00    +0.240 C 
ATOM     29  C29 UNL     1      13.719   9.434   3.042 +8.22 +0.00    +0.205 C 
ATOM     30  C30 UNL     1      14.090   9.441   4.540 +7.59 +0.00    +0.146 C 
ATOM     31  C31 UNL     1      13.333   8.372   5.322 -0.35 +0.00    +0.042 C 
ATOM     32  C32 UNL     1      14.093  10.798   2.403+16.17 +0.00    +0.243 C 
ATOM     33  C33 UNL     1      14.541  11.969   0.222 +0.66 +0.00    +0.186 C 
ATOM     34  C34 UNL     1      13.326  12.897   0.188+99.99 +0.00    +0.144 C 
ATOM     35  C35 UNL     1      12.133  12.249  -0.442+72.33 +0.00    +0.141 C 
ATOM     36  C36 UNL     1      15.828  12.782   0.518 +5.17 +0.00    +0.241 C 
ATOM     37  C37 UNL     1      18.042  12.704   1.673 -0.64 +0.00    +0.176 C 
ATOM     38  C38 UNL     1      17.892  13.859   2.680 +0.80 +0.00    +0.035 C 
ATOM     39  C39 UNL     1      16.925  13.647   3.854+27.78 +0.00    +0.004 C 
ATOM     40  C40 UNL     1      17.178  12.388   4.685+99.99 +0.00    +0.030 C 
ATOM     41  C41 UNL     1      16.253  12.326   5.900+99.99 +0.00    +0.267 C 
ATOM     42  C42 UNL     1      18.999  11.607   2.197 -0.39 +0.00    +0.241 C 
ATOM     43  C43 UNL     1      19.547   9.199   2.059 +0.73 +0.00    +0.180 C 
ATOM     44  C44 UNL     1      18.711   7.913   2.146+15.75 +0.00    +0.073 C 
ATOM     45  C45 UNL     1      19.230   6.950   3.185+18.57 -0.00    -0.056 A 
ATOM     46  C46 UNL     1      20.072   5.890   2.824+99.99 +0.00    +0.010 A 
ATOM     47  C47 UNL     1      20.594   5.037   3.799+31.99 +0.00    +0.037 A 
ATOM     48  C48 UNL     1      20.258   5.235   5.134+64.68 +0.00    +0.065 A 
ATOM     49  C49 UNL     1      19.409   6.269   5.508+99.99 +0.00    +0.037 A 
ATOM     50  C50 UNL     1      18.898   7.128   4.536+12.96 +0.00    +0.010 A 
ATOM     51  C51 UNL     1      20.584   9.085   0.925+11.39 +0.00    +0.241 C 
ATOM     52  C52 UNL     1      22.815   8.192   0.295 -0.28 +0.00    +0.176 C 
ATOM     53  C53 UNL     1      23.640   9.462   0.066 -0.07 +0.00    +0.036 C 
ATOM     54  C54 UNL     1      24.356   9.964   1.329 -0.16 +0.00    +0.022 C 
ATOM     55  C55 UNL     1      25.720  10.558   0.990+20.22 +0.00    +0.121 C 
ATOM     56  C56 UNL     1      27.780   9.761   0.187+10.04 +0.00    +0.121 C 
ATOM     57  C57 UNL     1      23.631   6.956   0.758 -0.31 +0.00    +0.241 C 
ATOM     58  C58 UNL     1      25.668   5.579   0.470 -0.36 +0.00    +0.176 C 
ATOM     59  C59 UNL     1      26.596   5.305  -0.727 -0.40 +0.00    +0.038 C 
ATOM     60  C60 UNL     1      27.370   3.971  -0.643 -0.29 -0.00    -0.020 C 
ATOM     61  C61 UNL     1      28.776   4.164  -0.068 -0.30 +0.00    +0.009 C 
ATOM     62  C62 UNL     1      27.489   3.341  -2.035 -0.34 +0.00    +0.009 C 
ATOM     63  C63 UNL     1      26.446   5.764   1.786 +6.97 +0.00    +0.238 C 
ATOM     64  N1  UNL     1       9.365   3.351   8.448 -0.45 +0.00    +0.078 N 
ATOM     65  N2  UNL     1       6.291   3.841   2.248 -0.00 -0.00    -0.347 N 
ATOM     66  N3  UNL     1       7.583   6.138   0.759 -0.07 -0.00    -0.346 N 
ATOM     67  N4  UNL     1      10.154  10.584   4.719+29.94 -0.00    -0.389 N 
ATOM     68  H4  UNL     1      10.957  10.973   5.215+99.99 +0.00    +0.157 HD
ATOM     69  N5  UNL     1      10.874  11.322   2.690+99.96 -0.00    -0.389 N 
ATOM     70  N6  UNL     1      10.680   5.248  -1.038 -0.10 -0.00    -0.337 N 
ATOM     71  N7  UNL     1      13.149   5.767  -0.017 +0.00 -0.00    -0.346 N 
ATOM     72  N8  UNL     1      14.310   8.262   2.368 +1.95 -0.00    -0.344 N 
ATOM     73  N9  UNL     1      14.375  10.766   1.052+29.43 -0.00    -0.345 N 
ATOM     74  N10 UNL     1      16.772  12.109   1.257 -0.27 -0.00    -0.346 N 
ATOM     75  N11 UNL     1      16.419  11.045   6.597 +4.69 +0.00    +0.078 N 
ATOM     76  N12 UNL     1      18.683  10.337   1.748 -0.17 -0.00    -0.346 N 
ATOM     77  N13 UNL     1      21.740   8.423   1.257 +2.76 -0.00    -0.346 N 
ATOM     78  N14 UNL     1      26.614   9.453   0.622 +0.92 -0.00    -0.372 N 
ATOM     79  H14 UNL     1      26.319   8.480   0.710 +0.11 +0.00    +0.161 HD
ATOM     80  N15 UNL     1      28.340  10.972  -0.024+66.21 -0.00    -0.279 NA
ATOM     81  N16 UNL     1      28.669   8.788  -0.109 +0.16 -0.00    -0.279 NA
ATOM     82  N17 UNL     1      24.864   6.773   0.172 -0.15 -0.00    -0.346 N 
ATOM     83  N18 UNL     1      27.012   6.991   1.999 +0.28 -0.00    -0.368 N 
ATOM     84  O1  UNL     1       7.367   5.456   3.450 -0.11 -0.00    -0.273 OA
ATOM     85  O2  UNL     1       6.579   4.977  -0.942 +0.08 -0.00    -0.271 OA
ATOM     86  O3  UNL     1       9.847   4.589   0.975 +0.07 -0.00    -0.271 OA
ATOM     87  O4  UNL     1      13.646   3.545   0.199+99.99 -0.00    -0.271 OA
ATOM     88  O5  UNL     1      12.960   8.348   0.545+99.99 -0.00    -0.271 OA
ATOM     89  O6  UNL     1      15.493   9.155   4.672 -0.07 -0.00    -0.393 OA
ATOM     90  O7  UNL     1      14.055  11.864   3.015+99.99 -0.00    -0.271 OA
ATOM     91  O8  UNL     1      11.012  12.188   0.042+14.01 -0.00    -0.650 OA
ATOM     92  O9  UNL     1      12.371  11.760  -1.672 +1.39 -0.00    -0.776 OA
ATOM     93  O10 UNL     1      16.037  13.891   0.032+13.05 -0.00    -0.271 OA
ATOM     94  O11 UNL     1      19.984  11.839   2.894 +1.24 -0.00    -0.271 OA
ATOM     95  O12 UNL     1      20.753   4.428   6.116 +2.86 -0.00    -0.361 OA
ATOM     96  O13 UNL     1      20.368   9.522  -0.207 +0.11 -0.00    -0.271 OA
ATOM     97  O14 UNL     1      23.159   6.140   1.550 +0.14 -0.00    -0.271 OA
ATOM     98  O15 UNL     1      26.709   4.837   2.548+99.99 -0.00    -0.271 OA
ATOM     99  H84 UNL     1       9.733   2.837   9.248 +0.68 +0.00    +0.312 HD
ATOM    100  H85 UNL     1      10.025   4.106   8.266 +0.24 +0.00    +0.312 HD
ATOM    101  H86 UNL     1       6.307   2.854   2.021 +0.06 +0.00    +0.163 HD
ATOM    102  H87 UNL     1       7.740   6.040   1.764 +0.08 +0.00    +0.163 HD
ATOM    103  H88 UNL     1       9.384  10.068   5.160 -0.33 +0.00    +0.157 HD
ATOM    104  H89 UNL     1      10.581  11.709   1.791 +6.87 +0.00    +0.157 HD
ATOM    105  H90 UNL     1      11.470  11.950   3.223 +0.53 +0.00    +0.157 HD
ATOM    106  H91 UNL     1      12.391   6.403  -0.247 +0.07 +0.00    +0.163 HD
ATOM    107  H92 UNL     1      14.954   7.723   2.942 -0.24 +0.00    +0.163 HD
ATOM    108  H93 UNL     1      13.999   9.947   0.575+99.99 +0.00    +0.163 HD
ATOM    109  H94 UNL     1      16.436  11.319   1.795 +0.14 +0.00    +0.163 HD
ATOM    110  H95 UNL     1      15.882  11.088   7.466 +0.32 +0.00    +0.312 HD
ATOM    111  H96 UNL     1      17.395  10.967   6.894 +0.56 +0.00    +0.312 HD
ATOM    112  H97 UNL     1      18.232  10.322   0.838 +0.14 +0.00    +0.163 HD
ATOM    113  H98 UNL     1      21.811   7.945   2.152 +0.19 +0.00    +0.163 HD
ATOM    114  H99 UNL     1      28.934  10.994  -0.845+22.23 +0.00    +0.126 HD
ATOM    115  HA0 UNL     1      27.697  11.753  -0.028 +0.67 +0.00    +0.126 HD
ATOM    116  HA1 UNL     1      29.610   9.016   0.194 +0.05 +0.00    +0.126 HD
ATOM    117  HA2 UNL     1      28.390   7.894   0.287 +0.06 +0.00    +0.126 HD
ATOM    118  HA3 UNL     1      25.365   7.590  -0.168 +0.12 +0.00    +0.163 HD
ATOM    119  HA4 UNL     1      27.417   7.116   2.919 +0.06 +0.00    +0.159 HD
ATOM    120  HA5 UNL     1      26.586   7.827   1.596 +0.11 +0.00    +0.159 HD
ATOM    121  HA6 UNL     1      15.819   9.730   5.408 +0.24 +0.00    +0.210 HD
ATOM    122  HA7 UNL     1      11.504  11.412  -1.971 -0.33 +0.00    +0.167 HD
ATOM    123  HA8 UNL     1      21.365   3.792   5.708 +0.48 +0.00    +0.217 HD
ENDROOT
TORSDOF 52
TER
