USER    Run = 1
USER    DPF = ligand_383_receptor.dpf
USER  
USER    Estimated Free Energy of Binding    =  +7.86e+005 kcal/mol  [=(1)+(2)+(3)-(4)]
USER    
USER    (1) Final Intermolecular Energy     =  +7.86e+005 kcal/mol
USER        vdW + Hbond + desolv Energy     =  +4.71e+005 kcal/mol
USER        Electrostatic Energy            =  +3.15e+005 kcal/mol
USER    (2) Final Total Internal Energy     =   +0.00 kcal/mol
USER    (3) Torsional Free Energy           =   +1.19 kcal/mol
USER    (4) Unbound System's Energy  [=(2)] =   +0.00 kcal/mol
USER    
USER    
USER    NEWDPF move ligand_383.pdbqt
USER    NEWDPF about 0.000000 0.000000 0.000000
USER    NEWDPF tran0 18.225423 6.108456 3.555330
USER    NEWDPF quaternion0 -0.093808 0.560659 -0.807121 0.159427
USER    NEWDPF axisangle0 -0.095023 0.567923 -0.817578 161.652735
USER    NEWDPF quat0 -0.095023 0.567923 -0.817578 161.652735
USER  keepresnum = 1 
USER  
REMARK  0 active torsions:
REMARK  status: ('A' for Active; 'I' for Inactive)
REMARK       I    between atoms: C2_2  and  O1_62 
REMARK       I    between atoms: C3_3  and  C4_4 
REMARK       I    between atoms: C3_3  and  O1_62 
REMARK       I    between atoms: C4_4  and  C5_5 
REMARK       I    between atoms: C5_5  and  N1_77 
REMARK       I    between atoms: C6_6  and  C7_7 
REMARK       I    between atoms: C6_6  and  C11_11 
REMARK       I    between atoms: C6_6  and  N1_77 
REMARK       I    between atoms: C7_7  and  C8_8 
REMARK       I    between atoms: C8_8  and  C9_9 
REMARK       I    between atoms: C9_9  and  C10_10 
REMARK       I    between atoms: C10_10  and  N2_78 
REMARK       I    between atoms: C11_11  and  N3_79 
REMARK       I    between atoms: C12_12  and  N3_79 
REMARK       I    between atoms: C14_14  and  C19_19 
REMARK       I    between atoms: C15_15  and  O5_66 
REMARK       I    between atoms: C19_19  and  N4_80 
REMARK       I    between atoms: C20_20  and  C21_21 
REMARK       I    between atoms: C20_20  and  C25_25 
REMARK       I    between atoms: C20_20  and  N4_80 
REMARK       I    between atoms: C21_21  and  C22_22 
REMARK       I    between atoms: C22_22  and  C23_23 
REMARK       I    between atoms: C23_23  and  C24_24 
REMARK       I    between atoms: C24_24  and  N5_81 
REMARK       I    between atoms: C25_25  and  N6_82 
REMARK       I    between atoms: C26_26  and  N6_82 
REMARK       I    between atoms: C28_28  and  C33_33 
REMARK       I    between atoms: C29_29  and  O8_69 
REMARK       I    between atoms: C33_33  and  N7_83 
REMARK       I    between atoms: C34_34  and  C35_35 
REMARK       I    between atoms: C34_34  and  C39_39 
REMARK       I    between atoms: C34_34  and  N7_83 
REMARK       I    between atoms: C35_35  and  C36_36 
REMARK       I    between atoms: C36_36  and  C37_37 
REMARK       I    between atoms: C37_37  and  C38_38 
REMARK       I    between atoms: C38_38  and  N8_84 
REMARK       I    between atoms: C39_39  and  N9_85 
REMARK       I    between atoms: C40_40  and  N9_85 
REMARK       I    between atoms: C42_42  and  C47_47 
REMARK       I    between atoms: C43_43  and  O11_72 
REMARK       I    between atoms: C47_47  and  N10_86 
REMARK       I    between atoms: C48_48  and  C49_49 
REMARK       I    between atoms: C48_48  and  C53_53 
REMARK       I    between atoms: C48_48  and  N10_86 
REMARK       I    between atoms: C49_49  and  C50_50 
REMARK       I    between atoms: C50_50  and  C51_51 
REMARK       I    between atoms: C51_51  and  C52_52 
REMARK       I    between atoms: C52_52  and  N11_87 
REMARK       I    between atoms: C53_53  and  N12_88 
REMARK       I    between atoms: C54_54  and  N12_88 
REMARK       I    between atoms: C56_56  and  C61_61 
REMARK       I    between atoms: C57_57  and  O14_75 
REMARK       I    between atoms: C61_61  and  N13_89 
USER                              x       y       z     vdW  Elec       q    Type
USER                           _______ _______ _______ _____ _____    ______ ____
ROOT
ATOM      1  C1  UNL     1       0.328   5.985  10.001+99.99+99.99    +0.034 C 
ATOM      2  C2  UNL     1       1.808   6.162  10.285+99.99+99.99    +0.174 C 
ATOM      3  C3  UNL     1       2.821   6.643   8.197 +1.89 +0.00    +0.267 C 
ATOM      4  C4  UNL     1       3.643   6.057   7.091 -0.23 +0.00    +0.213 C 
ATOM      5  C5  UNL     1       4.995   5.580   7.541 +0.17 +0.00    +0.227 C 
ATOM      6  C6  UNL     1       6.877   4.053   7.014 -0.37 +0.00    +0.177 C 
ATOM      7  C7  UNL     1       6.983   2.616   6.483+99.99 +0.00    +0.035 C 
ATOM      8  C8  UNL     1       8.087   1.779   7.147+99.99 +0.00    +0.004 C 
ATOM      9  C9  UNL     1       9.509   2.254   6.841+15.07 +0.00    +0.030 C 
ATOM     10  C10 UNL     1      10.590   1.278   7.314+99.99 +0.00    +0.267 C 
ATOM     11  C11 UNL     1       7.865   5.031   6.328 -0.27 +0.00    +0.245 C 
ATOM     12  C12 UNL     1       8.890   7.279   6.779+99.99 +0.00    +0.035 A 
ATOM     13  C13 UNL     1       9.802   7.310   5.721 +3.64 +0.00    +0.049 A 
ATOM     14  C14 UNL     1      10.622   8.433   5.505 -0.10 +0.00    +0.067 A 
ATOM     15  C15 UNL     1      10.488   9.544   6.348 +6.99 +0.00    +0.084 A 
ATOM     16  C16 UNL     1       9.598   9.512   7.422+21.09 +0.00    +0.040 A 
ATOM     17  C17 UNL     1       8.802   8.385   7.633+99.99 +0.00    +0.032 A 
ATOM     18  C18 UNL     1      10.506  11.659   5.456+99.99 +0.00    +0.210 C 
ATOM     19  C19 UNL     1      11.593   8.365   4.374 -0.19 +0.00    +0.255 C 
ATOM     20  C20 UNL     1      13.734   9.173   3.425 +1.76 +0.00    +0.177 C 
ATOM     21  C21 UNL     1      13.362  10.051   2.217+99.99 +0.00    +0.035 C 
ATOM     22  C22 UNL     1      13.312  11.552   2.532+99.99 +0.00    +0.004 C 
ATOM     23  C23 UNL     1      12.900  12.403   1.324+37.53 +0.00    +0.030 C 
ATOM     24  C24 UNL     1      11.428  12.282   0.922+73.77 +0.00    +0.267 C 
ATOM     25  C25 UNL     1      15.084   9.588   4.053 +1.65 +0.00    +0.245 C 
ATOM     26  C26 UNL     1      17.529   9.556   3.486 -0.47 +0.00    +0.035 A 
ATOM     27  C27 UNL     1      18.451   9.122   2.531 -0.37 +0.00    +0.049 A 
ATOM     28  C28 UNL     1      19.834   9.346   2.688 -0.25 +0.00    +0.067 A 
ATOM     29  C29 UNL     1      20.306  10.006   3.837+27.72 +0.00    +0.084 A 
ATOM     30  C30 UNL     1      19.375  10.452   4.783+99.99 +0.00    +0.040 A 
ATOM     31  C31 UNL     1      18.003  10.228   4.609 +3.77 +0.00    +0.032 A 
ATOM     32  C32 UNL     1      22.145  10.571   5.252+17.92 +0.00    +0.210 C 
ATOM     33  C33 UNL     1      20.707   8.830   1.589+11.49 +0.00    +0.255 C 
ATOM     34  C34 UNL     1      22.921   8.944   0.422 -0.40 +0.00    +0.177 C 
ATOM     35  C35 UNL     1      23.872  10.103   0.068 +5.90 +0.00    +0.035 C 
ATOM     36  C36 UNL     1      25.093  10.381   0.960+10.29 +0.00    +0.004 C 
ATOM     37  C37 UNL     1      24.794  10.573   2.447 -0.09 +0.00    +0.030 C 
ATOM     38  C38 UNL     1      26.005  11.058   3.250+12.98 +0.00    +0.267 C 
ATOM     39  C39 UNL     1      23.626   7.580   0.674 -0.32 +0.00    +0.245 C 
ATOM     40  C40 UNL     1      23.026   5.248   1.382 +0.67 +0.00    +0.035 A 
ATOM     41  C41 UNL     1      24.313   4.761   1.606 -0.13 +0.00    +0.049 A 
ATOM     42  C42 UNL     1      24.530   3.412   1.956+71.62 +0.00    +0.067 A 
ATOM     43  C43 UNL     1      23.432   2.539   2.093+99.99 +0.00    +0.084 A 
ATOM     44  C44 UNL     1      22.143   3.038   1.875 +0.71 +0.00    +0.040 A 
ATOM     45  C45 UNL     1      21.944   4.379   1.531+55.95 +0.00    +0.032 A 
ATOM     46  C46 UNL     1      22.579   0.406   2.770+38.19 +0.00    +0.210 C 
ATOM     47  C47 UNL     1      25.957   3.012   2.173+99.99 +0.00    +0.255 C 
ATOM     48  C48 UNL     1      27.606   1.156   2.405+99.99 +0.00    +0.177 C 
ATOM     49  C49 UNL     1      27.568  -0.255   3.011+99.99 +0.00    +0.035 C 
ATOM     50  C50 UNL     1      26.862  -0.356   4.371+99.99 +0.00    +0.004 C 
ATOM     51  C51 UNL     1      27.407   0.553   5.477+99.99 +0.00    +0.030 C 
ATOM     52  C52 UNL     1      28.878   0.295   5.802+99.99 +0.00    +0.267 C 
ATOM     53  C53 UNL     1      28.379   1.166   1.057 +6.18 +0.00    +0.245 C 
ATOM     54  C54 UNL     1      29.214   2.846  -0.616 -0.24 +0.00    +0.035 A 
ATOM     55  C55 UNL     1      29.925   1.977  -1.444 -0.15 +0.00    +0.049 A 
ATOM     56  C56 UNL     1      30.545   2.452  -2.613 -0.08 +0.00    +0.067 A 
ATOM     57  C57 UNL     1      30.469   3.812  -2.934 -0.04 +0.00    +0.084 A 
ATOM     58  C58 UNL     1      29.750   4.683  -2.114 -0.10 +0.00    +0.040 A 
ATOM     59  C59 UNL     1      29.134   4.203  -0.957 -0.16 +0.00    +0.032 A 
ATOM     60  C60 UNL     1      32.242   4.950  -3.850 -0.00 +0.00    +0.210 C 
ATOM     61  C61 UNL     1      31.298   1.503  -3.472 -0.05 +0.00    +0.252 C 
ATOM     62  O1  UNL     1       2.584   5.714   9.164+10.18 -0.00    -0.322 OA
ATOM     63  O2  UNL     1       2.381   7.785   8.187 -0.12 -0.00    -0.265 OA
ATOM     64  O3  UNL     1       5.616   6.066   8.484 +5.16 -0.00    -0.273 OA
ATOM     65  O4  UNL     1       8.343   4.797   5.223 -0.17 -0.00    -0.271 OA
ATOM     66  O5  UNL     1      11.248  10.675   6.186+99.99 -0.00    -0.355 OA
ATOM     67  O6  UNL     1      11.415   7.581   3.446 -0.28 -0.00    -0.268 OA
ATOM     68  O7  UNL     1      15.136  10.144   5.148+48.67 -0.00    -0.271 OA
ATOM     69  O8  UNL     1      21.659  10.185   3.969 +0.78 -0.00    -0.355 OA
ATOM     70  O9  UNL     1      20.289   7.970   0.815+99.99 -0.00    -0.268 OA
ATOM     71  O10 UNL     1      24.818   7.403   0.439 -0.24 -0.00    -0.271 OA
ATOM     72  O11 UNL     1      23.687   1.232   2.425+99.99 -0.00    -0.355 OA
ATOM     73  O12 UNL     1      26.849   3.853   2.261+99.99 -0.00    -0.268 OA
ATOM     74  O13 UNL     1      28.794   0.132   0.537+99.99 -0.00    -0.271 OA
ATOM     75  O14 UNL     1      30.993   4.303  -4.100 -0.01 -0.00    -0.355 OA
ATOM     76  O15 UNL     1      32.370   1.782  -3.991 -0.02 -0.00    -0.268 OA
ATOM     77  N1  UNL     1       5.525   4.571   6.763 -0.24 -0.00    -0.347 N 
ATOM     78  N2  UNL     1      10.631   1.130   8.765+10.53 +0.00    +0.078 N 
ATOM     79  N3  UNL     1       8.052   6.187   7.071 +1.17 -0.00    -0.325 N 
ATOM     80  N4  UNL     1      12.695   9.181   4.442 +2.63 -0.00    -0.344 N 
ATOM     81  N5  UNL     1      10.541  12.787   1.966+67.22 +0.00    +0.078 N 
ATOM     82  N6  UNL     1      16.168   9.288   3.239 -0.22 -0.00    -0.325 N 
ATOM     83  N7  UNL     1      21.985   9.322   1.490 -0.17 -0.00    -0.344 N 
ATOM     84  N8  UNL     1      27.123  10.130   3.179 +4.42 +0.00    +0.078 N 
ATOM     85  N9  UNL     1      22.737   6.578   1.034 +1.82 -0.00    -0.325 N 
ATOM     86  N10 UNL     1      26.252   1.671   2.207+99.99 -0.00    -0.344 N 
ATOM     87  N11 UNL     1      29.297   1.132   6.920+32.93 +0.00    +0.078 N 
ATOM     88  N12 UNL     1      28.557   2.448   0.563 -0.15 -0.00    -0.325 N 
ATOM     89  N13 UNL     1      30.731   0.270  -3.653 -0.06 -0.00    -0.366 N 
ATOM     90  H68 UNL     1       5.163   4.453   5.823 +0.07 +0.00    +0.163 HD
ATOM     91  H69 UNL     1       9.750   0.748   9.105 +0.32 +0.00    +0.312 HD
ATOM     92  H70 UNL     1      10.738   2.046   9.200+11.77 +0.00    +0.312 HD
ATOM     93  H71 UNL     1       7.435   6.294   7.879 +0.09 +0.00    +0.169 HD
ATOM     94  H72 UNL     1      12.810   9.810   5.235 +2.62 +0.00    +0.163 HD
ATOM     95  H73 UNL     1      10.721  13.779   2.110 +1.40 +0.00    +0.312 HD
ATOM     96  H74 UNL     1       9.576  12.720   1.640+99.99 +0.00    +0.312 HD
ATOM     97  H75 UNL     1      15.963   8.784   2.383 +0.09 +0.00    +0.169 HD
ATOM     98  H76 UNL     1      22.321   9.886   2.263 +0.13 +0.00    +0.163 HD
ATOM     99  H77 UNL     1      26.825   9.188   3.430 -0.09 +0.00    +0.312 HD
ATOM    100  H78 UNL     1      27.846  10.398   3.844 +0.42 +0.00    +0.312 HD
ATOM    101  H79 UNL     1      21.751   6.822   0.940 +7.03 +0.00    +0.169 HD
ATOM    102  H80 UNL     1      25.498   1.015   2.027+99.99 +0.00    +0.163 HD
ATOM    103  H81 UNL     1      29.192   2.116   6.671 +0.32 +0.00    +0.312 HD
ATOM    104  H82 UNL     1      30.291   0.990   7.095+70.89 +0.00    +0.312 HD
ATOM    105  H83 UNL     1      28.103   3.191   1.100 +0.08 +0.00    +0.169 HD
ATOM    106  H84 UNL     1      31.190  -0.356  -4.301 +0.03 +0.00    +0.159 HD
ATOM    107  H85 UNL     1      29.786   0.056  -3.363 +0.03 +0.00    +0.159 HD
ENDROOT
TORSDOF 44
TER
