USER    Run = 1
USER    DPF = ligand_19_receptor.dpf
USER  
USER    Estimated Free Energy of Binding    = +226.87 kcal/mol  [=(1)+(2)+(3)-(4)]
USER    
USER    (1) Final Intermolecular Energy     = +225.67 kcal/mol
USER        vdW + Hbond + desolv Energy     = +225.67 kcal/mol
USER        Electrostatic Energy            =   +0.00 kcal/mol
USER    (2) Final Total Internal Energy     =   +0.00 kcal/mol
USER    (3) Torsional Free Energy           =   +1.19 kcal/mol
USER    (4) Unbound System's Energy  [=(2)] =   +0.00 kcal/mol
USER    
USER    
USER    NEWDPF move ligand_19.pdbqt
USER    NEWDPF about 0.000000 0.000000 0.000000
USER    NEWDPF tran0 12.230480 5.534312 3.550759
USER    NEWDPF quaternion0 -0.951947 -0.228395 -0.203693 0.011896
USER    NEWDPF axisangle0 -0.952015 -0.228411 -0.203707 178.636751
USER    NEWDPF quat0 -0.952015 -0.228411 -0.203707 178.636751
USER  keepresnum = 1 
USER  
REMARK  0 active torsions:
REMARK  status: ('A' for Active; 'I' for Inactive)
REMARK       I    between atoms: C2_2  and  C3_3 
REMARK       I    between atoms: C3_3  and  C5_5 
REMARK       I    between atoms: C5_5  and  C6_6 
REMARK       I    between atoms: C5_5  and  N5_60 
REMARK       I    between atoms: C6_6  and  N1_56 
REMARK       I    between atoms: C7_7  and  C8_8 
REMARK       I    between atoms: C7_7  and  C15_15 
REMARK       I    between atoms: C7_7  and  N1_56 
REMARK       I    between atoms: C8_8  and  C9_9 
REMARK       I    between atoms: C12_12  and  O2_42 
REMARK       I    between atoms: C15_15  and  N2_57 
REMARK       I    between atoms: C16_16  and  C17_17 
REMARK       I    between atoms: C16_16  and  C18_18 
REMARK       I    between atoms: C16_16  and  N2_57 
REMARK       I    between atoms: C17_17  and  O4_44 
REMARK       I    between atoms: C18_18  and  N3_58 
REMARK       I    between atoms: C19_19  and  C20_20 
REMARK       I    between atoms: C19_19  and  C22_22 
REMARK       I    between atoms: C19_19  and  N3_58 
REMARK       I    between atoms: C20_20  and  C21_21 
REMARK       I    between atoms: C21_21  and  N4_59 
REMARK       I    between atoms: C22_22  and  O8_48 
REMARK       I    between atoms: C23_23  and  C24_24 
REMARK       I    between atoms: C23_23  and  N5_60 
REMARK       I    between atoms: C28_28  and  C29_29 
REMARK       I    between atoms: C28_28  and  N6_61 
REMARK       I    between atoms: C29_29  and  C30_30 
REMARK       I    between atoms: C29_29  and  N7_62 
REMARK       I    between atoms: C30_30  and  C31_31 
REMARK       I    between atoms: C31_31  and  O12_52 
REMARK       I    between atoms: C32_32  and  C33_33 
REMARK       I    between atoms: C32_32  and  N7_62 
REMARK       I    between atoms: C33_33  and  C34_34 
REMARK       I    between atoms: C33_33  and  N11_67 
REMARK       I    between atoms: C34_34  and  C35_35 
REMARK       I    between atoms: C35_35  and  C36_36 
REMARK       I    between atoms: C36_36  and  N8_63 
REMARK       I    between atoms: C37_37  and  N9_65 
REMARK       I    between atoms: C37_37  and  N10_66 
REMARK       I    between atoms: C38_38  and  C39_39 
REMARK       I    between atoms: C38_38  and  N11_67 
REMARK       I    between atoms: C39_39  and  C40_40 
REMARK       I    between atoms: C39_39  and  N12_68 
REMARK       I    between atoms: C40_40  and  O15_55 
USER                              x       y       z     vdW  Elec       q    Type
USER                           _______ _______ _______ _____ _____    ______ ____
ROOT
ATOM      1  C1  UNL     1       8.635   9.268   8.514+39.75 +0.00    +0.005 C 
ATOM      2  C2  UNL     1       9.586   9.277   7.323+22.86 +0.00    +0.002 C 
ATOM      3  C3  UNL     1      11.062   8.999   7.697 +7.90 +0.00    +0.013 C 
ATOM      4  C4  UNL     1      11.604  10.093   8.626 +2.66 +0.00    +0.012 C 
ATOM      5  C5  UNL     1      11.930   8.879   6.421 +1.10 +0.00    +0.180 C 
ATOM      6  C6  UNL     1      13.408   8.538   6.756 +0.04 +0.00    +0.241 C 
ATOM      7  C7  UNL     1      15.024   6.692   6.932 +1.84 +0.00    +0.180 C 
ATOM      8  C8  UNL     1      15.173   5.228   7.390 +3.81 +0.00    +0.073 C 
ATOM      9  C9  UNL     1      14.084   4.291   6.907 -0.09 -0.00    -0.056 A 
ATOM     10  C10 UNL     1      12.930   4.106   7.682 -0.56 +0.00    +0.010 A 
ATOM     11  C11 UNL     1      11.867   3.342   7.199 +0.29 +0.00    +0.037 A 
ATOM     12  C12 UNL     1      11.953   2.761   5.939 +8.44 +0.00    +0.065 A 
ATOM     13  C13 UNL     1      13.107   2.891   5.178+16.41 +0.00    +0.037 A 
ATOM     14  C14 UNL     1      14.173   3.654   5.661+32.12 +0.00    +0.010 A 
ATOM     15  C15 UNL     1      15.512   6.871   5.482 +0.81 +0.00    +0.241 C 
ATOM     16  C16 UNL     1      17.051   8.208   4.096 -0.43 +0.00    +0.200 C 
ATOM     17  C17 UNL     1      16.165   9.428   3.795 -0.32 +0.00    +0.199 C 
ATOM     18  C18 UNL     1      18.538   8.603   4.173 -0.16 +0.00    +0.243 C 
ATOM     19  C19 UNL     1      20.503   9.421   2.919 -0.22 +0.00    +0.191 C 
ATOM     20  C20 UNL     1      21.188   9.108   1.590 +1.11 +0.00    +0.138 C 
ATOM     21  C21 UNL     1      21.875   7.765   1.600+20.45 +0.00    +0.217 C 
ATOM     22  C22 UNL     1      20.428  10.937   3.061 +2.89 +0.00    +0.164 C 
ATOM     23  C23 UNL     1      11.816   7.696   4.233 -0.30 +0.00    +0.241 C 
ATOM     24  C24 UNL     1      11.626   6.278   3.644 -0.25 +0.00    +0.179 C 
ATOM     25  C25 UNL     1      12.142   6.172   2.206 -0.07 +0.00    +0.037 C 
ATOM     26  C26 UNL     1      10.889   6.415   1.374 -0.36 +0.00    +0.022 C 
ATOM     27  C27 UNL     1       9.825   5.677   2.169 -0.18 +0.00    +0.127 C 
ATOM     28  C28 UNL     1       9.514   5.417   4.671 -0.17 +0.00    +0.243 C 
ATOM     29  C29 UNL     1       8.166   4.702   4.416 -0.20 +0.00    +0.186 C 
ATOM     30  C30 UNL     1       7.309   4.592   5.677 -0.31 +0.00    +0.144 C 
ATOM     31  C31 UNL     1       7.888   3.705   6.744 -0.30 +0.00    +0.141 C 
ATOM     32  C32 UNL     1       7.493   2.864   2.902 -0.18 +0.00    +0.241 C 
ATOM     33  C33 UNL     1       7.901   1.578   2.131 +0.07 +0.00    +0.176 C 
ATOM     34  C34 UNL     1       9.403   1.249   2.062 +2.48 +0.00    +0.036 C 
ATOM     35  C35 UNL     1       9.733  -0.112   1.426 +0.58 +0.00    +0.022 C 
ATOM     36  C36 UNL     1       9.866  -0.095  -0.096 -0.35 +0.00    +0.121 C 
ATOM     37  C37 UNL     1      11.028   1.409  -1.518 -0.30 +0.00    +0.121 C 
ATOM     38  C38 UNL     1       7.582   2.578  -0.114 -0.04 +0.00    +0.253 C 
ATOM     39  C39 UNL     1       6.673   2.651  -1.368 -0.01 +0.00    +0.332 C 
ATOM     40  C40 UNL     1       6.320   1.281  -1.974 -0.08 +0.00    +0.209 C 
ATOM     41  O1  UNL     1      14.287   9.388   6.886 +6.75 -0.00    -0.271 OA
ATOM     42  O2  UNL     1      10.898   2.079   5.404 +1.01 -0.00    -0.361 OA
ATOM     43  O3  UNL     1      14.875   6.478   4.505 +0.47 -0.00    -0.271 OA
ATOM     44  O4  UNL     1      16.155  10.351   4.885 +2.97 -0.00    -0.398 OA
ATOM     45  O5  UNL     1      19.157   8.633   5.237 +6.60 -0.00    -0.271 OA
ATOM     46  O6  UNL     1      21.950   7.014   2.563+17.71 -0.00    -0.274 OA
ATOM     47  O7  UNL     1      19.540  11.652   2.619 +0.17 -0.00    -0.648 OA
ATOM     48  O8  UNL     1      21.500  11.474   3.673 +4.63 -0.00    -0.775 OA
ATOM     49  O9  UNL     1      12.345   8.627   3.632 -0.27 -0.00    -0.271 OA
ATOM     50  O10 UNL     1       9.936   5.607   5.815 -0.17 -0.00    -0.271 OA
ATOM     51  O11 UNL     1       8.662   2.771   6.608 +0.45 -0.00    -0.650 OA
ATOM     52  O12 UNL     1       7.394   4.006   7.963 +0.20 -0.00    -0.776 OA
ATOM     53  O13 UNL     1       6.361   3.344   2.779 -0.09 -0.00    -0.271 OA
ATOM     54  O14 UNL     1       8.510   3.371   0.056 -0.07 -0.00    -0.271 OA
ATOM     55  O15 UNL     1       7.450   0.641  -2.581 -0.09 -0.00    -0.398 OA
ATOM     56  N1  UNL     1      13.649   7.187   6.967 -0.16 -0.00    -0.346 N 
ATOM     57  N2  UNL     1      16.677   7.588   5.364 +1.68 -0.00    -0.344 N 
ATOM     58  N3  UNL     1      19.128   8.904   2.957 -0.19 -0.00    -0.344 N 
ATOM     59  N4  UNL     1      22.441   7.420   0.406 +1.27 -0.00    -0.370 N 
ATOM     60  N5  UNL     1      11.448   7.792   5.562 -0.16 -0.00    -0.346 N 
ATOM     61  N6  UNL     1      10.223   5.844   3.563 -0.09 -0.00    -0.337 N 
ATOM     62  N7  UNL     1       8.407   3.417   3.762 -0.13 -0.00    -0.346 N 
ATOM     63  N8  UNL     1      11.036   0.692  -0.462 -0.14 -0.00    -0.372 N 
ATOM     64  H8  UNL     1      11.868   0.670   0.130 -0.10 +0.00    +0.161 HD
ATOM     65  N9  UNL     1      12.123   2.139  -1.824+13.57 -0.00    -0.279 NA
ATOM     66  N10 UNL     1      10.078   1.617  -2.455 -0.44 -0.00    -0.279 NA
ATOM     67  N11 UNL     1       7.220   1.639   0.834 -0.07 -0.00    -0.346 N 
ATOM     68  N12 UNL     1       7.326   3.505  -2.394 -0.13 +0.00    +0.094 N 
ATOM     69  H44 UNL     1      10.139   2.167   6.023 +0.11 +0.00    +0.217 HD
ATOM     70  H45 UNL     1      15.527  10.007   5.558 +0.33 +0.00    +0.209 HD
ATOM     71  H46 UNL     1      21.285  12.427   3.746 +1.78 +0.00    +0.167 HD
ATOM     72  H47 UNL     1       7.800   3.361   8.578 +0.11 +0.00    +0.167 HD
ATOM     73  H48 UNL     1       7.089  -0.087  -3.118 +0.08 +0.00    +0.209 HD
ATOM     74  H49 UNL     1      12.974   6.588   6.505 +0.13 +0.00    +0.163 HD
ATOM     75  H50 UNL     1      17.085   8.036   6.181 +2.88 +0.00    +0.163 HD
ATOM     76  H51 UNL     1      18.510   9.231   2.224 +0.12 +0.00    +0.163 HD
ATOM     77  H52 UNL     1      22.967   6.555   0.379 +0.11 +0.00    +0.159 HD
ATOM     78  H53 UNL     1      22.549   8.069  -0.362 +0.11 +0.00    +0.159 HD
ATOM     79  H54 UNL     1      10.986   6.982   5.982 +0.12 +0.00    +0.163 HD
ATOM     80  H55 UNL     1       9.324   2.996   3.888 -0.15 +0.00    +0.163 HD
ATOM     81  H56 UNL     1      11.873   3.096  -2.042 +3.80 +0.00    +0.126 HD
ATOM     82  H57 UNL     1      12.764   2.117  -1.036 -0.30 +0.00    +0.126 HD
ATOM     83  H58 UNL     1       9.267   0.999  -2.412 +0.06 +0.00    +0.126 HD
ATOM     84  H59 UNL     1      10.463   1.635  -3.392 +0.30 +0.00    +0.126 HD
ATOM     85  H60 UNL     1       6.228   1.442   0.880 +0.06 +0.00    +0.163 HD
ATOM     86  H61 UNL     1       8.165   2.991  -2.691 +0.10 +0.00    +0.314 HD
ATOM     87  H62 UNL     1       7.722   4.308  -1.894 +0.04 +0.00    +0.314 HD
ENDROOT
TORSDOF 34
TER
