USER    Run = 1
USER    DPF = ligand_421_receptor.dpf
USER  
USER    Estimated Free Energy of Binding    =  +2.93e+006 kcal/mol  [=(1)+(2)+(3)-(4)]
USER    
USER    (1) Final Intermolecular Energy     =  +2.93e+006 kcal/mol
USER        vdW + Hbond + desolv Energy     =  +1.59e+006 kcal/mol
USER        Electrostatic Energy            =  +1.33e+006 kcal/mol
USER    (2) Final Total Internal Energy     =   +0.00 kcal/mol
USER    (3) Torsional Free Energy           =   +1.19 kcal/mol
USER    (4) Unbound System's Energy  [=(2)] =   +0.00 kcal/mol
USER    
USER    
USER    NEWDPF move ligand_421.pdbqt
USER    NEWDPF about 0.000000 0.000000 0.000000
USER    NEWDPF tran0 15.828193 6.240130 3.791209
USER    NEWDPF quaternion0 -0.495905 -0.021658 -0.866303 -0.055931
USER    NEWDPF axisangle0 -0.496682 -0.021691 -0.867661 -173.587427
USER    NEWDPF quat0 -0.496682 -0.021691 -0.867661 -173.587427
USER  keepresnum = 1 
USER  
REMARK  0 active torsions:
REMARK  status: ('A' for Active; 'I' for Inactive)
REMARK       I    between atoms: C2_2  and  C3_3 
REMARK       I    between atoms: C2_2  and  O15_77 
REMARK       I    between atoms: C3_3  and  C4_4 
REMARK       I    between atoms: C3_3  and  N18_97 
REMARK       I    between atoms: C4_4  and  N1_78 
REMARK       I    between atoms: C5_5  and  C7_7 
REMARK       I    between atoms: C5_5  and  N1_78 
REMARK       I    between atoms: C7_7  and  N2_79 
REMARK       I    between atoms: C8_8  and  C10_10 
REMARK       I    between atoms: C8_8  and  N2_79 
REMARK       I    between atoms: C10_10  and  N3_80 
REMARK       I    between atoms: C11_11  and  C12_12 
REMARK       I    between atoms: C11_11  and  C16_16 
REMARK       I    between atoms: C11_11  and  N3_80 
REMARK       I    between atoms: C12_12  and  C13_13 
REMARK       I    between atoms: C13_13  and  C14_14 
REMARK       I    between atoms: C14_14  and  N4_81 
REMARK       I    between atoms: C15_15  and  N5_83 
REMARK       I    between atoms: C15_15  and  N6_84 
REMARK       I    between atoms: C16_16  and  N7_85 
REMARK       I    between atoms: C17_17  and  C18_18 
REMARK       I    between atoms: C17_17  and  C22_22 
REMARK       I    between atoms: C17_17  and  N7_85 
REMARK       I    between atoms: C18_18  and  C19_19 
REMARK       I    between atoms: C19_19  and  C20_20 
REMARK       I    between atoms: C20_20  and  C21_21 
REMARK       I    between atoms: C21_21  and  N8_86 
REMARK       I    between atoms: C22_22  and  N9_87 
REMARK       I    between atoms: C23_23  and  C24_24 
REMARK       I    between atoms: C23_23  and  C25_25 
REMARK       I    between atoms: C23_23  and  N9_87 
REMARK       I    between atoms: C24_24  and  O6_68 
REMARK       I    between atoms: C25_25  and  N10_88 
REMARK       I    between atoms: C26_26  and  C28_28 
REMARK       I    between atoms: C26_26  and  N10_88 
REMARK       I    between atoms: C28_28  and  N11_89 
REMARK       I    between atoms: C29_29  and  C30_30 
REMARK       I    between atoms: C29_29  and  C34_34 
REMARK       I    between atoms: C29_29  and  N11_89 
REMARK       I    between atoms: C30_30  and  C31_31 
REMARK       I    between atoms: C31_31  and  C32_32 
REMARK       I    between atoms: C32_32  and  N12_90 
REMARK       I    between atoms: C33_33  and  N13_92 
REMARK       I    between atoms: C33_33  and  N14_93 
REMARK       I    between atoms: C34_34  and  N15_94 
REMARK       I    between atoms: C35_35  and  C36_36 
REMARK       I    between atoms: C35_35  and  C40_40 
REMARK       I    between atoms: C35_35  and  N15_94 
REMARK       I    between atoms: C36_36  and  C37_37 
REMARK       I    between atoms: C37_37  and  C38_38 
REMARK       I    between atoms: C38_38  and  C39_39 
REMARK       I    between atoms: C39_39  and  N16_95 
REMARK       I    between atoms: C40_40  and  N17_96 
REMARK       I    between atoms: C41_41  and  C42_42 
REMARK       I    between atoms: C41_41  and  N18_97 
REMARK       I    between atoms: C42_42  and  C43_43 
REMARK       I    between atoms: C42_42  and  N19_98 
REMARK       I    between atoms: C43_43  and  C44_44 
REMARK       I    between atoms: C50_50  and  C51_51 
REMARK       I    between atoms: C50_50  and  N19_98 
REMARK       I    between atoms: C51_51  and  N20_99 
REMARK       I    between atoms: C52_52  and  C53_53 
REMARK       I    between atoms: C52_52  and  N20_99 
REMARK       I    between atoms: C53_53  and  N21_100 
REMARK       I    between atoms: C54_54  and  C55_55 
REMARK       I    between atoms: C54_54  and  N21_100 
REMARK       I    between atoms: C55_55  and  C56_56 
REMARK       I    between atoms: C55_55  and  N22_101 
REMARK       I    between atoms: C56_56  and  C57_57 
USER                              x       y       z     vdW  Elec       q    Type
USER                           _______ _______ _______ _____ _____    ______ ____
ROOT
ATOM      1  C1  UNL     1      10.584   8.041   4.545 -0.46 +0.00    +0.042 C 
ATOM      2  C2  UNL     1      11.122   7.100   5.617 -0.32 +0.00    +0.146 C 
ATOM      3  C3  UNL     1      10.651   5.649   5.404 -0.22 +0.00    +0.205 C 
ATOM      4  C4  UNL     1      11.388   4.734   6.396 -0.29 +0.00    +0.243 C 
ATOM      5  C5  UNL     1      12.003   2.406   6.908+99.99 +0.00    +0.172 C 
ATOM      6  C6  UNL     1      11.798   1.015   6.324+99.99 +0.00    +0.042 C 
ATOM      7  C7  UNL     1      13.503   2.603   7.217+74.29 +0.00    +0.240 C 
ATOM      8  C8  UNL     1      15.570   3.644   6.353+99.99 +0.00    +0.172 C 
ATOM      9  C9  UNL     1      16.528   3.076   5.316+99.99 +0.00    +0.042 C 
ATOM     10  C10 UNL     1      15.492   5.180   6.211+99.99 +0.00    +0.240 C 
ATOM     11  C11 UNL     1      16.827   7.250   6.393+57.06 +0.00    +0.176 C 
ATOM     12  C12 UNL     1      17.437   8.026   7.568+99.99 +0.00    +0.036 C 
ATOM     13  C13 UNL     1      16.396   8.829   8.353+99.99 +0.00    +0.022 C 
ATOM     14  C14 UNL     1      15.360   7.968   9.074+42.53 +0.00    +0.121 C 
ATOM     15  C15 UNL     1      13.372   9.256   9.055 +0.32 +0.00    +0.121 C 
ATOM     16  C16 UNL     1      17.802   7.244   5.198+24.20 +0.00    +0.241 C 
ATOM     17  C17 UNL     1      18.680   8.577   3.287 -0.39 +0.00    +0.176 C 
ATOM     18  C18 UNL     1      18.081   9.606   2.318 -0.50 +0.00    +0.035 C 
ATOM     19  C19 UNL     1      16.685   9.257   1.787 -0.55 +0.00    +0.004 C 
ATOM     20  C20 UNL     1      16.565   7.913   1.061 +0.13 +0.00    +0.030 C 
ATOM     21  C21 UNL     1      17.458   7.812  -0.174+13.60 +0.00    +0.267 C 
ATOM     22  C22 UNL     1      20.111   8.988   3.714 +0.68 +0.00    +0.241 C 
ATOM     23  C23 UNL     1      22.071   8.307   5.103+99.99 +0.00    +0.200 C 
ATOM     24  C24 UNL     1      22.245   7.710   6.507+99.99 +0.00    +0.199 C 
ATOM     25  C25 UNL     1      23.055   7.632   4.120+68.34 +0.00    +0.243 C 
ATOM     26  C26 UNL     1      23.884   7.655   1.799 -0.26 +0.00    +0.172 C 
ATOM     27  C27 UNL     1      23.239   7.538   0.424 -0.44 +0.00    +0.042 C 
ATOM     28  C28 UNL     1      24.964   8.757   1.783 -0.34 +0.00    +0.240 C 
ATOM     29  C29 UNL     1      27.138   9.412   0.842 +1.20 +0.00    +0.176 C 
ATOM     30  C30 UNL     1      28.564   8.840   0.872 +0.49 +0.00    +0.036 C 
ATOM     31  C31 UNL     1      28.816   7.713  -0.134 -0.33 +0.00    +0.022 C 
ATOM     32  C32 UNL     1      30.292   7.310  -0.172 -0.17 +0.00    +0.121 C 
ATOM     33  C33 UNL     1      31.260   6.391  -2.146 -0.06 +0.00    +0.121 C 
ATOM     34  C34 UNL     1      26.785  10.073  -0.517+99.99 +0.00    +0.241 C 
ATOM     35  C35 UNL     1      27.388  11.965  -2.053+99.99 +0.00    +0.176 C 
ATOM     36  C36 UNL     1      27.267  11.227  -3.395+99.99 +0.00    +0.035 C 
ATOM     37  C37 UNL     1      28.249  10.084  -3.674+73.21 +0.00    +0.004 C 
ATOM     38  C38 UNL     1      29.736  10.435  -3.782+32.85 +0.00    +0.030 C 
ATOM     39  C39 UNL     1      30.426  10.672  -2.440+99.99 +0.00    +0.267 C 
ATOM     40  C40 UNL     1      26.203  12.920  -1.799+99.99 +0.00    +0.238 C 
ATOM     41  C41 UNL     1       8.506   4.413   5.242 -0.23 +0.00    +0.241 C 
ATOM     42  C42 UNL     1       7.018   4.401   5.647 -0.29 +0.00    +0.180 C 
ATOM     43  C43 UNL     1       6.901   4.027   7.133 -0.43 +0.00    +0.073 C 
ATOM     44  C44 UNL     1       5.582   4.308   7.828 +2.64 -0.00    -0.056 A 
ATOM     45  C45 UNL     1       5.495   4.036   9.205+99.99 +0.00    +0.007 A 
ATOM     46  C46 UNL     1       4.319   4.288   9.915+99.99 +0.00    +0.001 A 
ATOM     47  C47 UNL     1       3.212   4.818   9.260+99.99 +0.00    +0.000 A 
ATOM     48  C48 UNL     1       3.280   5.090   7.896 +0.68 +0.00    +0.001 A 
ATOM     49  C49 UNL     1       4.454   4.833   7.183 -0.35 +0.00    +0.007 A 
ATOM     50  C50 UNL     1       5.795   3.834   3.584 -0.11 +0.00    +0.236 C 
ATOM     51  C51 UNL     1       5.452   2.693   2.616 -0.12 +0.00    +0.225 C 
ATOM     52  C52 UNL     1       5.494   0.559   3.889 -0.10 +0.00    +0.235 C 
ATOM     53  C53 UNL     1       4.617  -0.588   4.389 +1.75 +0.00    +0.225 C 
ATOM     54  C54 UNL     1       2.877   0.596   5.677 +1.03 +0.00    +0.251 C 
ATOM     55  C55 UNL     1       2.389   0.851   7.124 +4.88 +0.00    +0.313 C 
ATOM     56  C56 UNL     1       1.360   1.989   7.205+99.99+99.99    +0.083 C 
ATOM     57  C57 UNL     1      -0.053   1.529   6.921+99.99+99.99    -0.056 A 
ATOM     58  C58 UNL     1      -0.621   1.704   5.654+99.99+99.99    +0.007 A 
ATOM     59  C59 UNL     1      -1.922   1.267   5.394+99.99+99.99    +0.001 A 
ATOM     60  C60 UNL     1      -2.666   0.652   6.400+99.99+99.99    +0.000 A 
ATOM     61  C61 UNL     1      -2.111   0.471   7.663+99.99+99.99    +0.001 A 
ATOM     62  C62 UNL     1      -0.810   0.906   7.924+99.99+99.99    +0.007 A 
ATOM     63  O1  UNL     1      11.743   5.122   7.508 -0.26 -0.00    -0.271 OA
ATOM     64  O2  UNL     1      14.022   2.211   8.260+67.82 -0.00    -0.271 OA
ATOM     65  O3  UNL     1      14.566   5.750   5.630 +0.37 -0.00    -0.271 OA
ATOM     66  O4  UNL     1      18.556   6.301   4.956+99.99 -0.00    -0.271 OA
ATOM     67  O5  UNL     1      20.741   9.902   3.186 -0.17 -0.00    -0.271 OA
ATOM     68  O6  UNL     1      23.501   8.055   7.086+99.99 -0.00    -0.398 OA
ATOM     69  O7  UNL     1      23.984   6.917   4.496+99.99 -0.00    -0.271 OA
ATOM     70  O8  UNL     1      24.783   9.877   2.259 -0.38 -0.00    -0.271 OA
ATOM     71  O9  UNL     1      25.855   9.690  -1.226+99.99 -0.00    -0.271 OA
ATOM     72  O10 UNL     1      26.359  14.110  -1.539+99.99 -0.00    -0.271 OA
ATOM     73  O11 UNL     1       9.056   3.488   4.641 -0.27 -0.00    -0.271 OA
ATOM     74  O12 UNL     1       5.716   5.015   3.253 -0.09 -0.00    -0.272 OA
ATOM     75  O13 UNL     1       6.696   0.642   4.132 +1.17 -0.00    -0.272 OA
ATOM     76  O14 UNL     1       2.376   1.071   4.661 -0.14 -0.00    -0.271 OA
ATOM     77  O15 UNL     1      10.686   7.602   6.893 +0.26 -0.00    -0.393 OA
ATOM     78  N1  UNL     1      11.530   3.426   5.966 -0.19 -0.00    -0.346 N 
ATOM     79  N2  UNL     1      14.233   3.105   6.156+18.61 -0.00    -0.346 N 
ATOM     80  N3  UNL     1      16.570   5.857   6.747+99.99 -0.00    -0.346 N 
ATOM     81  N4  UNL     1      14.378   8.835   9.722 +7.19 -0.00    -0.372 N 
ATOM     82  H4  UNL     1      14.495   9.102  10.699 -0.28 +0.00    +0.161 HD
ATOM     83  N5  UNL     1      12.470  10.067   9.648 +7.79 -0.00    -0.279 NA
ATOM     84  N6  UNL     1      13.030   9.050   7.764 -0.34 -0.00    -0.279 NA
ATOM     85  N7  UNL     1      17.822   8.407   4.462 -0.10 -0.00    -0.346 N 
ATOM     86  N8  UNL     1      17.256   6.526  -0.832+51.49 +0.00    +0.078 N 
ATOM     87  N9  UNL     1      20.685   8.156   4.649+48.10 -0.00    -0.344 N 
ATOM     88  N10 UNL     1      22.875   7.986   2.797 +0.16 -0.00    -0.346 N 
ATOM     89  N11 UNL     1      26.141   8.396   1.153 -0.18 -0.00    -0.346 N 
ATOM     90  N12 UNL     1      30.449   6.263  -1.169 +0.01 -0.00    -0.372 N 
ATOM     91  H12 UNL     1      29.899   5.408  -1.086 +0.06 +0.00    +0.161 HD
ATOM     92  N13 UNL     1      31.398   5.364  -3.015 +0.00 -0.00    -0.279 NA
ATOM     93  N14 UNL     1      32.083   7.397  -2.510 -0.01 -0.00    -0.279 NA
ATOM     94  N15 UNL     1      27.592  11.138  -0.861+99.99 -0.00    -0.346 N 
ATOM     95  N16 UNL     1      31.868  10.465  -2.552 +4.51 +0.00    +0.078 N 
ATOM     96  N17 UNL     1      24.958  12.362  -1.815+99.99 -0.00    -0.368 N 
ATOM     97  N18 UNL     1       9.218   5.511   5.668 -0.09 -0.00    -0.344 N 
ATOM     98  N19 UNL     1       6.328   3.436   4.792 -0.05 -0.00    -0.346 N 
ATOM     99  N20 UNL     1       4.803   1.543   3.222 -0.14 -0.00    -0.351 N 
ATOM    100  N21 UNL     1       3.973  -0.244   5.635+55.30 -0.00    -0.350 N 
ATOM    101  N22 UNL     1       3.589   1.132   7.961+20.50 +0.00    +0.092 N 
ATOM    102  H73 UNL     1      24.186   7.627   6.531 +1.80 +0.00    +0.209 HD
ATOM    103  H74 UNL     1      11.020   6.962   7.563 +0.23 +0.00    +0.210 HD
ATOM    104  H75 UNL     1      10.812   3.134   5.297 +0.07 +0.00    +0.163 HD
ATOM    105  H76 UNL     1      13.674   3.565   5.445 -0.01 +0.00    +0.163 HD
ATOM    106  H77 UNL     1      17.395   5.302   6.949+35.94 +0.00    +0.163 HD
ATOM    107  H78 UNL     1      12.224  10.860   9.069 -0.05 +0.00    +0.126 HD
ATOM    108  H79 UNL     1      12.818  10.368  10.551 +0.08 +0.00    +0.126 HD
ATOM    109  H80 UNL     1      12.021   8.962   7.639 +0.09 +0.00    +0.126 HD
ATOM    110  H81 UNL     1      13.478   8.246   7.344 +0.09 +0.00    +0.126 HD
ATOM    111  H82 UNL     1      17.377   9.234   4.842 +0.11 +0.00    +0.163 HD
ATOM    112  H83 UNL     1      16.286   6.441  -1.134 +2.29 +0.00    +0.312 HD
ATOM    113  H84 UNL     1      17.820   6.487  -1.682 +0.95 +0.00    +0.312 HD
ATOM    114  H85 UNL     1      20.248   7.240   4.762 +2.53 +0.00    +0.163 HD
ATOM    115  H86 UNL     1      22.397   8.879   2.664 +0.12 +0.00    +0.163 HD
ATOM    116  H87 UNL     1      26.088   7.610   0.515 +0.12 +0.00    +0.163 HD
ATOM    117  H88 UNL     1      30.911   4.551  -2.651 +0.03 +0.00    +0.126 HD
ATOM    118  H89 UNL     1      32.372   5.143  -3.181 +0.02 +0.00    +0.126 HD
ATOM    119  H90 UNL     1      31.857   8.323  -2.152 +0.04 +0.00    +0.126 HD
ATOM    120  H91 UNL     1      32.179   7.468  -3.517 +0.03 +0.00    +0.126 HD
ATOM    121  H92 UNL     1      28.064  11.602  -0.094 +0.98 +0.00    +0.163 HD
ATOM    122  H93 UNL     1      32.323  10.797  -1.699 +0.10 +0.00    +0.312 HD
ATOM    123  H94 UNL     1      32.236  11.059  -3.298 +0.36 +0.00    +0.312 HD
ATOM    124  H95 UNL     1      24.866  11.354  -1.688+99.99 +0.00    +0.159 HD
ATOM    125  H96 UNL     1      24.195  12.939  -1.488 +0.70 +0.00    +0.159 HD
ATOM    126  H97 UNL     1       8.796   6.201   6.283 +0.11 +0.00    +0.163 HD
ATOM    127  H98 UNL     1       6.723   2.492   4.779 -0.46 +0.00    +0.163 HD
ATOM    128  H99 UNL     1       3.794   1.581   3.381 +0.06 +0.00    +0.163 HD
ATOM    129  HA0 UNL     1       4.502  -0.282   6.506+99.99 +0.00    +0.163 HD
ATOM    130  HA1 UNL     1       3.283   1.273   8.926 +0.11 +0.00    +0.313 HD
ATOM    131  HA2 UNL     1       3.962   2.046   7.686 +0.80 +0.00    +0.313 HD
ENDROOT
TORSDOF 52
TER
