USER    Run = 1
USER    DPF = ligand_507_receptor.dpf
USER  
USER    Estimated Free Energy of Binding    =  +1.37e+007 kcal/mol  [=(1)+(2)+(3)-(4)]
USER    
USER    (1) Final Intermolecular Energy     =  +1.37e+007 kcal/mol
USER        vdW + Hbond + desolv Energy     =  +7.11e+006 kcal/mol
USER        Electrostatic Energy            =  +6.63e+006 kcal/mol
USER    (2) Final Total Internal Energy     =   +0.00 kcal/mol
USER    (3) Torsional Free Energy           =   +1.19 kcal/mol
USER    (4) Unbound System's Energy  [=(2)] =   +0.00 kcal/mol
USER    
USER    
USER    NEWDPF move ligand_507.pdbqt
USER    NEWDPF about 0.000000 0.000000 0.000000
USER    NEWDPF tran0 14.959085 7.586140 2.881389
USER    NEWDPF quaternion0 -0.927897 -0.149568 0.185529 -0.286734
USER    NEWDPF axisangle0 -0.968566 -0.156124 0.193660 -146.675004
USER    NEWDPF quat0 -0.968566 -0.156124 0.193660 -146.675004
USER  keepresnum = 1 
USER  
REMARK  0 active torsions:
REMARK  status: ('A' for Active; 'I' for Inactive)
REMARK       I    between atoms: C2_2  and  C3_3 
REMARK       I    between atoms: C2_2  and  N1_93 
REMARK       I    between atoms: C5_5  and  C6_6 
REMARK       I    between atoms: C5_5  and  N1_93 
REMARK       I    between atoms: C6_6  and  C7_7 
REMARK       I    between atoms: C6_6  and  N2_94 
REMARK       I    between atoms: C7_7  and  C8_8 
REMARK       I    between atoms: C8_8  and  O4_71 
REMARK       I    between atoms: C9_9  and  C10_10 
REMARK       I    between atoms: C9_9  and  N2_94 
REMARK       I    between atoms: C10_10  and  N3_95 
REMARK       I    between atoms: C12_12  and  C13_13 
REMARK       I    between atoms: C12_12  and  N3_95 
REMARK       I    between atoms: C13_13  and  C14_14 
REMARK       I    between atoms: C13_13  and  N7_100 
REMARK       I    between atoms: C14_14  and  C15_15 
REMARK       I    between atoms: C15_15  and  C16_16 
REMARK       I    between atoms: C16_16  and  N4_96 
REMARK       I    between atoms: C17_17  and  N4_96 
REMARK       I    between atoms: C17_17  and  N5_97 
REMARK       I    between atoms: C17_17  and  N6_99 
REMARK       I    between atoms: C18_18  and  C19_19 
REMARK       I    between atoms: C18_18  and  N7_100 
REMARK       I    between atoms: C19_19  and  N8_101 
REMARK       I    between atoms: C21_21  and  C22_22 
REMARK       I    between atoms: C21_21  and  N8_101 
REMARK       I    between atoms: C22_22  and  C23_23 
REMARK       I    between atoms: C22_22  and  N9_102 
REMARK       I    between atoms: C23_23  and  C24_24 
REMARK       I    between atoms: C24_24  and  O10_77 
REMARK       I    between atoms: C25_25  and  C26_26 
REMARK       I    between atoms: C25_25  and  N9_102 
REMARK       I    between atoms: C26_26  and  N10_103 
REMARK       I    between atoms: C28_28  and  C29_29 
REMARK       I    between atoms: C28_28  and  N10_103 
REMARK       I    between atoms: C29_29  and  C30_30 
REMARK       I    between atoms: C29_29  and  N14_108 
REMARK       I    between atoms: C30_30  and  C31_31 
REMARK       I    between atoms: C31_31  and  C32_32 
REMARK       I    between atoms: C32_32  and  N11_104 
REMARK       I    between atoms: C33_33  and  N11_104 
REMARK       I    between atoms: C33_33  and  N12_105 
REMARK       I    between atoms: C33_33  and  N13_107 
REMARK       I    between atoms: C34_34  and  C35_35 
REMARK       I    between atoms: C34_34  and  N14_108 
REMARK       I    between atoms: C35_35  and  N15_109 
REMARK       I    between atoms: C37_37  and  C38_38 
REMARK       I    between atoms: C37_37  and  N15_109 
REMARK       I    between atoms: C38_38  and  C39_39 
REMARK       I    between atoms: C38_38  and  N16_110 
REMARK       I    between atoms: C39_39  and  C40_40 
REMARK       I    between atoms: C40_40  and  O16_83 
REMARK       I    between atoms: C41_41  and  C42_42 
REMARK       I    between atoms: C41_41  and  N16_110 
REMARK       I    between atoms: C42_42  and  N17_111 
REMARK       I    between atoms: C44_44  and  C45_45 
REMARK       I    between atoms: C44_44  and  N17_111 
REMARK       I    between atoms: C45_45  and  C46_46 
REMARK       I    between atoms: C45_45  and  N21_116 
REMARK       I    between atoms: C46_46  and  C47_47 
REMARK       I    between atoms: C47_47  and  C48_48 
REMARK       I    between atoms: C48_48  and  N18_112 
REMARK       I    between atoms: C49_49  and  N18_112 
REMARK       I    between atoms: C49_49  and  N19_113 
REMARK       I    between atoms: C49_49  and  N20_115 
REMARK       I    between atoms: C50_50  and  C51_51 
REMARK       I    between atoms: C50_50  and  N21_116 
REMARK       I    between atoms: C51_51  and  N22_117 
REMARK       I    between atoms: C53_53  and  C54_54 
REMARK       I    between atoms: C53_53  and  N22_117 
REMARK       I    between atoms: C54_54  and  C55_55 
REMARK       I    between atoms: C54_54  and  N23_118 
REMARK       I    between atoms: C55_55  and  C56_56 
REMARK       I    between atoms: C56_56  and  O22_89 
REMARK       I    between atoms: C57_57  and  C58_58 
REMARK       I    between atoms: C57_57  and  N23_118 
REMARK       I    between atoms: C58_58  and  N24_119 
REMARK       I    between atoms: C60_60  and  C61_61 
REMARK       I    between atoms: C60_60  and  N24_119 
REMARK       I    between atoms: C61_61  and  C62_62 
REMARK       I    between atoms: C61_61  and  N28_124 
REMARK       I    between atoms: C62_62  and  C63_63 
REMARK       I    between atoms: C63_63  and  C64_64 
REMARK       I    between atoms: C64_64  and  N25_120 
REMARK       I    between atoms: C65_65  and  N25_120 
REMARK       I    between atoms: C65_65  and  N26_121 
REMARK       I    between atoms: C65_65  and  N27_123 
REMARK       I    between atoms: C66_66  and  N28_124 
USER                              x       y       z     vdW  Elec       q    Type
USER                           _______ _______ _______ _____ _____    ______ ____
ROOT
ATOM      1  C1  UNL     1      35.498  10.242  -5.526+99.99+99.99    +0.040 C 
ATOM      2  C2  UNL     1      34.361  11.106  -5.004+99.99+99.99    +0.149 C 
ATOM      3  C3  UNL     1      34.930  12.423  -4.442+99.99+99.99    +0.145 C 
ATOM      4  C4  UNL     1      35.002  13.584  -5.398+99.99+99.99    +0.093 C 
ATOM      5  C5  UNL     1      32.355  10.839  -3.622 +8.87 +0.00    +0.241 C 
ATOM      6  C6  UNL     1      31.670  10.168  -2.398 +3.93 +0.00    +0.186 C 
ATOM      7  C7  UNL     1      32.567   9.987  -1.173+99.99+99.99    +0.144 C 
ATOM      8  C8  UNL     1      33.428  11.193  -0.948+99.99+99.99    +0.141 C 
ATOM      9  C9  UNL     1      29.546  10.678  -1.184+99.99 +0.00    +0.240 C 
ATOM     10  C10 UNL     1      28.424  11.715  -0.949+99.99 +0.00    +0.172 C 
ATOM     11  C11 UNL     1      28.933  13.155  -1.009+99.99 +0.00    +0.042 C 
ATOM     12  C12 UNL     1      26.761  11.972   0.902+82.80 +0.00    +0.241 C 
ATOM     13  C13 UNL     1      26.471  11.577   2.370+99.99 +0.00    +0.176 C 
ATOM     14  C14 UNL     1      27.649  11.955   3.284+99.99 +0.00    +0.036 C 
ATOM     15  C15 UNL     1      27.881  13.472   3.391+99.99 +0.00    +0.017 C 
ATOM     16  C16 UNL     1      29.295  13.800   3.875+99.99 +0.00    +0.095 C 
ATOM     17  C17 UNL     1      31.577  13.750   3.012 -0.23 +0.00    +0.122 C 
ATOM     18  C18 UNL     1      24.484  11.830   3.847 +5.45 +0.00    +0.240 C 
ATOM     19  C19 UNL     1      23.107  12.521   3.954+16.76 +0.00    +0.172 C 
ATOM     20  C20 UNL     1      23.255  13.815   4.743+62.96 +0.00    +0.042 C 
ATOM     21  C21 UNL     1      21.778  11.886   1.959+99.99 +0.00    +0.241 C 
ATOM     22  C22 UNL     1      21.435  12.257   0.502+10.81 +0.00    +0.186 C 
ATOM     23  C23 UNL     1      22.570  11.843  -0.431 +1.55 +0.00    +0.144 C 
ATOM     24  C24 UNL     1      23.064  10.451  -0.153 +0.11 +0.00    +0.141 C 
ATOM     25  C25 UNL     1      18.973  12.210   0.439 -0.42 +0.00    +0.240 C 
ATOM     26  C26 UNL     1      17.731  11.323   0.220 -0.02 +0.00    +0.172 C 
ATOM     27  C27 UNL     1      17.576  10.963  -1.253+34.04 +0.00    +0.042 C 
ATOM     28  C28 UNL     1      15.398  11.428   1.052 -0.16 +0.00    +0.241 C 
ATOM     29  C29 UNL     1      14.307  12.358   1.612+65.59 +0.00    +0.176 C 
ATOM     30  C30 UNL     1      13.849  13.421   0.598+99.99 +0.00    +0.036 C 
ATOM     31  C31 UNL     1      13.495  12.928  -0.814+36.55 +0.00    +0.022 C 
ATOM     32  C32 UNL     1      12.467  11.804  -0.847+19.58 +0.00    +0.122 C 
ATOM     33  C33 UNL     1      11.143  10.566  -2.456 +7.11 +0.00    +0.143 C 
ATOM     34  C34 UNL     1      12.385  11.992   3.144+99.99 +0.00    +0.240 C 
ATOM     35  C35 UNL     1      11.348  10.958   3.627+97.76 +0.00    +0.172 C 
ATOM     36  C36 UNL     1      12.032  10.004   4.601+99.99 +0.00    +0.042 C 
ATOM     37  C37 UNL     1       9.728  10.779   1.781+99.99 +0.00    +0.241 C 
ATOM     38  C38 UNL     1       8.851   9.759   1.025+99.99 +0.00    +0.186 C 
ATOM     39  C39 UNL     1       8.057  10.454  -0.077+99.99 +0.00    +0.144 C 
ATOM     40  C40 UNL     1       7.526   9.451  -1.059+99.99 +0.00    +0.141 C 
ATOM     41  C41 UNL     1       8.353   8.139   2.854 -0.06 +0.00    +0.240 C 
ATOM     42  C42 UNL     1       7.276   7.646   3.837+15.36 +0.00    +0.172 C 
ATOM     43  C43 UNL     1       6.119   6.991   3.086 +0.69 +0.00    +0.042 C 
ATOM     44  C44 UNL     1       7.337   6.475   6.026+15.66 +0.00    +0.241 C 
ATOM     45  C45 UNL     1       8.003   5.299   6.778 -0.29 +0.00    +0.176 C 
ATOM     46  C46 UNL     1       7.574   5.276   8.252 +0.26 +0.00    +0.036 C 
ATOM     47  C47 UNL     1       8.055   4.061   9.056 +3.63 +0.00    +0.022 C 
ATOM     48  C48 UNL     1       9.562   3.818   8.977 +2.17 +0.00    +0.122 C 
ATOM     49  C49 UNL     1       9.752   1.494   9.757+99.99 +0.00    +0.143 C 
ATOM     50  C50 UNL     1       8.294   3.615   4.979 -0.23 +0.00    +0.240 C 
ATOM     51  C51 UNL     1       7.803   2.279   4.382 +3.23 +0.00    +0.172 C 
ATOM     52  C52 UNL     1       8.708   1.154   4.858+99.99 +0.00    +0.042 C 
ATOM     53  C53 UNL     1       5.355   2.485   4.045 -0.16 +0.00    +0.241 C 
ATOM     54  C54 UNL     1       3.999   2.484   4.791 -0.22 +0.00    +0.186 C 
ATOM     55  C55 UNL     1       2.844   2.241   3.819 -0.11 +0.00    +0.144 C 
ATOM     56  C56 UNL     1       2.967   0.977   3.016 -0.18 +0.00    +0.141 C 
ATOM     57  C57 UNL     1       4.414   1.938   7.192+99.99 +0.00    +0.240 C 
ATOM     58  C58 UNL     1       4.229   0.874   8.290+99.99 +0.00    +0.172 C 
ATOM     59  C59 UNL     1       5.459  -0.028   8.304+99.99 +0.00    +0.042 C 
ATOM     60  C60 UNL     1       2.440  -0.700   8.998+99.99 +0.00    +0.241 C 
ATOM     61  C61 UNL     1       1.038  -1.267   8.659+99.99+99.99    +0.176 C 
ATOM     62  C62 UNL     1      -0.065  -0.251   9.014+99.99+99.99    +0.036 C 
ATOM     63  C63 UNL     1      -0.978  -0.721  10.155+99.99+99.99    +0.022 C 
ATOM     64  C64 UNL     1      -1.742  -2.022   9.894+99.99+99.99    +0.122 C 
ATOM     65  C65 UNL     1      -2.502  -2.563   7.598+99.99+99.99    +0.143 C 
ATOM     66  C66 UNL     1       0.855  -1.063   6.161+99.99+99.99    +0.214 C 
ATOM     67  C67 UNL     1       0.371  -1.797   4.940+99.99+99.99    +0.117 C 
ATOM     68  O1  UNL     1      35.336  12.527  -3.279+99.99+99.99    -0.296 OA
ATOM     69  O2  UNL     1      31.768  11.691  -4.294+99.99 -0.00    -0.271 OA
ATOM     70  O3  UNL     1      33.060  12.278  -0.533+99.99+99.99    -0.650 OA
ATOM     71  O4  UNL     1      34.687  10.961  -1.374+99.99+99.99    -0.776 OA
ATOM     72  O5  UNL     1      29.581   9.611  -0.566 +1.23 -0.00    -0.271 OA
ATOM     73  O6  UNL     1      26.045  12.756   0.277 +7.16 -0.00    -0.271 OA
ATOM     74  O7  UNL     1      24.939  11.119   4.738+15.99 -0.00    -0.271 OA
ATOM     75  O8  UNL     1      21.434  10.815   2.455 +0.09 -0.00    -0.271 OA
ATOM     76  O9  UNL     1      24.170  10.150   0.264 +3.64 -0.00    -0.650 OA
ATOM     77  O10 UNL     1      22.143   9.503  -0.416 +0.18 -0.00    -0.776 OA
ATOM     78  O11 UNL     1      18.890  13.370   0.843 -0.52 -0.00    -0.271 OA
ATOM     79  O12 UNL     1      15.226  10.219   0.904 +1.74 -0.00    -0.271 OA
ATOM     80  O13 UNL     1      12.584  13.050   3.738+91.97 -0.00    -0.271 OA
ATOM     81  O14 UNL     1       9.468  11.980   1.822+99.99 -0.00    -0.271 OA
ATOM     82  O15 UNL     1       8.046   9.094  -2.104+88.83 -0.00    -0.650 OA
ATOM     83  O16 UNL     1       6.341   8.932  -0.675 +1.63 -0.00    -0.776 OA
ATOM     84  O17 UNL     1       9.499   7.691   2.819 -0.30 -0.00    -0.271 OA
ATOM     85  O18 UNL     1       6.407   7.138   6.478+13.04 -0.00    -0.271 OA
ATOM     86  O19 UNL     1       9.280   4.206   4.537 -0.20 -0.00    -0.271 OA
ATOM     87  O20 UNL     1       5.482   2.985   2.930 -0.09 -0.00    -0.271 OA
ATOM     88  O21 UNL     1       2.462   0.780   1.922 +0.01 -0.00    -0.650 OA
ATOM     89  O22 UNL     1       3.627  -0.021   3.634 -0.03 -0.00    -0.776 OA
ATOM     90  O23 UNL     1       5.096   2.951   7.342+34.34 -0.00    -0.271 OA
ATOM     91  O24 UNL     1       2.940  -0.860  10.112 +3.58 -0.00    -0.271 OA
ATOM     92  O25 UNL     1       1.224   0.108   6.111+99.99+99.99    -0.274 OA
ATOM     93  N1  UNL     1      33.621  10.406  -3.953+99.99+99.99    -0.348 N 
ATOM     94  N2  UNL     1      30.496  11.001  -2.115+99.99 -0.00    -0.346 N 
ATOM     95  N3  UNL     1      27.899  11.413   0.379+99.99 -0.00    -0.346 N 
ATOM     96  N4  UNL     1      30.247  13.630   2.781 +1.62 -0.00    -0.270 NA
ATOM     97  N5  UNL     1      32.121  13.755   4.172 -0.15 -0.00    -0.381 N 
ATOM     98  H5  UNL     1      31.624  13.643   5.055 +0.06 +0.00    +0.158 HD
ATOM     99  N6  UNL     1      32.274  13.892   1.868 +0.30 -0.00    -0.279 NA
ATOM    100  N7  UNL     1      25.220  12.219   2.750 +3.18 -0.00    -0.346 N 
ATOM    101  N8  UNL     1      22.568  12.803   2.618+99.99 -0.00    -0.346 N 
ATOM    102  N9  UNL     1      20.177  11.610   0.138 -0.33 -0.00    -0.346 N 
ATOM    103  N10 UNL     1      16.570  12.059   0.707 -0.16 -0.00    -0.346 N 
ATOM    104  N11 UNL     1      11.968  11.606  -2.202 +1.04 -0.00    -0.367 N 
ATOM    105  N12 UNL     1      10.749   9.713  -1.585+99.99 -0.00    -0.376 N 
ATOM    106  H12 UNL     1      11.014   9.701  -0.600+99.99 +0.00    +0.158 HD
ATOM    107  N13 UNL     1      10.746  10.543  -3.743 -0.21 -0.00    -0.274 NA
ATOM    108  N14 UNL     1      13.194  11.565   2.115+10.34 -0.00    -0.346 N 
ATOM    109  N15 UNL     1      10.748  10.206   2.525+99.99 -0.00    -0.346 N 
ATOM    110  N16 UNL     1       7.944   9.155   2.015+53.48 -0.00    -0.346 N 
ATOM    111  N17 UNL     1       7.869   6.709   4.777 +1.45 -0.00    -0.346 N 
ATOM    112  N18 UNL     1       9.973   2.815   9.947+99.99 -0.00    -0.367 N 
ATOM    113  N19 UNL     1       9.285   0.959   8.691 +5.49 -0.00    -0.376 N 
ATOM    114  H19 UNL     1       9.030   1.462   7.841 +0.65 +0.00    +0.158 HD
ATOM    115  N20 UNL     1      10.106   0.782  10.846+99.99+99.99    -0.274 NA
ATOM    116  N21 UNL     1       7.633   4.057   6.106 -0.18 -0.00    -0.346 N 
ATOM    117  N22 UNL     1       6.423   2.007   4.771+37.26 -0.00    -0.346 N 
ATOM    118  N23 UNL     1       3.938   1.588   5.948 +0.06 -0.00    -0.346 N 
ATOM    119  N24 UNL     1       3.010   0.108   8.047+99.99 -0.00    -0.346 N 
ATOM    120  N25 UNL     1      -2.639  -1.900   8.764+99.99+99.99    -0.367 N 
ATOM    121  N26 UNL     1      -1.522  -3.332   7.286+99.99+99.99    -0.376 N 
ATOM    122  H26 UNL     1      -0.706  -3.523   7.868+99.99+99.99    +0.158 HD
ATOM    123  N27 UNL     1      -3.538  -2.330   6.771+99.99+99.99    -0.274 NA
ATOM    124  N28 UNL     1       0.857  -1.816   7.309+99.99+99.99    -0.348 N 
ATOM    125  H79 UNL     1      35.095  11.846  -1.557+99.99+99.99    +0.167 HD
ATOM    126  H80 UNL     1      22.581   8.667  -0.143 +0.12 +0.00    +0.167 HD
ATOM    127  H81 UNL     1       6.121   8.282  -1.375 -0.11 +0.00    +0.167 HD
ATOM    128  H82 UNL     1       3.616  -0.741   2.966 +0.06 +0.00    +0.167 HD
ATOM    129  H83 UNL     1      34.197  10.042  -3.198+99.99+99.99    +0.163 HD
ATOM    130  H84 UNL     1      30.330  11.765  -2.767+99.99 +0.00    +0.163 HD
ATOM    131  H85 UNL     1      28.293  10.592   0.835+27.84 +0.00    +0.163 HD
ATOM    132  H86 UNL     1      29.973  14.136   1.947 +0.22 +0.00    +0.130 HD
ATOM    133  H87 UNL     1      33.128  13.888   4.076+99.99+99.99    +0.158 HD
ATOM    134  H88 UNL     1      33.276  13.788   1.962+99.99+99.99    +0.126 HD
ATOM    135  H89 UNL     1      31.962  13.291   1.107 -0.36 +0.00    +0.126 HD
ATOM    136  H90 UNL     1      24.701  12.613   1.974 +4.19 +0.00    +0.163 HD
ATOM    137  H91 UNL     1      22.778  13.696   2.188+99.99 +0.00    +0.163 HD
ATOM    138  H92 UNL     1      20.196  10.592   0.156 +0.13 +0.00    +0.163 HD
ATOM    139  H93 UNL     1      16.740  13.014   1.011 +0.08 +0.00    +0.163 HD
ATOM    140  H94 UNL     1      12.681  11.706  -2.915 +0.13 +0.00    +0.162 HD
ATOM    141  H95 UNL     1      10.120   9.043  -2.046 -0.18 +0.00    +0.158 HD
ATOM    142  H96 UNL     1       9.915   9.980  -3.894 +0.07 +0.00    +0.127 HD
ATOM    143  H97 UNL     1      10.612  11.477  -4.112 +0.15 +0.00    +0.127 HD
ATOM    144  H98 UNL     1      13.057  10.626   1.748 +8.74 +0.00    +0.163 HD
ATOM    145  H99 UNL     1      10.670   9.192   2.639 +1.36 +0.00    +0.163 HD
ATOM    146  HA0 UNL     1       7.125   9.688   2.282 +0.61 +0.00    +0.163 HD
ATOM    147  HA1 UNL     1       8.605   6.088   4.430 +0.09 +0.00    +0.163 HD
ATOM    148  HA2 UNL     1       9.830   3.109  10.905+99.99+99.99    +0.162 HD
ATOM    149  HA3 UNL     1       9.208  -0.050   8.825 +0.17 +0.00    +0.158 HD
ATOM    150  HA4 UNL     1      10.936   1.154  11.293+99.99+99.99    +0.127 HD
ATOM    151  HA5 UNL     1      10.207  -0.211  10.684 +0.32 +0.00    +0.127 HD
ATOM    152  HA6 UNL     1       6.708   3.686   6.311 -0.10 +0.00    +0.163 HD
ATOM    153  HA7 UNL     1       6.264   1.777   5.743+99.99 +0.00    +0.163 HD
ATOM    154  HA8 UNL     1       3.660   0.623   5.777 +0.08 +0.00    +0.163 HD
ATOM    155  HA9 UNL     1       2.373   0.433   7.315 +0.42 +0.00    +0.163 HD
ATOM    156  HB0 UNL     1      -3.205  -1.062   8.746+99.99+99.99    +0.162 HD
ATOM    157  HB1 UNL     1      -1.698  -3.721   6.356+99.99+99.99    +0.158 HD
ATOM    158  HB2 UNL     1      -4.421  -2.227   7.258+99.99+99.99    +0.127 HD
ATOM    159  HB3 UNL     1      -3.635  -2.975   5.998+99.99+99.99    +0.127 HD
ATOM    160  HB4 UNL     1       0.183  -2.590   7.293+99.99+99.99    +0.163 HD
ENDROOT
TORSDOF 60
TER
