USER    Run = 1
USER    DPF = ligand_243_receptor.dpf
USER  
USER    Estimated Free Energy of Binding    =   -3.30 kcal/mol  [=(1)+(2)+(3)-(4)]
USER    Estimated Inhibition Constant, Ki   =    3.83 mM (millimolar)  [Temperature = 298.15 K]
USER    
USER    (1) Final Intermolecular Energy     =   -4.49 kcal/mol
USER        vdW + Hbond + desolv Energy     =   -4.49 kcal/mol
USER        Electrostatic Energy            =   +0.00 kcal/mol
USER    (2) Final Total Internal Energy     =   -3.65 kcal/mol
USER    (3) Torsional Free Energy           =   +1.19 kcal/mol
USER    (4) Unbound System's Energy  [=(2)] =   -3.65 kcal/mol
USER    
USER    
USER    NEWDPF move ligand_243.pdbqt
USER    NEWDPF about 0.000000 0.000000 0.000000
USER    NEWDPF tran0 16.855406 7.394528 2.483520
USER    NEWDPF quaternion0 -0.050332 0.991426 0.110388 -0.048543
USER    NEWDPF axisangle0 -0.050392 0.992596 0.110518 -174.435140
USER    NEWDPF quat0 -0.050392 0.992596 0.110518 -174.435140
USER    NEWDPF dihe0 173.47 11.03 40.74 -69.61 180.00 -136.43 137.06 10.16 -116.49 178.21 54.70 171.05 110.51 -127.58 
USER  keepresnum = 1 
USER  
REMARK  14 active torsions:
REMARK  status: ('A' for Active; 'I' for Inactive)
REMARK    1  A    between atoms: C2_2  and  C3_3 
REMARK    2  A    between atoms: C3_3  and  C4_4 
REMARK    3  A    between atoms: C3_3  and  C8_8 
REMARK    4  A    between atoms: C4_4  and  C5_5 
REMARK    5  A    between atoms: C5_5  and  N1_44 
REMARK       I    between atoms: C8_8  and  N2_45 
REMARK    6  A    between atoms: C13_13  and  C14_14 
REMARK       I    between atoms: C13_13  and  N3_46 
REMARK    7  A    between atoms: C17_17  and  N4_47 
REMARK    8  A    between atoms: C20_20  and  C21_21 
REMARK       I    between atoms: C20_20  and  N4_47 
REMARK    9  A    between atoms: C23_23  and  C25_25 
REMARK   10  A    between atoms: C28_28  and  C31_31 
REMARK   11  A    between atoms: C35_35  and  C36_36 
REMARK   12  A    between atoms: C35_35  and  N7_51 
REMARK       I    between atoms: C36_36  and  N9_54 
REMARK   13  A    between atoms: C37_37  and  N9_54 
REMARK   14  A    between atoms: C42_42  and  O5_59 
USER                              x       y       z     vdW  Elec       q    Type
USER                           _______ _______ _______ _____ _____    ______ ____
ROOT
ATOM      1  C21 UNL     1      16.816   9.085   1.492 -0.36 +0.00    +0.177 A 
ATOM      2  C22 UNL     1      18.223  10.371   0.509 -0.39 +0.00    +0.120 A 
ATOM      3  C23 UNL     1      18.995   9.542   1.301 +0.17 +0.00    +0.064 A 
ATOM      4  C24 UNL     1      18.333   7.766   2.983 +0.04 +0.00    +0.158 C 
ATOM      5  N5  UNL     1      16.889  10.088   0.628 -0.21 -0.00    -0.345 N 
ATOM      6  H5  UNL     1      16.114  10.550   0.153 +0.09 +0.00    +0.167 HD
ATOM      7  N6  UNL     1      18.071   8.750   1.957 -0.09 -0.00    -0.331 N 
ENDROOT
BRANCH   1   8
ATOM      8  C20 UNL     1      15.543   8.469   1.851 +0.18 +0.00    +0.290 C 
ATOM      9  N4  UNL     1      15.382   8.418   3.225 -0.26 -0.00    -0.320 N 
ATOM     10  H54 UNL     1      16.170   8.827   3.729 +0.12 +0.00    +0.169 HD
ATOM     11  O3  UNL     1      14.730   8.062   1.028 +1.83 -0.00    -0.264 OA
BRANCH   9  12
ATOM     12  C17 UNL     1      14.305   7.910   3.969 -0.47 +0.00    +0.036 A 
ATOM     13  C16 UNL     1      14.313   7.775   5.360 -0.24 +0.00    +0.054 A 
ATOM     14  C15 UNL     1      13.200   7.253   6.031 -0.40 +0.00    +0.051 A 
ATOM     15  C14 UNL     1      12.070   6.867   5.310 -0.33 +0.00    +0.054 A 
ATOM     16 CL1  UNL     1      13.266   7.162   7.753 -0.70 -0.00    -0.083 Cl
ATOM     17  C19 UNL     1      12.051   7.002   3.917 -0.38 +0.00    +0.021 A 
ATOM     18  C18 UNL     1      13.165   7.523   3.254 -0.39 +0.00    +0.030 A 
BRANCH  15  19
ATOM     19  C13 UNL     1      10.881   6.278   5.965 -0.20 +0.00    +0.255 C 
ATOM     20  N3  UNL     1      11.069   5.062   6.631 -0.12 -0.00    -0.345 N 
ATOM     21  C10 UNL     1       9.978   4.554   7.469 -0.40 +0.00    +0.146 C 
ATOM     22  C11 UNL     1      11.820   3.984   5.964 -0.42 +0.00    +0.146 C 
ATOM     23  C9  UNL     1       9.282   3.327   6.840 -0.40 +0.00    +0.145 C 
ATOM     24  N2  UNL     1       9.474   3.287   5.386 -0.22 -0.00    -0.349 N 
ATOM     25  C8  UNL     1       8.511   3.339   4.398 -0.23 +0.00    +0.224 C 
ATOM     26  C12 UNL     1      10.894   3.243   4.969 -0.40 +0.00    +0.145 C 
ATOM     27  O1  UNL     1       8.821   3.287   3.204 -0.21 -0.00    -0.273 OA
ATOM     28  O2  UNL     1       9.820   6.903   5.951 +0.16 -0.00    -0.267 OA
BRANCH  25  29
ATOM     29  C3  UNL     1       7.031   3.575   4.726 -0.19 +0.00    +0.079 C 
BRANCH  29  30
ATOM     30  C2  UNL     1       6.715   5.022   5.135 -0.32 +0.00    +0.010 C 
ATOM     31  C1  UNL     1       7.600   6.027   4.405 -0.17 +0.00    +0.006 C 
ENDBRANCH  29  30
BRANCH  29  32
ATOM     32  C4  UNL     1       6.125   3.031   3.606 -0.25 +0.00    +0.041 C 
BRANCH  32  33
ATOM     33  C5  UNL     1       5.396   4.156   2.861 -0.08 +0.00    +0.234 C 
BRANCH  33  34
ATOM     34  N1  UNL     1       5.493   3.985   1.363 -0.09 -0.00    -0.079 N 
ATOM     35  C6  UNL     1       6.469   2.956   0.890 -0.05 +0.00    +0.269 C 
ATOM     36  C7  UNL     1       5.729   5.303   0.678 -0.15 +0.00    +0.269 C 
ATOM     37  H53 UNL     1       4.542   3.681   1.049 +0.07 +0.00    +0.278 HD
ENDBRANCH  33  34
ENDBRANCH  32  33
ENDBRANCH  29  32
ENDBRANCH  25  29
ENDBRANCH  15  19
ENDBRANCH   9  12
ENDBRANCH   1   8
BRANCH   3  38
ATOM     38  C25 UNL     1      20.449   9.485   1.442 +0.71 +0.00    +0.034 A 
ATOM     39  C26 UNL     1      21.303  10.100   0.520 -0.33 +0.00    +0.168 A 
ATOM     40  C27 UNL     1      22.686  10.052   0.677 -0.14 +0.00    +0.167 A 
ATOM     41  F2  UNL     1      20.791  10.748  -0.541 +0.15 -0.00    -0.202 F 
ATOM     42  C28 UNL     1      23.259   9.392   1.767 -0.42 +0.00    +0.019 A 
ATOM     43  F1  UNL     1      23.459  10.640  -0.251 +0.54 -0.00    -0.202 F 
ATOM     44  C29 UNL     1      22.409   8.781   2.700 -0.40 +0.00    +0.016 A 
ATOM     45  C30 UNL     1      21.018   8.830   2.542 +0.52 +0.00    +0.018 A 
BRANCH  42  46
ATOM     46  C31 UNL     1      24.699   9.330   1.938 -0.48 +0.00    +0.018 A 
ATOM     47  C32 UNL     1      25.514   8.458   1.247 -0.34 +0.00    +0.125 A 
ATOM     48  N7  UNL     1      26.788   8.715   1.661 -0.26 -0.00    -0.294 N 
ATOM     49  N8  UNL     1      26.863   9.690   2.589 +0.79 -0.00    -0.302 N 
ATOM     50  C33 UNL     1      25.589  10.071   2.767 -0.44 +0.00    +0.034 A 
ATOM     51  H8  UNL     1      27.697  10.054   3.051 +0.41 +0.00    +0.186 HD
ATOM     52  C34 UNL     1      25.277  11.141   3.747 +3.51 +0.00    +0.070 C 
BRANCH  48  53
ATOM     53  C35 UNL     1      28.002   8.069   1.202 -0.29 +0.00    +0.250 C 
BRANCH  53  54
ATOM     54  C36 UNL     1      27.692   6.783   0.474 -0.22 +0.00    +0.237 C 
ATOM     55  N9  UNL     1      27.121   6.951  -0.768 -0.14 -0.00    -0.352 N 
ATOM     56  H55 UNL     1      26.756   7.878  -0.986 +0.09 +0.00    +0.163 HD
ATOM     57  O4  UNL     1      27.967   5.685   0.953 +0.03 -0.00    -0.272 OA
BRANCH  55  58
ATOM     58  C37 UNL     1      26.710   5.829  -1.612 -0.31 +0.00    +0.113 C 
ATOM     59  C38 UNL     1      27.920   4.943  -1.940 -0.26 +0.00    +0.028 C 
ATOM     60  C39 UNL     1      27.525   3.731  -2.776 -0.19 +0.00    +0.002 C 
ATOM     61  C40 UNL     1      26.425   2.921  -2.101 -0.27 +0.00    +0.003 C 
ATOM     62  C41 UNL     1      25.213   3.787  -1.774 -0.18 +0.00    +0.034 C 
ATOM     63  C42 UNL     1      25.589   5.008  -0.926 -0.44 +0.00    +0.143 C 
BRANCH  63  64
ATOM     64  O5  UNL     1      24.444   5.860  -0.762 -0.24 -0.00    -0.389 OA
ATOM     65  C43 UNL     1      23.681   5.569   0.402 -0.44 +0.00    +0.202 C 
ENDBRANCH  63  64
ENDBRANCH  55  58
ENDBRANCH  53  54
ENDBRANCH  48  53
ENDBRANCH  42  46
ENDBRANCH   3  38
TORSDOF 14
TER
