USER    Run = 1
USER    DPF = ligand_524_receptor.dpf
USER  
USER    Estimated Free Energy of Binding    = +214.85 kcal/mol  [=(1)+(2)+(3)-(4)]
USER    
USER    (1) Final Intermolecular Energy     = +213.65 kcal/mol
USER        vdW + Hbond + desolv Energy     = +213.65 kcal/mol
USER        Electrostatic Energy            =   +0.00 kcal/mol
USER    (2) Final Total Internal Energy     =  +84.46 kcal/mol
USER    (3) Torsional Free Energy           =   +1.19 kcal/mol
USER    (4) Unbound System's Energy  [=(2)] =  +84.46 kcal/mol
USER    
USER    
USER    NEWDPF move ligand_524.pdbqt
USER    NEWDPF about 0.000000 0.000000 0.000000
USER    NEWDPF tran0 9.825537 11.872054 1.898537
USER    NEWDPF quaternion0 -0.723089 -0.659848 -0.202828 0.024556
USER    NEWDPF axisangle0 -0.723307 -0.660047 -0.202890 177.185860
USER    NEWDPF quat0 -0.723307 -0.660047 -0.202890 177.185860
USER    NEWDPF dihe0 -148.86 -27.09 174.98 85.06 127.60 -73.58 178.46 59.54 33.76 143.29 9.52 146.88 -67.76 -43.53 -90.59 -26.81 12.43 -180.00 -65.14 149.25 -142.48 -73.31 39.49 -55.87 -49.37 -125.27 -33.34 -119.94 180.00 
USER  keepresnum = 1 
USER  
REMARK  29 active torsions:
REMARK  status: ('A' for Active; 'I' for Inactive)
REMARK    1  A    between atoms: C5_5  and  C6_6 
REMARK    2  A    between atoms: C5_5  and  O3_51 
REMARK    3  A    between atoms: C9_9  and  C12_12 
REMARK    4  A    between atoms: C12_12  and  C13_13 
REMARK    5  A    between atoms: C12_12  and  C19_19 
REMARK    6  A    between atoms: C12_12  and  O11_59 
REMARK    7  A    between atoms: C21_21  and  O5_53 
REMARK    8  A    between atoms: C25_25  and  C26_26 
REMARK    9  A    between atoms: C25_25  and  O5_53 
REMARK   10  A    between atoms: C26_26  and  O6_54 
REMARK   11  A    between atoms: C27_27  and  C28_28 
REMARK   12  A    between atoms: C27_27  and  O6_54 
REMARK   13  A    between atoms: C28_28  and  C29_29 
REMARK   14  A    between atoms: C29_29  and  C30_30 
REMARK   15  A    between atoms: C30_30  and  C31_31 
REMARK   16  A    between atoms: C31_31  and  C32_32 
REMARK   17  A    between atoms: C32_32  and  N2_61 
REMARK   18  A    between atoms: C33_33  and  C34_34 
REMARK       I    between atoms: C33_33  and  N2_61 
REMARK   19  A    between atoms: C34_34  and  C35_35 
REMARK   20  A    between atoms: C35_35  and  C36_36 
REMARK   21  A    between atoms: C36_36  and  C37_37 
REMARK   22  A    between atoms: C37_37  and  C38_38 
REMARK   23  A    between atoms: C38_38  and  N3_62 
REMARK   24  A    between atoms: C39_39  and  C40_40 
REMARK       I    between atoms: C39_39  and  N3_62 
REMARK   25  A    between atoms: C40_40  and  C41_41 
REMARK   26  A    between atoms: C41_41  and  C42_42 
REMARK   27  A    between atoms: C42_42  and  C43_43 
REMARK   28  A    between atoms: C43_43  and  C44_44 
REMARK   29  A    between atoms: O3_51  and  N1_60 
USER                              x       y       z     vdW  Elec       q    Type
USER                           _______ _______ _______ _____ _____    ______ ____
ROOT
ATOM      1  C27 UNL     1      12.212   7.064   6.654 -0.26 +0.00    +0.258 C 
ATOM      2  O7  UNL     1      11.733   6.130   6.027 -0.20 -0.00    -0.265 OA
ENDROOT
BRANCH   1   3
ATOM      3  C28 UNL     1      13.492   7.778   6.290 -0.33 +0.00    +0.111 C 
BRANCH   3   4
ATOM      4  C29 UNL     1      14.689   7.096   6.951 +3.93 +0.00    +0.010 C 
BRANCH   4   5
ATOM      5  C30 UNL     1      15.623   6.464   5.921 +5.10 +0.00    +0.002 C 
BRANCH   5   6
ATOM      6  C31 UNL     1      16.912   7.262   5.694 +9.06 +0.00    +0.020 C 
BRANCH   6   7
ATOM      7  C32 UNL     1      16.817   8.385   4.656 +0.01 +0.00    +0.122 C 
BRANCH   7   8
ATOM      8  N2  UNL     1      18.103   8.769   4.116 -0.22 -0.00    -0.361 N 
ATOM      9  C33 UNL     1      19.244   8.030   4.343 +0.18 +0.00    +0.217 C 
ATOM     10  O8  UNL     1      19.263   6.999   5.005 +5.90 -0.00    -0.274 OA
ATOM     11  H56 UNL     1      18.138   9.572   3.489 +0.12 +0.00    +0.162 HD
BRANCH   9  12
ATOM     12  C34 UNL     1      20.479   8.651   3.719 +0.63 +0.00    +0.103 C 
BRANCH  12  13
ATOM     13  C35 UNL     1      21.630   7.659   3.571+17.73 +0.00    +0.009 C 
BRANCH  13  14
ATOM     14  C36 UNL     1      22.726   8.125   2.607 -0.16 +0.00    +0.002 C 
BRANCH  14  15
ATOM     15  C37 UNL     1      23.387   6.985   1.827 +0.63 +0.00    +0.020 C 
BRANCH  15  16
ATOM     16  C38 UNL     1      23.733   7.384   0.392 -0.44 +0.00    +0.122 C 
BRANCH  16  17
ATOM     17  N3  UNL     1      23.473   8.788   0.142 -0.19 -0.00    -0.361 N 
ATOM     18  C39 UNL     1      22.722   9.198  -0.940 +1.77 +0.00    +0.217 C 
ATOM     19  O9  UNL     1      22.118   8.427  -1.679+13.98 -0.00    -0.274 OA
ATOM     20  H57 UNL     1      24.023   9.473   0.643 +0.13 +0.00    +0.162 HD
BRANCH  18  21
ATOM     21  C40 UNL     1      22.683  10.707  -1.100 +3.55 +0.00    +0.103 C 
BRANCH  21  22
ATOM     22  C41 UNL     1      22.306  11.420   0.199 +5.28 +0.00    +0.009 C 
BRANCH  22  23
ATOM     23  C42 UNL     1      21.165  10.702   0.934 -0.38 +0.00    +0.002 C 
BRANCH  23  24
ATOM     24  C43 UNL     1      20.044  11.662   1.353 -0.64 +0.00    +0.017 C 
BRANCH  24  25
ATOM     25  C44 UNL     1      18.822  11.637   0.423 -0.61 +0.00    +0.072 C 
ATOM     26  C45 UNL     1      17.724  10.680   0.880 -0.47 +0.00    +0.123 C 
ATOM     27  C46 UNL     1      16.384  11.116   0.279 +0.17 +0.00    +0.119 C 
ATOM     28  N5  UNL     1      17.413  10.608   2.293 -0.19 -0.00    -0.335 N 
ATOM     29  C47 UNL     1      16.323  12.646   0.293 +2.75 +0.00    +0.101 C 
ATOM     30  N4  UNL     1      15.447  10.540   1.219 +0.24 -0.00    -0.336 N 
ATOM     31  S1  UNL     1      18.024  13.270   0.258 +5.91 -0.00    -0.160 SA
ATOM     32  C48 UNL     1      16.057  10.355   2.451 -0.26 +0.00    +0.316 C 
ATOM     33  H58 UNL     1      14.437  10.563   1.159 +0.47 +0.00    +0.164 HD
ATOM     34  O10 UNL     1      15.506  10.019   3.480 -0.09 -0.00    -0.247 OA
ATOM     35  H59 UNL     1      18.035  10.263   3.013 +0.13 +0.00    +0.164 HD
ENDBRANCH  24  25
ENDBRANCH  23  24
ENDBRANCH  22  23
ENDBRANCH  21  22
ENDBRANCH  18  21
ENDBRANCH  16  17
ENDBRANCH  15  16
ENDBRANCH  14  15
ENDBRANCH  13  14
ENDBRANCH  12  13
ENDBRANCH   9  12
ENDBRANCH   7   8
ENDBRANCH   6   7
ENDBRANCH   5   6
ENDBRANCH   4   5
ENDBRANCH   3   4
ENDBRANCH   1   3
BRANCH   1  36
ATOM     36  O6  UNL     1      11.675   7.613   7.776 +2.05 -0.00    -0.319 OA
BRANCH  36  37
ATOM     37  C26 UNL     1      12.504   8.596   8.419 +0.28 +0.00    +0.205 C 
BRANCH  37  38
ATOM     38  C25 UNL     1      12.372   9.926   7.671 +1.00 +0.00    +0.202 C 
BRANCH  38  39
ATOM     39  O5  UNL     1      11.139  10.035   6.939 +9.70 -0.00    -0.349 OA
BRANCH  39  40
ATOM     40  C21 UNL     1      10.181   9.143   7.335 +6.25 +0.00    +0.069 A 
ATOM     41  C20 UNL     1      10.282   7.846   6.827 +3.21 +0.00    +0.047 A 
ATOM     42  C19 UNL     1       9.348   6.855   7.178 +7.63 -0.00    -0.012 A 
ATOM     43  C24 UNL     1       8.297   7.228   8.042+24.74 +0.00    +0.011 A 
ATOM     44  C23 UNL     1       8.183   8.536   8.522+35.66 +0.00    +0.003 A 
ATOM     45  C22 UNL     1       9.123   9.499   8.163+42.51 +0.00    +0.037 A 
BRANCH  42  46
ATOM     46  C12 UNL     1       9.467   5.403   6.663 -0.30 +0.00    +0.140 C 
BRANCH  46  47
ATOM     47  C9  UNL     1       9.365   5.410   5.119 -0.27 -0.00    -0.015 A 
ATOM     48  C8  UNL     1       8.155   5.763   4.493 -0.21 +0.00    +0.012 A 
ATOM     49  C7  UNL     1       8.043   5.813   3.101 -0.20 +0.00    +0.018 A 
ATOM     50  C6  UNL     1       9.147   5.523   2.293 -0.17 +0.00    +0.041 A 
ATOM     51  C11 UNL     1      10.366   5.195   2.897 +0.08 +0.00    +0.018 A 
ATOM     52  C10 UNL     1      10.474   5.149   4.292 -0.27 +0.00    +0.012 A 
BRANCH  50  53
ATOM     53  C5  UNL     1       8.973   5.591   0.818 -0.07 +0.00    +0.315 C 
ATOM     54  O4  UNL     1       9.687   6.254   0.077 -0.16 -0.00    -0.257 OA
BRANCH  53  55
ATOM     55  O3  UNL     1       7.923   4.821   0.421 -0.10 -0.00    -0.182 OA
BRANCH  55  56
ATOM     56  N1  UNL     1       8.347   3.554   0.030 -0.08 -0.00    -0.145 N 
ATOM     57  C3  UNL     1       8.812   3.329  -1.221 -0.06 +0.00    +0.251 C 
ATOM     58  C2  UNL     1       9.319   1.916  -1.261 -0.16 +0.00    +0.115 C 
ATOM     59  O1  UNL     1       8.865   4.110  -2.159 -0.11 -0.00    -0.271 OA
ATOM     60  C1  UNL     1       9.263   1.449   0.190 -0.24 +0.00    +0.115 C 
ATOM     61  C4  UNL     1       8.728   2.632   0.945 -0.11 +0.00    +0.251 C 
ATOM     62  O2  UNL     1       8.697   2.721   2.164 -0.19 -0.00    -0.271 OA
ENDBRANCH  55  56
ENDBRANCH  53  55
ENDBRANCH  50  53
ENDBRANCH  46  47
BRANCH  46  63
ATOM     63  C13 UNL     1      10.660   4.603   7.232 -0.42 -0.00    -0.015 A 
ATOM     64  C14 UNL     1      10.604   3.191   7.250 -0.44 +0.00    +0.011 A 
ATOM     65  C15 UNL     1      11.634   2.428   7.800+11.06 +0.00    +0.001 A 
ATOM     66  C16 UNL     1      12.737   3.056   8.368 +0.93 +0.00    +0.000 A 
ATOM     67  C17 UNL     1      12.808   4.445   8.386 -0.52 +0.00    +0.001 A 
ATOM     68  C18 UNL     1      11.778   5.212   7.831 -0.45 +0.00    +0.011 A 
ENDBRANCH  46  63
BRANCH  46  69
ATOM     69  O11 UNL     1       8.316   4.660   7.148 -0.24 -0.00    -0.376 OA
ATOM     70  H55 UNL     1       7.934   4.257   6.347 +0.11 +0.00    +0.211 HD
ENDBRANCH  46  69
ENDBRANCH  42  46
ENDBRANCH  39  40
ENDBRANCH  38  39
ENDBRANCH  37  38
ENDBRANCH  36  37
ENDBRANCH   1  36
TORSDOF 29
TER
