USER    Run = 1
USER    DPF = ligand_314_receptor.dpf
USER  
USER    Estimated Free Energy of Binding    =  +1.84e+004 kcal/mol  [=(1)+(2)+(3)-(4)]
USER    
USER    (1) Final Intermolecular Energy     =  +1.83e+004 kcal/mol
USER        vdW + Hbond + desolv Energy     =  +1.83e+004 kcal/mol
USER        Electrostatic Energy            =   +0.00 kcal/mol
USER    (2) Final Total Internal Energy     =   +0.00 kcal/mol
USER    (3) Torsional Free Energy           =   +1.19 kcal/mol
USER    (4) Unbound System's Energy  [=(2)] =   +0.00 kcal/mol
USER    
USER    
USER    NEWDPF move ligand_314.pdbqt
USER    NEWDPF about 0.000000 0.000000 0.000000
USER    NEWDPF tran0 17.916922 7.872234 2.018814
USER    NEWDPF quaternion0 -0.997911 0.024118 0.059930 -0.000980
USER    NEWDPF axisangle0 -0.997911 0.024118 0.059930 -179.887649
USER    NEWDPF quat0 -0.997911 0.024118 0.059930 -179.887649
USER  keepresnum = 1 
USER  
REMARK  0 active torsions:
REMARK  status: ('A' for Active; 'I' for Inactive)
REMARK       I    between atoms: C2_2  and  C3_3 
REMARK       I    between atoms: C2_2  and  O15_64 
REMARK       I    between atoms: C3_3  and  C4_4 
REMARK       I    between atoms: C3_3  and  N19_85 
REMARK       I    between atoms: C4_4  and  N1_65 
REMARK       I    between atoms: C8_8  and  C9_9 
REMARK       I    between atoms: C9_9  and  N2_66 
REMARK       I    between atoms: C10_10  and  C11_11 
REMARK       I    between atoms: C10_10  and  C15_15 
REMARK       I    between atoms: C10_10  and  N2_66 
REMARK       I    between atoms: C11_11  and  C12_12 
REMARK       I    between atoms: C12_12  and  C13_13 
REMARK       I    between atoms: C13_13  and  N3_67 
REMARK       I    between atoms: C14_14  and  N4_69 
REMARK       I    between atoms: C14_14  and  N5_70 
REMARK       I    between atoms: C15_15  and  N6_71 
REMARK       I    between atoms: C16_16  and  C17_17 
REMARK       I    between atoms: C16_16  and  C20_20 
REMARK       I    between atoms: C16_16  and  N6_71 
REMARK       I    between atoms: C17_17  and  C18_18 
REMARK       I    between atoms: C18_18  and  C19_19 
REMARK       I    between atoms: C19_19  and  O5_54 
REMARK       I    between atoms: C20_20  and  N7_72 
REMARK       I    between atoms: C21_21  and  C23_23 
REMARK       I    between atoms: C21_21  and  N7_72 
REMARK       I    between atoms: C23_23  and  N8_73 
REMARK       I    between atoms: C24_24  and  C26_26 
REMARK       I    between atoms: C24_24  and  N8_73 
REMARK       I    between atoms: C26_26  and  N9_74 
REMARK       I    between atoms: C27_27  and  C29_29 
REMARK       I    between atoms: C27_27  and  N9_74 
REMARK       I    between atoms: C29_29  and  N10_75 
REMARK       I    between atoms: C30_30  and  C31_31 
REMARK       I    between atoms: C30_30  and  C35_35 
REMARK       I    between atoms: C30_30  and  N10_75 
REMARK       I    between atoms: C31_31  and  C32_32 
REMARK       I    between atoms: C32_32  and  C33_33 
REMARK       I    between atoms: C33_33  and  C34_34 
REMARK       I    between atoms: C34_34  and  N11_76 
REMARK       I    between atoms: C35_35  and  N12_77 
REMARK       I    between atoms: C36_36  and  C37_37 
REMARK       I    between atoms: C36_36  and  C41_41 
REMARK       I    between atoms: C36_36  and  N12_77 
REMARK       I    between atoms: C37_37  and  C38_38 
REMARK       I    between atoms: C38_38  and  C39_39 
REMARK       I    between atoms: C39_39  and  C40_40 
REMARK       I    between atoms: C40_40  and  N13_78 
REMARK       I    between atoms: C41_41  and  N14_79 
REMARK       I    between atoms: C42_42  and  C43_43 
REMARK       I    between atoms: C42_42  and  C47_47 
REMARK       I    between atoms: C42_42  and  N14_79 
REMARK       I    between atoms: C43_43  and  C44_44 
REMARK       I    between atoms: C44_44  and  C45_45 
REMARK       I    between atoms: C45_45  and  N15_80 
REMARK       I    between atoms: C46_46  and  N16_82 
REMARK       I    between atoms: C46_46  and  N17_83 
REMARK       I    between atoms: C47_47  and  N18_84 
REMARK       I    between atoms: C48_48  and  C49_49 
REMARK       I    between atoms: C48_48  and  N18_84 
REMARK       I    between atoms: C49_49  and  O14_63 
USER                              x       y       z     vdW  Elec       q    Type
USER                           _______ _______ _______ _____ _____    ______ ____
ROOT
ATOM      1  C1  UNL     1       3.547   6.044   7.288 -0.28 +0.00    +0.042 C 
ATOM      2  C2  UNL     1       3.344   7.443   6.717 -0.23 +0.00    +0.156 C 
ATOM      3  C3  UNL     1       4.502   7.903   5.809+78.71 +0.00    +0.337 C 
ATOM      4  C4  UNL     1       4.837   6.903   4.685+10.53 +0.00    +0.256 C 
ATOM      5  C5  UNL     1       2.793   7.486   3.287 +0.31 +0.00    +0.127 C 
ATOM      6  C6  UNL     1       2.374   7.009   1.902+99.99 +0.00    +0.022 C 
ATOM      7  C7  UNL     1       3.013   5.630   1.794+13.00 +0.00    +0.037 C 
ATOM      8  C8  UNL     1       4.346   5.807   2.521 -0.15 +0.00    +0.179 C 
ATOM      9  C9  UNL     1       5.455   6.356   1.592 -0.15 +0.00    +0.241 C 
ATOM     10  C10 UNL     1       7.824   7.088   1.550 -0.30 +0.00    +0.176 C 
ATOM     11  C11 UNL     1       7.776   8.600   1.830 +7.10 +0.00    +0.036 C 
ATOM     12  C12 UNL     1       8.073   8.973   3.292 +4.97 +0.00    +0.022 C 
ATOM     13  C13 UNL     1       7.791  10.450   3.574+60.96 +0.00    +0.121 C 
ATOM     14  C14 UNL     1       5.863  11.821   3.573+99.99 +0.00    +0.121 C 
ATOM     15  C15 UNL     1       9.156   6.454   1.999 -0.18 +0.00    +0.241 C 
ATOM     16  C16 UNL     1      11.610   6.450   1.608 -0.29 +0.00    +0.177 C 
ATOM     17  C17 UNL     1      11.920   5.040   1.086+28.66 +0.00    +0.045 C 
ATOM     18  C18 UNL     1      11.759   4.901  -0.430 +0.18 +0.00    +0.112 C 
ATOM     19  C19 UNL     1      12.097   3.509  -0.889+11.56 +0.00    +0.139 C 
ATOM     20  C20 UNL     1      12.585   7.505   1.050 +8.20 +0.00    +0.241 C 
ATOM     21  C21 UNL     1      14.951   8.254   0.997 +8.69 +0.00    +0.172 C 
ATOM     22  C22 UNL     1      14.945   9.564   1.776+34.60 +0.00    +0.042 C 
ATOM     23  C23 UNL     1      16.289   7.515   1.190 +9.81 +0.00    +0.240 C 
ATOM     24  C24 UNL     1      18.720   7.637   0.868+99.99 +0.00    +0.172 C 
ATOM     25  C25 UNL     1      19.645   7.810  -0.327+99.99 +0.00    +0.042 C 
ATOM     26  C26 UNL     1      19.234   8.479   2.054+11.75 +0.00    +0.240 C 
ATOM     27  C27 UNL     1      20.874   8.565   3.913 +3.17 +0.00    +0.172 C 
ATOM     28  C28 UNL     1      20.120   8.147   5.169+35.43 +0.00    +0.042 C 
ATOM     29  C29 UNL     1      22.376   8.234   4.020+26.23 +0.00    +0.240 C 
ATOM     30  C30 UNL     1      24.430   7.868   2.645 -0.05 +0.00    +0.176 C 
ATOM     31  C31 UNL     1      24.728   6.376   2.842+27.79 +0.00    +0.035 C 
ATOM     32  C32 UNL     1      26.187   5.929   2.708+30.50 +0.00    +0.004 C 
ATOM     33  C33 UNL     1      27.082   6.154   3.932+99.99 +0.00    +0.030 C 
ATOM     34  C34 UNL     1      27.393   7.598   4.319+99.99 +0.00    +0.267 C 
ATOM     35  C35 UNL     1      24.784   8.359   1.228 -0.31 +0.00    +0.241 C 
ATOM     36  C36 UNL     1      26.526   9.469  -0.159+29.04 +0.00    +0.176 C 
ATOM     37  C37 UNL     1      27.087  10.884   0.047+99.99 +0.00    +0.035 C 
ATOM     38  C38 UNL     1      26.007  11.904   0.408+99.99 +0.00    +0.004 C 
ATOM     39  C39 UNL     1      26.441  13.369   0.265 +6.61 +0.00    +0.030 C 
ATOM     40  C40 UNL     1      27.606  13.817   1.153+33.77 +0.00    +0.267 C 
ATOM     41  C41 UNL     1      27.624   8.586  -0.792 +4.34 +0.00    +0.241 C 
ATOM     42  C42 UNL     1      29.437   6.946  -0.382 -0.17 +0.00    +0.176 C 
ATOM     43  C43 UNL     1      29.927   6.086   0.791 -0.25 +0.00    +0.036 C 
ATOM     44  C44 UNL     1      30.771   4.868   0.393 -0.18 +0.00    +0.022 C 
ATOM     45  C45 UNL     1      30.067   3.887  -0.545 -0.13 +0.00    +0.121 C 
ATOM     46  C46 UNL     1      28.669   2.454   0.730 -0.25 +0.00    +0.121 C 
ATOM     47  C47 UNL     1      30.640   7.704  -0.998 -0.11 +0.00    +0.240 C 
ATOM     48  C48 UNL     1      31.755   9.916  -0.989 -0.20 +0.00    +0.232 C 
ATOM     49  C49 UNL     1      31.254  11.306  -0.605 +2.05 +0.00    +0.158 C 
ATOM     50  O1  UNL     1       5.837   6.182   4.809 +0.09 -0.00    -0.271 OA
ATOM     51  O2  UNL     1       5.252   6.720   0.436 +0.41 -0.00    -0.271 OA
ATOM     52  O3  UNL     1       9.247   5.653   2.926 -0.13 -0.00    -0.271 OA
ATOM     53  O4  UNL     1      12.649   2.631  -0.249+41.60 -0.00    -0.650 OA
ATOM     54  O5  UNL     1      11.740   3.302  -2.172+49.28 -0.00    -0.776 OA
ATOM     55  O6  UNL     1      12.212   8.398   0.288+99.99 -0.00    -0.271 OA
ATOM     56  O7  UNL     1      16.378   6.493   1.871+99.99 -0.00    -0.271 OA
ATOM     57  O8  UNL     1      18.763   9.581   2.333 -0.28 -0.00    -0.271 OA
ATOM     58  O9  UNL     1      22.995   8.193   5.079+27.25 -0.00    -0.271 OA
ATOM     59  O10 UNL     1      23.985   8.269   0.297 -0.29 -0.00    -0.271 OA
ATOM     60  O11 UNL     1      27.869   8.616  -1.996 +7.84 -0.00    -0.271 OA
ATOM     61  O12 UNL     1      31.388   7.215  -1.839 -0.04 -0.00    -0.271 OA
ATOM     62  O13 UNL     1      31.697  12.372  -1.000+12.71 -0.00    -0.649 OA
ATOM     63  O14 UNL     1      30.217  11.252   0.269 +4.74 -0.00    -0.775 OA
ATOM     64  O15 UNL     1       3.215   8.358   7.823 -0.16 -0.00    -0.393 OA
ATOM     65  N1  UNL     1       4.035   6.781   3.575 -0.08 -0.00    -0.337 N 
ATOM     66  N2  UNL     1       6.702   6.404   2.174 -0.10 -0.00    -0.346 N 
ATOM     67  N3  UNL     1       6.346  10.638   3.629+99.99 -0.00    -0.372 N 
ATOM     68  H3  UNL     1       5.726   9.833   3.712 +5.11 +0.00    +0.161 HD
ATOM     69  N4  UNL     1       6.486  13.015   3.488+99.99 -0.00    -0.279 NA
ATOM     70  N5  UNL     1       4.525  12.000   3.621+28.91 -0.00    -0.279 NA
ATOM     71  N6  UNL     1      10.254   6.875   1.284 -0.13 -0.00    -0.346 N 
ATOM     72  N7  UNL     1      13.888   7.367   1.452 +3.00 -0.00    -0.346 N 
ATOM     73  N8  UNL     1      17.370   8.086   0.548 +0.54 -0.00    -0.346 N 
ATOM     74  N9  UNL     1      20.305   7.929   2.723+20.18 -0.00    -0.346 N 
ATOM     75  N10 UNL     1      22.998   8.112   2.798 -0.01 -0.00    -0.346 N 
ATOM     76  N11 UNL     1      27.976   8.362   3.207 +0.86 +0.00    +0.078 N 
ATOM     77  N12 UNL     1      26.035   8.919   1.106 -0.14 -0.00    -0.346 N 
ATOM     78  N13 UNL     1      28.927  13.565   0.556+94.71 +0.00    +0.078 N 
ATOM     79  N14 UNL     1      28.439   7.919   0.106 -0.14 -0.00    -0.346 N 
ATOM     80  N15 UNL     1      28.772   3.503   0.010 -0.13 -0.00    -0.372 N 
ATOM     81  H15 UNL     1      27.949   4.075  -0.177 +0.08 +0.00    +0.161 HD
ATOM     82  N16 UNL     1      29.607   1.571   1.133 +0.10 -0.00    -0.279 NA
ATOM     83  N17 UNL     1      27.459   2.089   1.206+16.66 -0.00    -0.279 NA
ATOM     84  N18 UNL     1      30.896   8.910  -0.382 -0.10 -0.00    -0.349 N 
ATOM     85  N19 UNL     1       4.269   9.270   5.283+91.28 +0.00    +0.094 N 
ATOM     86  H64 UNL     1      12.009   2.376  -2.347 +1.98 +0.00    +0.167 HD
ATOM     87  H65 UNL     1      29.848  12.173   0.354 +0.36 +0.00    +0.167 HD
ATOM     88  H66 UNL     1       4.011   8.267   8.374 +0.10 +0.00    +0.210 HD
ATOM     89  H67 UNL     1       6.786   6.159   3.164 +0.07 +0.00    +0.163 HD
ATOM     90  H68 UNL     1       5.981  13.663   2.893+99.99 +0.00    +0.126 HD
ATOM     91  H69 UNL     1       7.458  12.964   3.216+14.53 +0.00    +0.126 HD
ATOM     92  H70 UNL     1       4.057  11.123   3.853 -0.31 +0.00    +0.126 HD
ATOM     93  H71 UNL     1       4.250  12.723   4.273+99.99 +0.00    +0.126 HD
ATOM     94  H72 UNL     1      10.162   7.599   0.575 +0.09 +0.00    +0.163 HD
ATOM     95  H73 UNL     1      14.168   6.608   2.069 +3.28 +0.00    +0.163 HD
ATOM     96  H74 UNL     1      17.289   9.071   0.320 +0.12 +0.00    +0.163 HD
ATOM     97  H75 UNL     1      20.506   6.944   2.586+99.99 +0.00    +0.163 HD
ATOM     98  H76 UNL     1      22.451   8.241   1.950 +0.11 +0.00    +0.163 HD
ATOM     99  H77 UNL     1      28.902   7.959   3.026 -0.08 +0.00    +0.312 HD
ATOM    100  H78 UNL     1      28.198   9.296   3.571 -0.13 +0.00    +0.312 HD
ATOM    101  H79 UNL     1      26.667   8.889   1.910 +0.10 +0.00    +0.163 HD
ATOM    102  H80 UNL     1      28.932  14.004  -0.374+99.99 +0.00    +0.312 HD
ATOM    103  H81 UNL     1      29.602  14.130   1.086+11.55 +0.00    +0.312 HD
ATOM    104  H82 UNL     1      28.023   7.744   1.014 +0.10 +0.00    +0.163 HD
ATOM    105  H83 UNL     1      29.436   1.227   2.071 -0.04 +0.00    +0.126 HD
ATOM    106  H84 UNL     1      30.560   1.895   1.036 +0.07 +0.00    +0.126 HD
ATOM    107  H85 UNL     1      26.740   2.647   0.753 +1.75 +0.00    +0.126 HD
ATOM    108  H86 UNL     1      27.277   1.104   1.054 +8.13 +0.00    +0.126 HD
ATOM    109  H87 UNL     1      30.115   9.289   0.150 +0.07 +0.00    +0.163 HD
ATOM    110  H88 UNL     1       4.156   9.885   6.090 +0.22 +0.00    +0.314 HD
ATOM    111  H89 UNL     1       5.135   9.574   4.807+99.99 +0.00    +0.314 HD
ENDROOT
TORSDOF 46
TER
