USER    Run = 1
USER    DPF = ligand_12_receptor.dpf
USER  
USER    Estimated Free Energy of Binding    =   -9.05 kcal/mol  [=(1)+(2)+(3)-(4)]
USER    Estimated Inhibition Constant, Ki   =  231.86 nM (nanomolar)  [Temperature = 298.15 K]
USER    
USER    (1) Final Intermolecular Energy     =  -10.24 kcal/mol
USER        vdW + Hbond + desolv Energy     =  -10.24 kcal/mol
USER        Electrostatic Energy            =   +0.00 kcal/mol
USER    (2) Final Total Internal Energy     =   -3.28 kcal/mol
USER    (3) Torsional Free Energy           =   +1.19 kcal/mol
USER    (4) Unbound System's Energy  [=(2)] =   -3.28 kcal/mol
USER    
USER    
USER    NEWDPF move ligand_12.pdbqt
USER    NEWDPF about 0.000000 0.000000 0.000000
USER    NEWDPF tran0 17.584431 12.501722 2.339083
USER    NEWDPF quaternion0 -0.306093 -0.816761 -0.336628 0.354809
USER    NEWDPF axisangle0 -0.327394 -0.873599 -0.360053 138.436468
USER    NEWDPF quat0 -0.327394 -0.873599 -0.360053 138.436468
USER    NEWDPF dihe0 180.00 56.74 -2.61 70.56 178.23 -91.68 -133.61 20.50 -151.98 84.17 -26.02 51.51 -134.99 -97.80 84.77 8.82 180.00 -77.78 137.48 
USER  keepresnum = 1 
USER  
REMARK  19 active torsions:
REMARK  status: ('A' for Active; 'I' for Inactive)
REMARK    1  A    between atoms: C2_2  and  C4_4 
REMARK    2  A    between atoms: C2_2  and  C5_5 
REMARK    3  A    between atoms: C4_4  and  N1_41 
REMARK    4  A    between atoms: C5_5  and  N2_42 
REMARK    5  A    between atoms: C6_6  and  C7_7 
REMARK       I    between atoms: C6_6  and  N2_42 
REMARK    6  A    between atoms: C7_7  and  C8_8 
REMARK    7  A    between atoms: C8_8  and  N3_43 
REMARK    8  A    between atoms: C9_9  and  C10_10 
REMARK       I    between atoms: C9_9  and  N3_43 
REMARK    9  A    between atoms: C12_12  and  N5_45 
REMARK   10  A    between atoms: C15_15  and  C16_16 
REMARK       I    between atoms: C15_15  and  N5_45 
REMARK   11  A    between atoms: C18_18  and  N7_47 
REMARK   12  A    between atoms: C21_21  and  C22_22 
REMARK       I    between atoms: C21_21  and  N7_47 
REMARK   13  A    between atoms: C22_22  and  C23_23 
REMARK   14  A    between atoms: C23_23  and  N8_48 
REMARK   15  A    between atoms: C24_24  and  C25_25 
REMARK       I    between atoms: C24_24  and  N8_48 
REMARK   16  A    between atoms: C27_27  and  N10_50 
REMARK   17  A    between atoms: C30_30  and  C31_31 
REMARK       I    between atoms: C30_30  and  N10_50 
REMARK   18  A    between atoms: C33_33  and  N12_52 
REMARK   19  A    between atoms: C36_36  and  C37_37 
REMARK       I    between atoms: C36_36  and  N12_52 
USER                              x       y       z     vdW  Elec       q    Type
USER                           _______ _______ _______ _____ _____    ______ ____
ROOT
ATOM      1  C21 UNL     1      17.847  12.388   1.513 -0.56 +0.00    +0.223 C 
ATOM      2  N7  UNL     1      18.886  11.803   0.810 -0.33 -0.00    -0.326 N 
ATOM      3  O4  UNL     1      17.721  12.410   2.734 -0.42 -0.00    -0.273 OA
ATOM      4  H46 UNL     1      18.892  11.871  -0.200 +0.13 +0.00    +0.169 HD
ENDROOT
BRANCH   2   5
ATOM      5  C18 UNL     1      19.961  11.153   1.383 -0.52 +0.00    +0.052 A 
ATOM      6  C17 UNL     1      20.617   9.960   1.002 -0.29 +0.00    +0.066 A 
ATOM      7  C16 UNL     1      21.649   9.702   1.900 -0.34 +0.00    +0.105 A 
ATOM      8  N6  UNL     1      21.621  10.747   2.809 +0.34 -0.00    -0.354 N 
ATOM      9  C19 UNL     1      20.604  11.618   2.504 +0.81 +0.00    +0.120 A 
ATOM     10  C20 UNL     1      22.511  10.912   3.941 +0.44 +0.00    +0.156 C 
BRANCH   7  11
ATOM     11  C15 UNL     1      22.609   8.599   1.936 -0.22 +0.00    +0.273 C 
ATOM     12  N5  UNL     1      23.582   8.664   0.956 -0.20 -0.00    -0.320 N 
ATOM     13  H45 UNL     1      23.551   9.422   0.291 +0.13 +0.00    +0.169 HD
ATOM     14  O3  UNL     1      22.531   7.702   2.771 +0.23 -0.00    -0.266 OA
BRANCH  12  15
ATOM     15  C12 UNL     1      24.604   7.751   0.781 -0.39 +0.00    +0.053 A 
ATOM     16  C11 UNL     1      25.982   7.948   0.535 -0.34 +0.00    +0.066 A 
ATOM     17  C10 UNL     1      26.605   6.709   0.414 -0.29 +0.00    +0.104 A 
ATOM     18  N4  UNL     1      25.603   5.771   0.595 -0.16 -0.00    -0.354 N 
ATOM     19  C13 UNL     1      24.401   6.392   0.820 -0.37 +0.00    +0.120 A 
ATOM     20  C14 UNL     1      25.778   4.332   0.570 -0.09 +0.00    +0.156 C 
BRANCH  17  21
ATOM     21  C9  UNL     1      27.995   6.388   0.133 -0.18 +0.00    +0.268 C 
ATOM     22  N3  UNL     1      28.757   7.434  -0.335 -0.10 -0.00    -0.355 N 
ATOM     23  H44 UNL     1      28.315   8.323  -0.527 +0.08 +0.00    +0.162 HD
ATOM     24  O2  UNL     1      28.472   5.264   0.279 -0.17 -0.00    -0.266 OA
BRANCH  22  25
ATOM     25  C8  UNL     1      30.102   7.247  -0.848 -0.16 +0.00    +0.132 C 
BRANCH  25  26
ATOM     26  C7  UNL     1      31.106   6.973   0.265 -0.14 +0.00    +0.122 C 
BRANCH  26  27
ATOM     27  C6  UNL     1      31.152   5.499   0.613 -0.11 +0.00    +0.219 C 
ATOM     28  N2  UNL     1      31.717   4.724  -0.376 +0.02 -0.00    -0.360 N 
ATOM     29  H43 UNL     1      32.101   5.177  -1.195 +0.03 +0.00    +0.162 HD
ATOM     30  O1  UNL     1      30.713   5.048   1.666 -0.21 -0.00    -0.274 OA
BRANCH  28  31
ATOM     31  C5  UNL     1      31.960   3.299  -0.210 -0.10 +0.00    +0.133 C 
BRANCH  31  32
ATOM     32  C2  UNL     1      30.736   2.406  -0.554 -0.23 -0.00    -0.006 C 
ATOM     33  C1  UNL     1      29.700   3.209  -1.369 -0.18 +0.00    +0.018 C 
ATOM     34  C3  UNL     1      31.159   1.180  -1.385 -0.21 +0.00    +0.018 C 
BRANCH  32  35
ATOM     35  C4  UNL     1      30.041   1.949   0.761 -0.16 +0.00    +0.276 C 
BRANCH  35  36
ATOM     36  N1  UNL     1      30.691   2.417   1.980 -0.36 +0.00    +0.079 N 
ATOM     37  H41 UNL     1      31.464   3.038   1.738 +0.15 +0.00    +0.312 HD
ATOM     38  H42 UNL     1      30.041   2.982   2.527 -0.24 +0.00    +0.312 HD
ENDBRANCH  35  36
ENDBRANCH  32  35
ENDBRANCH  31  32
ENDBRANCH  28  31
ENDBRANCH  26  27
ENDBRANCH  25  26
ENDBRANCH  22  25
ENDBRANCH  17  21
ENDBRANCH  12  15
ENDBRANCH   7  11
ENDBRANCH   2   5
BRANCH   1  39
ATOM     39  C22 UNL     1      16.814  12.992   0.583 +0.75 +0.00    +0.123 C 
BRANCH  39  40
ATOM     40  C23 UNL     1      15.504  12.213   0.634 +1.01 +0.00    +0.132 C 
BRANCH  40  41
ATOM     41  N8  UNL     1      15.515  11.154   1.630 -0.22 -0.00    -0.355 N 
ATOM     42  C24 UNL     1      16.398  10.098   1.540 -0.34 +0.00    +0.268 C 
ATOM     43  O5  UNL     1      17.287  10.054   0.696 -0.32 -0.00    -0.266 OA
ATOM     44  H47 UNL     1      14.636  10.953   2.087 -0.20 +0.00    +0.162 HD
BRANCH  42  45
ATOM     45  C25 UNL     1      16.149   9.023   2.479 -0.41 +0.00    +0.104 A 
ATOM     46  C26 UNL     1      14.910   8.471   2.777 -0.08 +0.00    +0.066 A 
ATOM     47  C27 UNL     1      15.084   7.464   3.756 -0.26 +0.00    +0.053 A 
ATOM     48  C28 UNL     1      16.431   7.391   4.008 -0.06 +0.00    +0.120 A 
ATOM     49  N9  UNL     1      17.075   8.305   3.211 -0.28 -0.00    -0.354 N 
ATOM     50  C29 UNL     1      18.516   8.401   3.115 -0.36 +0.00    +0.156 C 
BRANCH  47  51
ATOM     51  N10 UNL     1      14.067   6.711   4.308 -0.20 -0.00    -0.320 N 
ATOM     52  C30 UNL     1      13.795   6.580   5.657 -0.32 +0.00    +0.273 C 
ATOM     53  O6  UNL     1      14.358   7.190   6.560 -0.06 -0.00    -0.266 OA
ATOM     54  H48 UNL     1      13.424   6.286   3.655 +0.02 +0.00    +0.169 HD
BRANCH  52  55
ATOM     55  C31 UNL     1      12.700   5.664   5.926 -0.35 +0.00    +0.105 A 
ATOM     56  C32 UNL     1      11.442   5.685   5.337 -0.29 +0.00    +0.066 A 
ATOM     57  C33 UNL     1      10.680   4.612   5.856 -0.34 +0.00    +0.053 A 
ATOM     58  C34 UNL     1      11.473   3.979   6.782 -0.38 +0.00    +0.120 A 
ATOM     59  N11 UNL     1      12.672   4.643   6.856 -0.23 -0.00    -0.354 N 
ATOM     60  C35 UNL     1      13.690   4.347   7.841 -0.49 +0.00    +0.156 C 
BRANCH  57  61
ATOM     61  N12 UNL     1       9.388   4.306   5.480 -0.15 -0.00    -0.321 N 
ATOM     62  C36 UNL     1       9.009   3.485   4.431 -0.23 +0.00    +0.263 C 
ATOM     63  O7  UNL     1       9.793   2.916   3.675 -0.24 -0.00    -0.267 OA
ATOM     64  H49 UNL     1       8.650   4.723   6.032 +0.11 +0.00    +0.169 HD
BRANCH  62  65
ATOM     65  C37 UNL     1       7.562   3.332   4.268 -0.22 +0.00    +0.074 A 
ATOM     66  C38 UNL     1       6.915   2.612   3.275 -0.26 +0.00    +0.026 A 
ATOM     67  C39 UNL     1       5.494   2.659   3.393 -0.21 +0.00    +0.028 A 
ATOM     68  C40 UNL     1       5.117   3.416   4.471 -0.20 +0.00    +0.052 A 
ATOM     69  S1  UNL     1       6.424   4.059   5.331 -0.39 -0.00    -0.077 SA
ATOM     70 BR1  UNL     1       3.295   3.718   4.962 -0.33 -0.00    -0.043 Br
ENDBRANCH  62  65
ENDBRANCH  57  61
ENDBRANCH  52  55
ENDBRANCH  47  51
ENDBRANCH  42  45
ENDBRANCH  40  41
ENDBRANCH  39  40
ENDBRANCH   1  39
TORSDOF 19
TER
