USER    Run = 1
USER    DPF = ligand_59_receptor.dpf
USER  
USER    Estimated Free Energy of Binding    = +204.72 kcal/mol  [=(1)+(2)+(3)-(4)]
USER    
USER    (1) Final Intermolecular Energy     = +203.53 kcal/mol
USER        vdW + Hbond + desolv Energy     = +203.53 kcal/mol
USER        Electrostatic Energy            =   +0.00 kcal/mol
USER    (2) Final Total Internal Energy     =   +0.00 kcal/mol
USER    (3) Torsional Free Energy           =   +1.19 kcal/mol
USER    (4) Unbound System's Energy  [=(2)] =   +0.00 kcal/mol
USER    
USER    
USER    NEWDPF move ligand_59.pdbqt
USER    NEWDPF about 0.000000 0.000000 0.000000
USER    NEWDPF tran0 10.490492 5.848843 3.196236
USER    NEWDPF quaternion0 0.662777 -0.689238 -0.251433 0.149862
USER    NEWDPF axisangle0 0.670348 -0.697110 -0.254305 162.762106
USER    NEWDPF quat0 0.670348 -0.697110 -0.254305 162.762106
USER  keepresnum = 1 
USER  
REMARK  0 active torsions:
REMARK  status: ('A' for Active; 'I' for Inactive)
REMARK       I    between atoms: C2_2  and  C25_25 
REMARK       I    between atoms: C4_4  and  N4_56 
REMARK       I    between atoms: C6_6  and  C7_7 
REMARK       I    between atoms: C7_7  and  N1_53 
REMARK       I    between atoms: C8_8  and  C9_9 
REMARK       I    between atoms: C8_8  and  N1_53 
REMARK       I    between atoms: C9_9  and  C10_10 
REMARK       I    between atoms: C10_10  and  C11_11 
REMARK       I    between atoms: C11_11  and  C12_12 
REMARK       I    between atoms: C12_12  and  C13_13 
REMARK       I    between atoms: C12_12  and  N2_54 
REMARK       I    between atoms: C13_13  and  O3_40 
REMARK       I    between atoms: C14_14  and  N2_54 
REMARK       I    between atoms: C14_14  and  N3_55 
REMARK       I    between atoms: C15_15  and  C16_16 
REMARK       I    between atoms: C15_15  and  C19_19 
REMARK       I    between atoms: C15_15  and  N3_55 
REMARK       I    between atoms: C16_16  and  C17_17 
REMARK       I    between atoms: C17_17  and  C18_18 
REMARK       I    between atoms: C18_18  and  O5_42 
REMARK       I    between atoms: C19_19  and  O7_44 
REMARK       I    between atoms: C21_21  and  C22_22 
REMARK       I    between atoms: C22_22  and  C23_23 
REMARK       I    between atoms: C23_23  and  C24_24 
REMARK       I    between atoms: C25_25  and  N7_60 
REMARK       I    between atoms: C26_26  and  C27_27 
REMARK       I    between atoms: C26_26  and  N7_60 
REMARK       I    between atoms: C27_27  and  C28_28 
REMARK       I    between atoms: C28_28  and  C29_29 
REMARK       I    between atoms: C29_29  and  C30_30 
REMARK       I    between atoms: C30_30  and  C31_31 
REMARK       I    between atoms: C30_30  and  N8_61 
REMARK       I    between atoms: C31_31  and  O10_47 
REMARK       I    between atoms: C32_32  and  N8_61 
REMARK       I    between atoms: C32_32  and  N9_62 
REMARK       I    between atoms: C33_33  and  C34_34 
REMARK       I    between atoms: C33_33  and  C37_37 
REMARK       I    between atoms: C33_33  and  N9_62 
REMARK       I    between atoms: C34_34  and  C35_35 
REMARK       I    between atoms: C35_35  and  C36_36 
REMARK       I    between atoms: C36_36  and  O13_50 
REMARK       I    between atoms: C37_37  and  O15_52 
USER                              x       y       z     vdW  Elec       q    Type
USER                           _______ _______ _______ _____ _____    ______ ____
ROOT
ATOM      1  C1  UNL     1      13.590   5.858   3.533+12.51 +0.00    +0.034 A 
ATOM      2  C2  UNL     1      13.306   6.578   2.369 +2.31 +0.00    +0.035 A 
ATOM      3  C3  UNL     1      13.914   7.811   2.120 +4.43 +0.00    +0.048 A 
ATOM      4  C4  UNL     1      14.806   8.349   3.058 -0.29 +0.00    +0.056 A 
ATOM      5  C5  UNL     1      15.092   7.631   4.229 -0.44 +0.00    +0.048 A 
ATOM      6  C6  UNL     1      14.485   6.387   4.467 +1.79 +0.00    +0.035 A 
ATOM      7  C7  UNL     1      14.839   5.662   5.720 +8.05 +0.00    +0.251 C 
ATOM      8  C8  UNL     1      14.029   4.153   7.504 -0.36 +0.00    +0.123 C 
ATOM      9  C9  UNL     1      14.030   5.109   8.703 +0.93 +0.00    +0.020 C 
ATOM     10  C10 UNL     1      13.068   6.302   8.621 -0.63 +0.00    +0.004 C 
ATOM     11  C11 UNL     1      11.599   5.929   8.390 +0.44 +0.00    +0.031 C 
ATOM     12  C12 UNL     1      11.012   6.567   7.124 +0.39 +0.00    +0.162 C 
ATOM     13  C13 UNL     1      10.814   8.080   7.324 +9.90 +0.00    +0.158 C 
ATOM     14  C14 UNL     1       9.294   5.853   5.515 -0.09 +0.00    +0.295 C 
ATOM     15  C15 UNL     1       7.112   5.774   4.290 -0.14 +0.00    +0.183 C 
ATOM     16  C16 UNL     1       6.980   7.186   3.693 +5.26 +0.00    +0.038 C 
ATOM     17  C17 UNL     1       8.237   7.763   3.040 -0.31 +0.00    +0.028 C 
ATOM     18  C18 UNL     1       7.935   8.990   2.188+40.46 +0.00    +0.164 C 
ATOM     19  C19 UNL     1       7.320   4.680   3.238 -0.14 +0.00    +0.163 C 
ATOM     20  C20 UNL     1      16.319  10.301   3.578 +0.02 +0.00    +0.140 A 
ATOM     21  C21 UNL     1      16.561  11.463   2.881 -0.35 +0.00    +0.041 A 
ATOM     22  C22 UNL     1      17.457  12.599   3.210 +1.42 +0.00    +0.062 C 
ATOM     23  C23 UNL     1      18.850  12.423   2.616 -0.30 +0.00    +0.037 C 
ATOM     24  C24 UNL     1      19.739  13.610   2.932 +8.61 +0.00    +0.222 C 
ATOM     25  C25 UNL     1      12.433   5.977   1.341 +0.24 +0.00    +0.251 C 
ATOM     26  C26 UNL     1      10.402   4.637   0.964 +9.32 +0.00    +0.123 C 
ATOM     27  C27 UNL     1       9.737   5.372  -0.195 -0.23 +0.00    +0.020 C 
ATOM     28  C28 UNL     1       8.701   4.540  -0.961 -0.17 +0.00    +0.004 C 
ATOM     29  C29 UNL     1       9.225   3.217  -1.542 -0.18 +0.00    +0.036 C 
ATOM     30  C30 UNL     1       9.034   2.007  -0.615 -0.11 +0.00    +0.184 C 
ATOM     31  C31 UNL     1       9.755   0.793  -1.215 -0.20 +0.00    +0.163 C 
ATOM     32  C32 UNL     1       7.057   1.521   0.786 -0.10 +0.00    +0.317 C 
ATOM     33  C33 UNL     1       4.912   0.825   1.849 +0.12 +0.00    +0.184 C 
ATOM     34  C34 UNL     1       4.517   2.097   2.609 -0.19 +0.00    +0.046 C 
ATOM     35  C35 UNL     1       3.863   3.165   1.729 -0.09 +0.00    +0.112 C 
ATOM     36  C36 UNL     1       3.568   4.416   2.512 -0.11 +0.00    +0.139 C 
ATOM     37  C37 UNL     1       3.656   0.057   1.421 +1.94 +0.00    +0.163 C 
ATOM     38  O1  UNL     1      15.907   5.890   6.276+27.15 -0.00    -0.268 OA
ATOM     39  O2  UNL     1      11.694   8.921   7.405 +0.11 -0.00    -0.649 OA
ATOM     40  O3  UNL     1       9.519   8.439   7.489+22.76 -0.00    -0.775 OA
ATOM     41  O4  UNL     1      10.028   5.951   4.541 -0.16 -0.00    -0.254 OA
ATOM     42  O5  UNL     1       7.357  10.009   2.993+19.29 -0.00    -0.401 OA
ATOM     43  O6  UNL     1       6.898   4.716   2.089 +0.08 -0.00    -0.648 OA
ATOM     44  O7  UNL     1       7.913   3.567   3.724 +0.07 -0.00    -0.775 OA
ATOM     45  O8  UNL     1      12.821   5.921   0.182 -0.43 -0.00    -0.268 OA
ATOM     46  O9  UNL     1      10.959   0.668  -1.370 +0.02 -0.00    -0.648 OA
ATOM     47  O10 UNL     1       8.917  -0.180  -1.650 +0.15 -0.00    -0.775 OA
ATOM     48  O11 UNL     1       7.634   1.739   1.846 -0.22 -0.00    -0.247 OA
ATOM     49  O12 UNL     1       3.890   4.667   3.661 +0.04 -0.00    -0.650 OA
ATOM     50  O13 UNL     1       2.867   5.307   1.784 +2.53 -0.00    -0.776 OA
ATOM     51  O14 UNL     1       2.777  -0.359   2.158 -0.12 -0.00    -0.648 OA
ATOM     52  O15 UNL     1       3.551  -0.112   0.082 +1.22 -0.00    -0.775 OA
ATOM     53  N1  UNL     1      13.885   4.803   6.220 -0.08 -0.00    -0.357 N 
ATOM     54  N2  UNL     1       9.720   5.942   6.822 -0.16 -0.00    -0.230 NA
ATOM     55  N3  UNL     1       7.938   5.680   5.492 -0.03 -0.00    -0.333 N 
ATOM     56  N4  UNL     1      15.410   9.609   2.810 -0.22 -0.00    -0.249 N 
ATOM     57  N5  UNL     1      15.815  11.462   1.738 -0.26 -0.00    -0.286 N 
ATOM     58  H5  UNL     1      15.797  12.200   1.034 +0.15 +0.00    +0.184 HD
ATOM     59  N6  UNL     1      15.119  10.335   1.702 +1.19 -0.00    -0.015 NA
ATOM     60  N7  UNL     1      11.230   5.485   1.794 +0.77 -0.00    -0.357 N 
ATOM     61  N8  UNL     1       7.608   1.704  -0.451 -0.02 -0.00    -0.329 N 
ATOM     62  N9  UNL     1       5.767   1.091   0.696 -0.02 -0.00    -0.329 N 
ATOM     63  F1  UNL     1      20.971  13.384   2.404 +4.93 -0.00    -0.255 F 
ATOM     64  H41 UNL     1       9.553   9.417   7.570 +0.18 +0.00    +0.167 HD
ATOM     65  H42 UNL     1       7.251  10.790   2.421+20.25 +0.00    +0.209 HD
ATOM     66  H43 UNL     1       7.881   2.901   2.986 +0.05 +0.00    +0.167 HD
ATOM     67  H44 UNL     1       9.531  -0.860  -2.005 +0.12 +0.00    +0.167 HD
ATOM     68  H45 UNL     1       2.758   6.077   2.380 +0.02 +0.00    +0.167 HD
ATOM     69  H46 UNL     1       2.711  -0.609  -0.024 +0.13 +0.00    +0.167 HD
ATOM     70  H47 UNL     1      12.990   4.715   5.760 +0.10 +0.00    +0.162 HD
ATOM     71  H48 UNL     1       8.975   6.288   7.416 +0.09 +0.00    +0.133 HD
ATOM     72  H49 UNL     1       7.623   4.994   6.164 +0.09 +0.00    +0.164 HD
ATOM     73  H50 UNL     1      10.933   5.651   2.757 -0.05 +0.00    +0.162 HD
ATOM     74  H51 UNL     1       7.243   1.087  -1.166 +0.06 +0.00    +0.165 HD
ATOM     75  H52 UNL     1       5.322   1.067  -0.212 +0.04 +0.00    +0.165 HD
ENDROOT
TORSDOF 36
TER
