USER    Run = 1
USER    DPF = ligand_359_receptor.dpf
USER  
USER    Estimated Free Energy of Binding    =  +1.65e+005 kcal/mol  [=(1)+(2)+(3)-(4)]
USER    
USER    (1) Final Intermolecular Energy     =  +1.65e+005 kcal/mol
USER        vdW + Hbond + desolv Energy     =  +1.65e+005 kcal/mol
USER        Electrostatic Energy            =   +0.00 kcal/mol
USER    (2) Final Total Internal Energy     =   +0.00 kcal/mol
USER    (3) Torsional Free Energy           =   +1.19 kcal/mol
USER    (4) Unbound System's Energy  [=(2)] =   +0.00 kcal/mol
USER    
USER    
USER    NEWDPF move ligand_359.pdbqt
USER    NEWDPF about 0.000000 0.000000 0.000000
USER    NEWDPF tran0 17.352864 6.349174 3.579227
USER    NEWDPF quaternion0 -0.351355 -0.041738 -0.925832 -0.132827
USER    NEWDPF axisangle0 -0.354497 -0.042111 -0.934109 -164.734017
USER    NEWDPF quat0 -0.354497 -0.042111 -0.934109 -164.734017
USER  keepresnum = 1 
USER  
REMARK  0 active torsions:
REMARK  status: ('A' for Active; 'I' for Inactive)
REMARK       I    between atoms: C4_4  and  C5_5 
REMARK       I    between atoms: C5_5  and  N3_81 
REMARK       I    between atoms: C6_6  and  N3_81 
REMARK       I    between atoms: C8_8  and  C9_9 
REMARK       I    between atoms: C9_9  and  N6_85 
REMARK       I    between atoms: C10_10  and  N6_85 
REMARK       I    between atoms: C12_12  and  C14_14 
REMARK       I    between atoms: C14_14  and  N8_87 
REMARK       I    between atoms: C15_15  and  N8_87 
REMARK       I    between atoms: C17_17  and  C19_19 
REMARK       I    between atoms: C19_19  and  N10_89 
REMARK       I    between atoms: C20_20  and  C21_21 
REMARK       I    between atoms: C20_20  and  N10_89 
REMARK       I    between atoms: C21_21  and  C22_22 
REMARK       I    between atoms: C22_22  and  C23_23 
REMARK       I    between atoms: C23_23  and  N11_90 
REMARK       I    between atoms: C23_23  and  O14_118 
REMARK       I    between atoms: C24_24  and  N11_90 
REMARK       I    between atoms: C26_26  and  C27_27 
REMARK       I    between atoms: C27_27  and  N14_95 
REMARK       I    between atoms: C28_28  and  N14_95 
REMARK       I    between atoms: C30_30  and  C32_32 
REMARK       I    between atoms: C32_32  and  N16_97 
REMARK       I    between atoms: C33_33  and  N16_97 
REMARK       I    between atoms: C35_35  and  C37_37 
REMARK       I    between atoms: C37_37  and  N18_99 
REMARK       I    between atoms: C38_38  and  N18_99 
REMARK       I    between atoms: C40_40  and  C42_42 
REMARK       I    between atoms: C42_42  and  N20_101 
REMARK       I    between atoms: C43_43  and  C44_44 
REMARK       I    between atoms: C43_43  and  N20_101 
REMARK       I    between atoms: C44_44  and  C45_45 
REMARK       I    between atoms: C45_45  and  C46_46 
REMARK       I    between atoms: C46_46  and  C47_47 
REMARK       I    between atoms: C47_47  and  C48_48 
REMARK       I    between atoms: C48_48  and  C49_49 
REMARK       I    between atoms: C49_49  and  N21_102 
REMARK       I    between atoms: C50_50  and  N21_102 
REMARK       I    between atoms: C50_50  and  N22_104 
REMARK       I    between atoms: C50_50  and  S1_119 
REMARK       I    between atoms: C51_51  and  N22_104 
REMARK       I    between atoms: C53_53  and  C70_70 
REMARK       I    between atoms: C54_54  and  C57_57 
REMARK       I    between atoms: C68_68  and  O11_115 
REMARK       I    between atoms: C70_70  and  O13_117 
USER                              x       y       z     vdW  Elec       q    Type
USER                           _______ _______ _______ _____ _____    ______ ____
ROOT
ATOM      1  C1  UNL     1      16.358   2.826   6.117+99.99 +0.00    +0.157 C 
ATOM      2  C2  UNL     1      17.594   0.943   7.206 +3.10 +0.00    +0.109 A 
ATOM      3  C3  UNL     1      17.225  -0.029   8.105 +2.98 +0.00    +0.107 A 
ATOM      4  C4  UNL     1      15.456   1.150   7.768+99.99 +0.00    +0.176 A 
ATOM      5  C5  UNL     1      14.081   1.626   7.858+99.99 +0.00    +0.291 C 
ATOM      6  C6  UNL     1      12.017   1.071   9.018+23.62 +0.00    +0.125 A 
ATOM      7  C7  UNL     1      11.250   0.315   9.871+44.13 +0.00    +0.140 A 
ATOM      8  C8  UNL     1      10.074   1.989   9.013+99.99 +0.00    +0.178 A 
ATOM      9  C9  UNL     1       9.015   2.935   8.682 +0.08 +0.00    +0.290 C 
ATOM     10  C10 UNL     1       8.793   4.945   7.259 -0.41 +0.00    +0.053 A 
ATOM     11  C11 UNL     1       7.480   5.297   7.440 -0.36 +0.00    +0.120 A 
ATOM     12  C12 UNL     1       8.366   6.798   5.997+94.90 +0.00    +0.105 A 
ATOM     13  C13 UNL     1       9.351   5.887   6.363 -0.14 +0.00    +0.066 A 
ATOM     14  C14 UNL     1       8.452   7.924   5.075+99.99 +0.00    +0.273 C 
ATOM     15  C15 UNL     1      10.131   9.422   4.079 +0.97 +0.00    +0.053 A 
ATOM     16  C16 UNL     1      11.420   9.895   4.051+45.48 +0.00    +0.120 A 
ATOM     17  C17 UNL     1      10.269  11.048   2.482+99.99 +0.00    +0.104 A 
ATOM     18  C18 UNL     1       9.410  10.139   3.095+99.99 +0.00    +0.066 A 
ATOM     19  C19 UNL     1      10.021  12.004   1.410+99.99 +0.00    +0.268 C 
ATOM     20  C20 UNL     1       8.320  13.081  -0.002+99.99 +0.00    +0.123 C 
ATOM     21  C21 UNL     1       7.030  12.723  -0.735+99.99 +0.00    +0.027 C 
ATOM     22  C22 UNL     1       7.181  11.529  -1.678+99.99 +0.00    +0.085 C 
ATOM     23  C23 UNL     1       7.267  10.231  -0.926+99.99 +0.00    +0.116 C 
ATOM     24  C24 UNL     1       6.470   8.616   0.488 +2.37 +0.00    +0.124 A 
ATOM     25  C25 UNL     1       5.421   7.919   1.027 +9.11 +0.00    +0.140 A 
ATOM     26  C26 UNL     1       7.354   6.929   1.476 -0.25 +0.00    +0.178 A 
ATOM     27  C27 UNL     1       8.350   6.023   2.040 -0.11 +0.00    +0.290 C 
ATOM     28  C28 UNL     1      10.779   5.998   2.453 -0.21 +0.00    +0.053 A 
ATOM     29  C29 UNL     1      10.925   4.837   3.166 +2.08 +0.00    +0.120 A 
ATOM     30  C30 UNL     1      12.969   5.807   3.083+13.50 +0.00    +0.105 A 
ATOM     31  C31 UNL     1      12.061   6.594   2.379 -0.31 +0.00    +0.066 A 
ATOM     32  C32 UNL     1      14.398   6.003   3.318+24.46 +0.00    +0.273 C 
ATOM     33  C33 UNL     1      16.134   7.737   3.188 -0.30 +0.00    +0.053 A 
ATOM     34  C34 UNL     1      16.506   9.032   2.917 -0.42 +0.00    +0.120 A 
ATOM     35  C35 UNL     1      18.370   7.944   3.588 -0.40 +0.00    +0.105 A 
ATOM     36  C36 UNL     1      17.300   7.057   3.610 +0.70 +0.00    +0.066 A 
ATOM     37  C37 UNL     1      19.768   7.723   3.936 +1.44 +0.00    +0.273 C 
ATOM     38  C38 UNL     1      21.459   5.951   4.019+99.99 +0.00    +0.053 A 
ATOM     39  C39 UNL     1      21.830   4.642   3.814+99.99 +0.00    +0.120 A 
ATOM     40  C40 UNL     1      23.669   5.740   4.513+99.99 +0.00    +0.104 A 
ATOM     41  C41 UNL     1      22.615   6.640   4.448+99.99 +0.00    +0.066 A 
ATOM     42  C42 UNL     1      25.030   6.042   4.894+91.13 +0.00    +0.268 C 
ATOM     43  C43 UNL     1      26.769   5.622   6.541+15.21 +0.00    +0.123 C 
ATOM     44  C44 UNL     1      27.190   4.705   7.685+99.99 +0.00    +0.020 C 
ATOM     45  C45 UNL     1      27.941   3.436   7.270+99.99 +0.00    +0.002 C 
ATOM     46  C46 UNL     1      27.058   2.326   6.700+70.71 +0.00    +0.000 C 
ATOM     47  C47 UNL     1      27.058   2.214   5.175+99.99 +0.00    +0.002 C 
ATOM     48  C48 UNL     1      28.408   1.798   4.582+18.64 +0.00    +0.020 C 
ATOM     49  C49 UNL     1      28.269   1.268   3.153+99.99 +0.00    +0.121 C 
ATOM     50  C50 UNL     1      27.294   2.079   1.106+99.99 +0.00    +0.137 C 
ATOM     51  C51 UNL     1      26.619   4.378   0.323 -0.11 +0.00    +0.035 A 
ATOM     52  C52 UNL     1      26.082   5.060  -0.783 -0.39 +0.00    +0.048 A 
ATOM     53  C53 UNL     1      25.948   6.463  -0.804 -0.37 +0.00    +0.051 A 
ATOM     54  C54 UNL     1      26.339   7.214   0.316 -0.37 -0.00    -0.007 A 
ATOM     55  C55 UNL     1      26.856   6.534   1.429 +0.39 +0.00    +0.015 A 
ATOM     56  C56 UNL     1      26.986   5.139   1.431+13.90 +0.00    +0.030 A 
ATOM     57  C57 UNL     1      26.306   8.702   0.360 +0.10 +0.00    +0.001 A 
ATOM     58  C58 UNL     1      25.204   9.360   0.817 +1.37 +0.00    +0.010 A 
ATOM     59  C59 UNL     1      24.028   8.650   1.340 -0.43 +0.00    +0.019 A 
ATOM     60  C60 UNL     1      22.906   9.301   1.679 -0.40 +0.00    +0.056 A 
ATOM     61  C61 UNL     1      22.816  10.770   1.549+23.05 +0.00    +0.174 A 
ATOM     62  C62 UNL     1      24.035  11.492   1.133+99.99 +0.00    +0.092 A 
ATOM     63  C63 UNL     1      25.149  10.831   0.794+90.34 +0.00    +0.091 A 
ATOM     64  C64 UNL     1      27.366  10.917  -0.063+99.99 +0.00    +0.089 A 
ATOM     65  C65 UNL     1      27.451   9.525  -0.110+14.56 +0.00    +0.010 A 
ATOM     66  C66 UNL     1      28.637   8.953  -0.600 +7.21 +0.00    +0.018 A 
ATOM     67  C67 UNL     1      29.698   9.756  -1.028+15.19 +0.00    +0.037 A 
ATOM     68  C68 UNL     1      29.582  11.137  -0.971+88.09 +0.00    +0.068 A 
ATOM     69  C69 UNL     1      28.423  11.728  -0.490+99.99 +0.00    +0.074 A 
ATOM     70  C70 UNL     1      25.394   7.112  -2.023 +0.92 +0.00    +0.177 C 
ATOM     71  C71 UNL     1      23.947   3.330   3.852+21.90 +0.00    +0.156 C 
ATOM     72  C72 UNL     1      18.611  10.373   2.959 -0.24 +0.00    +0.156 C 
ATOM     73  C73 UNL     1      12.740   3.660   4.391+99.99 +0.00    +0.156 C 
ATOM     74  C74 UNL     1       5.283   5.830   2.388 -0.19 +0.00    +0.157 C 
ATOM     75  C75 UNL     1      12.703  11.632   2.818+99.99 +0.00    +0.156 C 
ATOM     76  C76 UNL     1       5.941   7.076   6.621 +7.73 +0.00    +0.156 C 
ATOM     77  C77 UNL     1       8.857   0.474  10.602 +2.92 +0.00    +0.157 C 
ATOM     78  N1  UNL     1      16.464   1.686   6.997+18.26 -0.00    -0.342 N 
ATOM     79  N2  UNL     1      15.904   0.101   8.448+31.49 -0.00    -0.346 N 
ATOM     80  H2  UNL     1      15.374  -0.487   9.092 +0.22 +0.00    +0.167 HD
ATOM     81  N3  UNL     1      13.334   0.853   8.723+34.88 -0.00    -0.305 N 
ATOM     82  N4  UNL     1      10.013   0.908   9.857+83.41 -0.00    -0.339 N 
ATOM     83  N5  UNL     1      11.288   2.093   8.493 +9.89 -0.00    -0.323 N 
ATOM     84  H5  UNL     1      11.612   2.798   7.832 +0.13 +0.00    +0.169 HD
ATOM     85  N6  UNL     1       9.488   3.893   7.808 -0.28 -0.00    -0.319 N 
ATOM     86  N7  UNL     1       7.223   6.405   6.671 +5.12 -0.00    -0.354 N 
ATOM     87  N8  UNL     1       9.734   8.416   4.935 +1.69 -0.00    -0.320 N 
ATOM     88  N9  UNL     1      11.497  10.880   3.102+35.38 -0.00    -0.354 N 
ATOM     89  N10 UNL     1       8.716  12.090   0.975+99.99 -0.00    -0.356 N 
ATOM     90  N11 UNL     1       6.289   9.814  -0.190+66.92 -0.00    -0.326 N 
ATOM     91  H11 UNL     1       5.421  10.345  -0.110+99.99 +0.00    +0.169 HD
ATOM     92  N12 UNL     1       5.991   6.843   1.643 -0.17 -0.00    -0.339 N 
ATOM     93  N13 UNL     1       7.666   7.996   0.746 -0.18 -0.00    -0.323 N 
ATOM     94  H13 UNL     1       8.595   8.290   0.443 +0.10 +0.00    +0.169 HD
ATOM     95  N14 UNL     1       9.628   6.535   1.917 -0.12 -0.00    -0.319 N 
ATOM     96  N15 UNL     1      12.236   4.728   3.552+44.32 -0.00    -0.354 N 
ATOM     97  N16 UNL     1      14.837   7.286   3.043 +1.61 -0.00    -0.320 N 
ATOM     98  N17 UNL     1      17.851   9.156   3.168 -0.22 -0.00    -0.354 N 
ATOM     99  N18 UNL     1      20.173   6.408   3.804+10.17 -0.00    -0.320 N 
ATOM    100  N19 UNL     1      23.173   4.530   4.083+99.99 -0.00    -0.354 N 
ATOM    101  N20 UNL     1      25.533   5.232   5.896 +8.06 -0.00    -0.356 N 
ATOM    102  N21 UNL     1      27.714   2.307   2.297+99.99 -0.00    -0.371 N 
ATOM    103  H21 UNL     1      27.657   3.259   2.660+31.82 +0.00    +0.161 HD
ATOM    104  N22 UNL     1      26.731   2.980   0.244+99.99 -0.00    -0.337 N 
ATOM    105  O1  UNL     1      13.676   2.595   7.224+17.15 -0.00    -0.264 OA
ATOM    106  O2  UNL     1       7.879   2.863   9.140 +1.06 -0.00    -0.264 OA
ATOM    107  O3  UNL     1       7.463   8.379   4.508+99.99 -0.00    -0.266 OA
ATOM    108  O4  UNL     1      10.907  12.702   0.921+28.13 -0.00    -0.266 OA
ATOM    109  O5  UNL     1       8.055   4.953   2.563 -0.08 -0.00    -0.264 OA
ATOM    110  O6  UNL     1      15.122   5.103   3.738+99.99 -0.00    -0.266 OA
ATOM    111  O7  UNL     1      20.503   8.643   4.281 +1.05 -0.00    -0.266 OA
ATOM    112  O8  UNL     1      25.662   6.984   4.427 -0.30 -0.00    -0.266 OA
ATOM    113  O9  UNL     1      21.772  11.371   1.775+21.70 -0.00    -0.288 OA
ATOM    114  O10 UNL     1      26.254  11.570   0.397+99.99 -0.00    -0.309 OA
ATOM    115  O11 UNL     1      30.640  11.883  -1.398+48.95 -0.00    -0.361 OA
ATOM    116  O12 UNL     1      24.791   8.163  -2.104 +7.40 -0.00    -0.646 OA
ATOM    117  O13 UNL     1      25.645   6.384  -3.129 +6.39 -0.00    -0.773 OA
ATOM    118  O14 UNL     1       8.441   9.596  -1.118+31.04 -0.00    -0.349 OA
ATOM    119  S1  UNL     1      27.362   0.492   0.331+99.99 -0.00    -0.107 SA
ATOM    120  H68 UNL     1      13.817   0.079   9.165 +0.04 +0.00    +0.170 HD
ATOM    121  H69 UNL     1      10.466   3.780   7.546 +0.12 +0.00    +0.169 HD
ATOM    122  H70 UNL     1      10.456   8.027   5.524 +0.10 +0.00    +0.169 HD
ATOM    123  H71 UNL     1       7.996  11.632   1.519+99.99 +0.00    +0.162 HD
ATOM    124  H72 UNL     1       9.695   7.449   1.483 +0.09 +0.00    +0.169 HD
ATOM    125  H73 UNL     1      14.165   7.971   2.735 -0.16 +0.00    +0.169 HD
ATOM    126  H74 UNL     1      19.508   5.736   3.455 +0.79 +0.00    +0.169 HD
ATOM    127  H75 UNL     1      24.840   4.741   6.445+18.15 +0.00    +0.162 HD
ATOM    128  H76 UNL     1      26.503   2.586  -0.660+19.94 +0.00    +0.168 HD
ATOM    129  H77 UNL     1      30.417  12.824  -1.297 +4.20 +0.00    +0.217 HD
ATOM    130  H78 UNL     1      25.266   6.933  -3.848 +3.49 +0.00    +0.167 HD
ATOM    131  H79 UNL     1       8.465   8.797  -0.556 -0.09 +0.00    +0.219 HD
ATOM    132  H80 UNL     1      28.462   0.050   0.951+23.30 +0.00    +0.110 HD
ENDROOT
TORSDOF 37
TER
