USER    Run = 1
USER    DPF = ligand_77_receptor.dpf
USER  
USER    Estimated Free Energy of Binding    =  +1.63e+004 kcal/mol  [=(1)+(2)+(3)-(4)]
USER    
USER    (1) Final Intermolecular Energy     =  +1.62e+004 kcal/mol
USER        vdW + Hbond + desolv Energy     =  +1.62e+004 kcal/mol
USER        Electrostatic Energy            =   +0.00 kcal/mol
USER    (2) Final Total Internal Energy     =   +0.00 kcal/mol
USER    (3) Torsional Free Energy           =   +1.19 kcal/mol
USER    (4) Unbound System's Energy  [=(2)] =   +0.00 kcal/mol
USER    
USER    
USER    NEWDPF move ligand_77.pdbqt
USER    NEWDPF about 0.000000 0.000000 0.000000
USER    NEWDPF tran0 15.975918 6.899424 4.598063
USER    NEWDPF quaternion0 -0.022348 0.989869 0.047111 0.132064
USER    NEWDPF axisangle0 -0.022545 0.998615 0.047528 164.822289
USER    NEWDPF quat0 -0.022545 0.998615 0.047528 164.822289
USER  keepresnum = 1 
USER  
REMARK  0 active torsions:
REMARK  status: ('A' for Active; 'I' for Inactive)
REMARK       I    between atoms: C2_2  and  C3_3 
REMARK       I    between atoms: C3_3  and  C5_5 
REMARK       I    between atoms: C5_5  and  C6_6 
REMARK       I    between atoms: C5_5  and  N3_84 
REMARK       I    between atoms: C6_6  and  C7_7 
REMARK       I    between atoms: C6_6  and  O5_71 
REMARK       I    between atoms: C7_7  and  C8_8 
REMARK       I    between atoms: C8_8  and  N1_82 
REMARK       I    between atoms: C12_12  and  C13_13 
REMARK       I    between atoms: C13_13  and  C14_14 
REMARK       I    between atoms: C13_13  and  O4_70 
REMARK       I    between atoms: C14_14  and  C16_16 
REMARK       I    between atoms: C16_16  and  N2_83 
REMARK       I    between atoms: C17_17  and  C19_19 
REMARK       I    between atoms: C17_17  and  N2_83 
REMARK       I    between atoms: C19_19  and  C20_20 
REMARK       I    between atoms: C19_19  and  O3_69 
REMARK       I    between atoms: C29_29  and  C30_30 
REMARK       I    between atoms: C29_29  and  N3_84 
REMARK       I    between atoms: C30_30  and  C31_31 
REMARK       I    between atoms: C30_30  and  N4_85 
REMARK       I    between atoms: C34_34  and  C35_35 
REMARK       I    between atoms: C34_34  and  N4_85 
REMARK       I    between atoms: C35_35  and  C36_36 
REMARK       I    between atoms: C35_35  and  N5_86 
REMARK       I    between atoms: C40_40  and  O9_75 
REMARK       I    between atoms: C40_40  and  N5_86 
REMARK       I    between atoms: C41_41  and  C42_42 
REMARK       I    between atoms: C41_41  and  O9_75 
REMARK       I    between atoms: C45_45  and  N6_87 
REMARK       I    between atoms: C48_48  and  C49_49 
REMARK       I    between atoms: C48_48  and  N6_87 
REMARK       I    between atoms: C49_49  and  C50_50 
REMARK       I    between atoms: C49_49  and  N9_90 
REMARK       I    between atoms: C50_50  and  C51_51 
REMARK       I    between atoms: C51_51  and  C52_52 
REMARK       I    between atoms: C52_52  and  N7_88 
REMARK       I    between atoms: C53_53  and  N7_88 
REMARK       I    between atoms: C53_53  and  N8_89 
REMARK       I    between atoms: C54_54  and  C55_55 
REMARK       I    between atoms: C54_54  and  N9_90 
REMARK       I    between atoms: C55_55  and  C56_56 
REMARK       I    between atoms: C55_55  and  N10_91 
REMARK       I    between atoms: C59_59  and  C60_60 
REMARK       I    between atoms: C59_59  and  N10_91 
REMARK       I    between atoms: C60_60  and  N12_93 
USER                              x       y       z     vdW  Elec       q    Type
USER                           _______ _______ _______ _____ _____    ______ ____
ROOT
ATOM      1  C1  UNL     1      20.079   4.345   3.173+99.99 +0.00    +0.005 C 
ATOM      2  C2  UNL     1      21.248   5.318   3.278+92.38 +0.00    +0.002 C 
ATOM      3  C3  UNL     1      21.290   6.239   4.516+99.99 +0.00    +0.006 C 
ATOM      4  C4  UNL     1      20.703   5.545   5.758+99.99 +0.00    +0.012 C 
ATOM      5  C5  UNL     1      20.761   7.711   4.414+99.99 +0.00    +0.119 C 
ATOM      6  C6  UNL     1      21.643   8.751   3.622 +1.19 +0.00    +0.152 C 
ATOM      7  C7  UNL     1      21.483   8.800   2.107 +0.71 +0.00    +0.137 C 
ATOM      8  C8  UNL     1      22.435   9.768   1.420 -0.20 +0.00    +0.222 C 
ATOM      9  C9  UNL     1      23.940  10.210  -0.440+29.84 +0.00    +0.126 C 
ATOM     10  C10 UNL     1      24.809   9.380  -1.371+76.93 +0.00    +0.022 C 
ATOM     11  C11 UNL     1      24.320   7.956  -1.158 -0.21 +0.00    +0.029 C 
ATOM     12  C12 UNL     1      23.827   7.909   0.297 -0.44 +0.00    +0.117 C 
ATOM     13  C13 UNL     1      24.908   7.365   1.293 -0.36 +0.00    +0.156 C 
ATOM     14  C14 UNL     1      26.022   8.375   1.694 -0.47 +0.00    +0.105 C 
ATOM     15  C15 UNL     1      25.792   9.072   3.036 -0.67 +0.00    +0.022 C 
ATOM     16  C16 UNL     1      27.379   7.676   1.684 -0.32 +0.00    +0.224 C 
ATOM     17  C17 UNL     1      29.027   6.533   0.229 -0.22 +0.00    +0.113 C 
ATOM     18  C18 UNL     1      29.614   6.808  -1.157 -0.21 +0.00    +0.035 C 
ATOM     19  C19 UNL     1      28.623   5.046   0.445 -0.12 +0.00    +0.173 C 
ATOM     20  C20 UNL     1      29.794   4.086   0.450 -0.23 -0.00    -0.028 A 
ATOM     21  C21 UNL     1      30.220   3.424  -0.712 -0.14 +0.00    +0.010 A 
ATOM     22  C22 UNL     1      31.309   2.553  -0.677 -0.16 +0.00    +0.001 A 
ATOM     23  C23 UNL     1      31.991   2.337   0.518 -0.22 +0.00    +0.000 A 
ATOM     24  C24 UNL     1      31.587   2.992   1.678 -0.29 +0.00    +0.001 A 
ATOM     25  C25 UNL     1      30.497   3.864   1.645 -0.15 +0.00    +0.010 A 
ATOM     26  C26 UNL     1      24.880   5.739   3.043+54.45 +0.00    +0.202 C 
ATOM     27  C27 UNL     1      22.325  10.679   4.870 +4.01 +0.00    +0.202 C 
ATOM     28  C28 UNL     1      18.641   8.592   5.371+50.99 +0.00    +0.153 C 
ATOM     29  C29 UNL     1      18.611   7.444   3.138 +1.16 +0.00    +0.243 C 
ATOM     30  C30 UNL     1      17.050   7.445   3.046 -0.36 +0.00    +0.180 C 
ATOM     31  C31 UNL     1      16.570   8.586   2.108 -0.57 +0.00    +0.009 C 
ATOM     32  C32 UNL     1      15.102   8.401   1.708 +2.39 +0.00    +0.012 C 
ATOM     33  C33 UNL     1      16.783   9.993   2.668 -0.54 +0.00    +0.012 C 
ATOM     34  C34 UNL     1      16.171   6.199   5.000+51.39 +0.00    +0.241 C 
ATOM     35  C35 UNL     1      15.261   6.239   6.255 +2.57 +0.00    +0.184 C 
ATOM     36  C36 UNL     1      13.777   5.847   5.989 -0.51 +0.00    +0.010 C 
ATOM     37  C37 UNL     1      13.228   6.226   4.611 -0.29 +0.00    +0.012 C 
ATOM     38  C38 UNL     1      13.589   4.334   6.184 -0.27 +0.00    +0.012 C 
ATOM     39  C39 UNL     1      15.778   7.194   8.507+53.60 +0.00    +0.156 C 
ATOM     40  C40 UNL     1      14.878   8.665   6.739+99.99 +0.00    +0.363 C 
ATOM     41  C41 UNL     1      14.060  10.756   7.481 +1.91 +0.00    +0.219 C 
ATOM     42  C42 UNL     1      12.580  10.540   7.672 +4.20 -0.00    -0.034 A 
ATOM     43  C43 UNL     1      12.022  10.523   8.956 +1.88 +0.00    +0.011 A 
ATOM     44  C44 UNL     1      10.661  10.251   9.141+33.49 +0.00    +0.030 A 
ATOM     45  C45 UNL     1       9.842   9.980   8.047+19.34 +0.00    +0.034 A 
ATOM     46  C46 UNL     1      10.396  10.005   6.761+29.00 +0.00    +0.030 A 
ATOM     47  C47 UNL     1      11.752  10.282   6.574+99.99 +0.00    +0.011 A 
ATOM     48  C48 UNL     1       7.704   9.516   9.289+32.25 +0.00    +0.245 C 
ATOM     49  C49 UNL     1       6.287   8.976   8.962 +3.10 +0.00    +0.177 C 
ATOM     50  C50 UNL     1       5.348   9.085  10.168+99.99 +0.00    +0.036 C 
ATOM     51  C51 UNL     1       3.901   8.630   9.924+99.99 +0.00    +0.022 C 
ATOM     52  C52 UNL     1       3.144   9.433   8.862 -0.08 +0.00    +0.124 C 
ATOM     53  C53 UNL     1       3.094   7.927   6.935 -0.18 +0.00    +0.291 C 
ATOM     54  C54 UNL     1       6.734   7.272   7.208+93.06 +0.00    +0.241 C 
ATOM     55  C55 UNL     1       7.026   5.774   6.966 -0.07 +0.00    +0.180 C 
ATOM     56  C56 UNL     1       7.548   5.496   5.537 -0.27 +0.00    +0.009 C 
ATOM     57  C57 UNL     1       8.959   6.073   5.349 +0.04 +0.00    +0.012 C 
ATOM     58  C58 UNL     1       7.592   3.999   5.204 -0.35 +0.00    +0.012 C 
ATOM     59  C59 UNL     1       5.678   3.904   7.943 +6.26 +0.00    +0.251 C 
ATOM     60  C60 UNL     1       4.205   3.311   8.010 +4.86 +0.00    +0.176 C 
ATOM     61  C61 UNL     1       3.147   4.205   8.734 +4.75 +0.00    +0.313 C 
ATOM     62  C62 UNL     1       3.915   2.330   9.194+99.99 +0.00    +0.313 C 
ATOM     63  C63 UNL     1       3.792   1.529   6.260 +1.08 +0.00    +0.251 C 
ATOM     64  C64 UNL     1       3.368   1.505   4.857 -0.29 +0.00    +0.080 C 
ATOM     65  C65 UNL     1       3.181   2.765   4.468 -0.17 +0.00    +0.080 C 
ATOM     66  C66 UNL     1       3.493   3.626   5.611 -0.17 +0.00    +0.251 C 
ATOM     67  O1  UNL     1      22.307  10.987   1.571+16.44 -0.00    -0.273 OA
ATOM     68  O2  UNL     1      27.992   7.362   2.700 +0.09 -0.00    -0.273 OA
ATOM     69  O3  UNL     1      27.636   4.662  -0.527 -0.18 -0.00    -0.389 OA
ATOM     70  O4  UNL     1      24.218   6.859   2.456 +1.95 -0.00    -0.388 OA
ATOM     71  O5  UNL     1      21.274  10.052   4.149 +6.39 -0.00    -0.388 OA
ATOM     72  O6  UNL     1      19.226   7.103   2.120+99.99 -0.00    -0.271 OA
ATOM     73  O7  UNL     1      16.668   5.140   4.615+99.99 -0.00    -0.271 OA
ATOM     74  O8  UNL     1      14.562   8.930   5.585 +0.82 -0.00    -0.238 OA
ATOM     75  O9  UNL     1      14.754   9.535   7.773+71.90 -0.00    -0.299 OA
ATOM     76  O10 UNL     1       8.058   9.772  10.436+11.95 -0.00    -0.271 OA
ATOM     77  O11 UNL     1       2.373   7.092   7.460 -0.16 -0.00    -0.254 OA
ATOM     78  O12 UNL     1       6.775   8.135   6.331+99.99 -0.00    -0.271 OA
ATOM     79  O13 UNL     1       6.691   3.382   8.411 +8.10 -0.00    -0.271 OA
ATOM     80  O14 UNL     1       4.129   0.531   6.869+99.99 -0.00    -0.268 OA
ATOM     81  O15 UNL     1       3.566   4.842   5.535 -0.10 -0.00    -0.268 OA
ATOM     82  N1  UNL     1      23.391   9.287   0.545 -0.19 -0.00    -0.345 N 
ATOM     83  N2  UNL     1      27.858   7.403   0.418 -0.13 -0.00    -0.354 N 
ATOM     84  N3  UNL     1      19.285   7.877   4.274 -0.04 -0.00    -0.347 N 
ATOM     85  N4  UNL     1      16.300   7.368   4.294 -0.16 -0.00    -0.346 N 
ATOM     86  N5  UNL     1      15.406   7.442   7.120+99.99 -0.00    -0.319 N 
ATOM     87  N6  UNL     1       8.480   9.646   8.144+99.99 -0.00    -0.325 N 
ATOM     88  N7  UNL     1       3.525   9.084   7.510 -0.18 -0.00    -0.348 N 
ATOM     89  N8  UNL     1       3.591   7.763   5.683 +0.42 -0.00    -0.254 NA
ATOM     90  N9  UNL     1       6.430   7.588   8.515 +1.70 -0.00    -0.346 N 
ATOM     91  N10 UNL     1       5.763   5.095   7.242 -0.24 -0.00    -0.345 N 
ATOM     92  N11 UNL     1       3.413   3.470   9.983+99.99 +0.00    +0.089 N 
ATOM     93  N12 UNL     1       3.749   2.821   6.677 -0.21 -0.00    -0.259 N 
ATOM     94  H91 UNL     1      27.547   3.695  -0.452 +0.10 +0.00    +0.210 HD
ATOM     95  H92 UNL     1      27.211   7.432  -0.358 +0.09 +0.00    +0.163 HD
ATOM     96  H93 UNL     1      15.666   8.130   4.529 +0.11 +0.00    +0.163 HD
ATOM     97  H94 UNL     1       8.013   9.415   7.267+99.99 +0.00    +0.169 HD
ATOM     98  H95 UNL     1       3.668   9.836   6.850 +0.08 +0.00    +0.163 HD
ATOM     99  H96 UNL     1       4.545   8.080   5.550 +3.23 +0.00    +0.128 HD
ATOM    100  H97 UNL     1       3.418   6.825   5.325 +0.05 +0.00    +0.128 HD
ATOM    101  H98 UNL     1       6.563   6.869   9.220 +2.37 +0.00    +0.163 HD
ATOM    102  H99 UNL     1       4.918   5.459   6.803 +0.07 +0.00    +0.163 HD
ATOM    103  HA0 UNL     1       2.592   3.274  10.555+99.99 +0.00    +0.316 HD
ENDROOT
TORSDOF 36
TER
