USER    Run = 1
USER    DPF = ligand_201_receptor.dpf
USER  
USER    Estimated Free Energy of Binding    =  +24.54 kcal/mol  [=(1)+(2)+(3)-(4)]
USER    
USER    (1) Final Intermolecular Energy     =  +23.35 kcal/mol
USER        vdW + Hbond + desolv Energy     =  +23.35 kcal/mol
USER        Electrostatic Energy            =   +0.00 kcal/mol
USER    (2) Final Total Internal Energy     =   -1.53 kcal/mol
USER    (3) Torsional Free Energy           =   +1.19 kcal/mol
USER    (4) Unbound System's Energy  [=(2)] =   -1.53 kcal/mol
USER    
USER    
USER    NEWDPF move ligand_201.pdbqt
USER    NEWDPF about 0.000000 0.000000 0.000000
USER    NEWDPF tran0 7.251320 8.017456 7.181453
USER    NEWDPF quaternion0 -0.568449 0.477515 -0.481314 -0.466027
USER    NEWDPF axisangle0 -0.642482 0.539705 -0.543999 -124.446551
USER    NEWDPF quat0 -0.642482 0.539705 -0.543999 -124.446551
USER    NEWDPF dihe0 113.79 169.65 -112.61 -100.27 179.23 -68.27 47.97 111.81 44.73 -117.96 -104.80 -95.82 -48.29 -151.93 
USER  keepresnum = 1 
USER  
REMARK  14 active torsions:
REMARK  status: ('A' for Active; 'I' for Inactive)
REMARK    1  A    between atoms: C5_5  and  C6_6 
REMARK    2  A    between atoms: C5_5  and  N2_56 
REMARK    3  A    between atoms: C8_8  and  N5_61 
REMARK    4  A    between atoms: C9_9  and  C10_10 
REMARK    5  A    between atoms: C11_11  and  C12_12 
REMARK       I    between atoms: C11_11  and  N5_61 
REMARK    6  A    between atoms: C17_17  and  C20_20 
REMARK    7  A    between atoms: C23_23  and  N9_67 
REMARK    8  A    between atoms: C24_24  and  N9_67 
REMARK    9  A    between atoms: C31_31  and  N1_55 
REMARK   10  A    between atoms: C34_34  and  N14_75 
REMARK   11  A    between atoms: C35_35  and  C36_36 
REMARK       I    between atoms: C35_35  and  N14_75 
REMARK   12  A    between atoms: C41_41  and  C44_44 
REMARK   13  A    between atoms: C47_47  and  N18_81 
REMARK   14  A    between atoms: C48_48  and  N18_81 
USER                              x       y       z     vdW  Elec       q    Type
USER                           _______ _______ _______ _____ _____    ______ ____
ROOT
ATOM      1  C1  UNL     1       9.119   6.009   7.371 +0.36 +0.00    +0.287 C 
ATOM      2  C2  UNL     1       7.798   6.559   7.952 +2.49 +0.00    +0.126 C 
ATOM      3  C3  UNL     1       6.898   5.666   5.791 -0.12 +0.00    +0.126 C 
ATOM      4  C4  UNL     1       8.087   6.447   5.187 +3.68 +0.00    +0.287 C 
ATOM      5  N1  UNL     1       6.615   6.039   7.203 -0.13 -0.00    -0.277 NA
ATOM      6  N2  UNL     1       9.344   6.335   5.951 +0.14 +0.00    +0.096 N 
ENDROOT
BRANCH   6   7
ATOM      7  C5  UNL     1      10.275   7.462   5.735 +0.41 +0.00    +0.330 C 
BRANCH   7   8
ATOM      8  C6  UNL     1      11.085   7.441   4.453 -0.35 +0.00    +0.056 A 
ATOM      9  C7  UNL     1      12.444   7.721   4.450 -0.37 +0.00    +0.060 A 
ATOM     10  C8  UNL     1      13.193   7.548   3.284 -0.36 +0.00    +0.070 A 
ATOM     11  C9  UNL     1      12.500   7.191   2.124 -0.01 +0.00    +0.159 A 
ATOM     12  N3  UNL     1      11.161   6.959   2.153 -0.20 -0.00    -0.294 N 
ATOM     13  N4  UNL     1      10.458   7.068   3.320 -0.17 -0.00    -0.303 N 
ATOM     14  H3  UNL     1      10.675   6.702   1.295 +0.10 +0.00    +0.187 HD
ATOM     15  H4  UNL     1       9.458   6.866   3.334 +0.11 +0.00    +0.186 HD
BRANCH  10  16
ATOM     16  N5  UNL     1      14.602   7.734   3.279 -0.22 -0.00    -0.320 N 
ATOM     17  C11 UNL     1      15.287   8.857   2.835 -0.21 +0.00    +0.272 C 
ATOM     18  O1  UNL     1      14.740   9.890   2.461 +0.78 -0.00    -0.266 OA
ATOM     19  H34 UNL     1      15.155   7.075   3.821 -0.08 +0.00    +0.169 HD
BRANCH  17  20
ATOM     20  C12 UNL     1      16.730   8.732   2.896 -0.45 +0.00    +0.102 A 
ATOM     21  C13 UNL     1      17.488   8.238   3.948 -0.51 +0.00    +0.049 A 
ATOM     22  C14 UNL     1      18.860   8.303   3.592 -0.46 -0.00    -0.007 A 
ATOM     23  C15 UNL     1      18.921   8.863   2.322 +0.40 +0.00    +0.044 A 
ATOM     24  C19 UNL     1      20.059   7.943   4.228 +6.05 +0.00    +0.014 A 
ATOM     25  C16 UNL     1      20.133   9.087   1.653 +5.50 +0.00    +0.045 A 
ATOM     26  N6  UNL     1      17.630   9.126   1.929 -0.18 -0.00    -0.351 N 
ATOM     27  C17 UNL     1      21.346   8.725   2.280 +1.17 +0.00    +0.010 A 
ATOM     28  C18 UNL     1      21.279   8.157   3.565 +4.54 +0.00    +0.016 A 
ATOM     29  H35 UNL     1      17.395   9.578   1.057 +0.13 +0.00    +0.166 HD
BRANCH  27  30
ATOM     30  C20 UNL     1      22.641   8.937   1.598 -0.35 +0.00    +0.117 A 
ATOM     31  N7  UNL     1      23.464   9.892   2.068 -0.03 -0.00    -0.351 N 
ATOM     32  C21 UNL     1      24.633  10.038   1.423 +0.10 +0.00    +0.093 A 
ATOM     33  H7  UNL     1      23.214  10.473   2.868 +0.16 +0.00    +0.166 HD
ATOM     34  C22 UNL     1      24.999   9.280   0.336 +3.55 +0.00    +0.065 A 
ATOM     35  C23 UNL     1      24.094   8.327  -0.089 -0.35 +0.00    +0.108 A 
ATOM     36  N8  UNL     1      22.922   8.152   0.541 -0.19 -0.00    -0.328 N 
ATOM     37  H8  UNL     1      22.260   7.442   0.227 +0.13 +0.00    +0.169 HD
BRANCH  35  38
ATOM     38  N9  UNL     1      24.446   7.525  -1.203 -0.21 -0.00    -0.342 N 
ATOM     39  H36 UNL     1      23.607   7.248  -1.700 +0.12 +0.00    +0.167 HD
BRANCH  38  40
ATOM     40  C24 UNL     1      25.446   6.522  -1.257 -0.42 +0.00    +0.034 A 
ATOM     41  C25 UNL     1      25.224   5.283  -1.881 -0.43 +0.00    +0.044 A 
ATOM     42  C26 UNL     1      26.239   4.309  -1.885 -0.38 +0.00    +0.011 A 
ATOM     43  C27 UNL     1      27.437   4.575  -1.238 -0.27 +0.00    +0.059 A 
ATOM     44  C30 UNL     1      26.397   3.006  -2.404 -0.29 +0.00    +0.120 A 
ATOM     45  C28 UNL     1      27.684   5.773  -0.565 -0.26 +0.00    +0.034 A 
ATOM     46  N10 UNL     1      28.201   3.452  -1.420 -0.12 -0.00    -0.300 N 
ATOM     47  C29 UNL     1      26.660   6.732  -0.582 -0.34 +0.00    +0.032 A 
ATOM     48  N11 UNL     1      27.598   2.486  -2.137 -0.13 -0.00    -0.311 N 
ATOM     49  H37 UNL     1      29.141   3.282  -1.079 +0.08 +0.00    +0.187 HD
ATOM     50  H11 UNL     1      27.969   1.576  -2.411 -0.25 +0.00    +0.186 HD
ENDBRANCH  38  40
ENDBRANCH  35  38
ENDBRANCH  27  30
ENDBRANCH  17  20
ENDBRANCH  10  16
BRANCH  11  51
ATOM     51  C10 UNL     1      13.171   6.988   0.790 +0.90 +0.00    +0.436 C 
ATOM     52  F1  UNL     1      14.386   7.595   0.692 +0.77 -0.00    -0.165 F 
ATOM     53  F2  UNL     1      12.429   7.449  -0.255 +0.30 -0.00    -0.165 F 
ATOM     54  F3  UNL     1      13.409   5.667   0.503 +0.88 -0.00    -0.165 F 
ENDBRANCH  11  51
ENDBRANCH   7   8
ENDBRANCH   6   7
BRANCH   5  55
ATOM     55  C31 UNL     1       5.494   6.892   7.406 -0.06 +0.00    +0.056 A 
ATOM     56  C32 UNL     1       5.446   7.933   8.328 +1.76 +0.00    +0.133 A 
ATOM     57  N12 UNL     1       4.346   8.686   8.548 +0.98 -0.00    -0.310 N 
ATOM     58  N13 UNL     1       3.215   8.437   7.840 -0.15 -0.00    -0.310 N 
ATOM     59  H12 UNL     1       4.365   9.436   9.239 +0.13 +0.00    +0.186 HD
ATOM     60  C33 UNL     1       3.209   7.445   6.923 -0.22 +0.00    +0.138 A 
ATOM     61  H13 UNL     1       2.376   8.994   8.000 +0.07 +0.00    +0.186 HD
ATOM     62  C34 UNL     1       4.318   6.653   6.673 -0.23 +0.00    +0.075 A 
BRANCH  62  63
ATOM     63  N14 UNL     1       4.387   5.628   5.703 -0.10 -0.00    -0.319 N 
ATOM     64  C35 UNL     1       4.476   4.270   5.916 -0.23 +0.00    +0.272 C 
ATOM     65  O2  UNL     1       4.583   3.755   7.022 -0.86 -0.00    -0.266 OA
ATOM     66  H38 UNL     1       4.447   5.998   4.762 +0.07 +0.00    +0.169 HD
BRANCH  64  67
ATOM     67  C36 UNL     1       4.465   3.480   4.698 -0.18 +0.00    +0.102 A 
ATOM     68  C37 UNL     1       4.061   2.162   4.551 -0.25 +0.00    +0.049 A 
ATOM     69  C38 UNL     1       4.216   1.786   3.191 -0.22 -0.00    -0.007 A 
ATOM     70  C39 UNL     1       4.693   2.901   2.514 -0.11 +0.00    +0.044 A 
ATOM     71  C43 UNL     1       3.990   0.604   2.469 -0.23 +0.00    +0.014 A 
ATOM     72  C40 UNL     1       4.956   2.894   1.135 -0.09 +0.00    +0.045 A 
ATOM     73  N15 UNL     1       4.819   3.914   3.437 -0.02 -0.00    -0.351 N 
ATOM     74  C41 UNL     1       4.737   1.711   0.397 -0.14 +0.00    +0.010 A 
ATOM     75  C42 UNL     1       4.255   0.584   1.090 +0.35 +0.00    +0.016 A 
ATOM     76  H39 UNL     1       5.099   4.855   3.203 +0.06 +0.00    +0.166 HD
BRANCH  74  77
ATOM     77  C44 UNL     1       5.005   1.660  -1.058 -0.08 +0.00    +0.117 A 
ATOM     78  N16 UNL     1       4.069   1.107  -1.852 -0.05 -0.00    -0.351 N 
ATOM     79  C45 UNL     1       4.339   1.085  -3.167 -0.05 +0.00    +0.093 A 
ATOM     80  H16 UNL     1       3.201   0.724  -1.475 +0.02 +0.00    +0.166 HD
ATOM     81  C46 UNL     1       5.500   1.576  -3.707 -0.07 +0.00    +0.065 A 
ATOM     82  C47 UNL     1       6.416   2.106  -2.822 -0.08 +0.00    +0.108 A 
ATOM     83  N17 UNL     1       6.172   2.171  -1.502 -0.01 -0.00    -0.328 N 
ATOM     84  H17 UNL     1       6.844   2.590  -0.861 +0.06 +0.00    +0.169 HD
BRANCH  82  85
ATOM     85  N18 UNL     1       7.625   2.666  -3.250 -0.06 -0.00    -0.342 N 
ATOM     86  H40 UNL     1       7.695   2.533  -4.256 +0.03 +0.00    +0.167 HD
BRANCH  85  87
ATOM     87  C48 UNL     1       8.306   3.824  -2.822 -0.15 +0.00    +0.034 A 
ATOM     88  C49 UNL     1       8.743   4.827  -3.703 -0.19 +0.00    +0.044 A 
ATOM     89  C50 UNL     1       9.408   5.959  -3.194 -0.23 +0.00    +0.011 A 
ATOM     90  C51 UNL     1       9.620   6.065  -1.825 -0.20 +0.00    +0.059 A 
ATOM     91  C54 UNL     1       9.983   7.131  -3.732 -0.23 +0.00    +0.120 A 
ATOM     92  C52 UNL     1       9.205   5.091  -0.916 -0.15 +0.00    +0.034 A 
ATOM     93  N19 UNL     1      10.276   7.256  -1.653 -0.17 -0.00    -0.300 N 
ATOM     94  C53 UNL     1       8.548   3.973  -1.447 -0.12 +0.00    +0.032 A 
ATOM     95  N20 UNL     1      10.510   7.924  -2.796 -0.20 -0.00    -0.311 N 
ATOM     96  H41 UNL     1      10.593   7.667  -0.782 +0.06 +0.00    +0.187 HD
ATOM     97  H20 UNL     1      10.979   8.823  -2.919 -0.08 +0.00    +0.186 HD
ENDBRANCH  85  87
ENDBRANCH  82  85
ENDBRANCH  74  77
ENDBRANCH  64  67
ENDBRANCH  62  63
ENDBRANCH   5  55
TORSDOF 14
TER
