USER    Run = 1
USER    DPF = ligand_486_receptor.dpf
USER  
USER    Estimated Free Energy of Binding    =  +89.07 kcal/mol  [=(1)+(2)+(3)-(4)]
USER    
USER    (1) Final Intermolecular Energy     =  +87.87 kcal/mol
USER        vdW + Hbond + desolv Energy     =  +87.87 kcal/mol
USER        Electrostatic Energy            =   +0.00 kcal/mol
USER    (2) Final Total Internal Energy     =   -3.60 kcal/mol
USER    (3) Torsional Free Energy           =   +1.19 kcal/mol
USER    (4) Unbound System's Energy  [=(2)] =   -3.60 kcal/mol
USER    
USER    
USER    NEWDPF move ligand_486.pdbqt
USER    NEWDPF about 0.000000 0.000000 0.000000
USER    NEWDPF tran0 15.056312 8.877369 5.532809
USER    NEWDPF quaternion0 0.234002 0.046036 0.302370 -0.922874
USER    NEWDPF axisangle0 0.607635 0.119543 0.785168 -45.300198
USER    NEWDPF quat0 0.607635 0.119543 0.785168 -45.300198
USER    NEWDPF dihe0 -11.09 159.01 180.00 -129.65 87.60 107.12 179.26 -167.34 -123.70 -153.14 170.15 -29.49 -167.29 -69.42 38.51 81.07 -52.20 50.87 
USER  keepresnum = 1 
USER  
REMARK  18 active torsions:
REMARK  status: ('A' for Active; 'I' for Inactive)
REMARK    1  A    between atoms: C5_5  and  S1_47 
REMARK    2  A    between atoms: C7_7  and  C8_8 
REMARK    3  A    between atoms: C7_7  and  S1_47 
REMARK    4  A    between atoms: C8_8  and  C30_30 
REMARK    5  A    between atoms: C11_11  and  N6_39 
REMARK    6  A    between atoms: C13_13  and  C14_14 
REMARK       I    between atoms: C13_13  and  N6_39 
REMARK    7  A    between atoms: C14_14  and  C26_26 
REMARK    8  A    between atoms: C15_15  and  C18_18 
REMARK    9  A    between atoms: C15_15  and  O3_52 
REMARK       I    between atoms: C18_18  and  N8_42 
REMARK   10  A    between atoms: C19_19  and  C20_20 
REMARK       I    between atoms: C19_19  and  N9_43 
REMARK   11  A    between atoms: C22_22  and  O7_56 
REMARK   12  A    between atoms: C23_23  and  O6_55 
REMARK   13  A    between atoms: C28_28  and  N11_46 
REMARK   14  A    between atoms: C30_30  and  O9_58 
REMARK   15  A    between atoms: C31_31  and  N2_35 
REMARK   16  A    between atoms: C31_31  and  O10_59 
REMARK   17  A    between atoms: N7_40  and  O3_52 
REMARK   18  A    between atoms: N8_42  and  N9_43 
USER                              x       y       z     vdW  Elec       q    Type
USER                           _______ _______ _______ _____ _____    ______ ____
ROOT
ATOM      1  C13 UNL     1      17.404   7.704   1.894 +0.11 +0.00    +0.273 C 
ATOM      2  N6  UNL     1      16.648   8.747   2.386 -0.24 -0.00    -0.340 N 
ATOM      3  O2  UNL     1      17.171   7.067   0.879 +1.75 -0.00    -0.266 OA
ATOM      4  H29 UNL     1      16.953   9.123   3.290 +0.13 +0.00    +0.163 HD
ENDROOT
BRANCH   1   5
ATOM      5  C14 UNL     1      18.613   7.372   2.757 +5.10 +0.00    +0.149 C 
ATOM      6  N7  UNL     1      19.430   8.279   3.217 +0.00 -0.00    -0.258 N 
ATOM      7  H7  UNL     1      20.255   8.069   3.779 +0.14 +0.00    +0.194 HD
BRANCH   5   8
ATOM      8  C26 UNL     1      18.819   5.997   3.200+19.58 +0.00    +0.074 A 
ATOM      9  C27 UNL     1      17.988   4.933   2.898+13.09 +0.00    +0.084 A 
ATOM     10  S2  UNL     1      18.658   3.474   3.494 +6.66 -0.00    -0.070 SA
ATOM     11  C28 UNL     1      20.001   4.349   4.108+12.61 +0.00    +0.121 A 
ATOM     12  N10 UNL     1      19.968   5.641   3.902+10.25 -0.00    -0.339 N 
ATOM     13  H10 UNL     1      20.685   6.297   4.213 +1.07 +0.00    +0.167 HD
BRANCH  11  14
ATOM     14  N11 UNL     1      21.034   3.725   4.701 +1.47 -0.00    -0.283 NA
ATOM     15  H32 UNL     1      21.934   3.846   4.247 +0.22 +0.00    +0.126 HD
ATOM     16  H33 UNL     1      21.105   3.893   5.701 +0.15 +0.00    +0.126 HD
ENDBRANCH  11  14
ENDBRANCH   5   8
BRANCH   6  17
ATOM     17  O3  UNL     1      19.041   9.579   2.851 -0.31 -0.00    -0.259 OA
BRANCH  17  18
ATOM     18  C15 UNL     1      20.076  10.197   2.062 -0.40 +0.00    +0.163 C 
ATOM     19  C16 UNL     1      20.299  11.593   2.653 +0.95 +0.00    +0.059 C 
ATOM     20  C17 UNL     1      19.617  10.324   0.607 -0.50 +0.00    +0.059 C 
BRANCH  18  21
ATOM     21  C18 UNL     1      21.391   9.388   2.170 -0.21 +0.00    +0.272 C 
ATOM     22  N8  UNL     1      22.137   9.363   0.994 -0.25 -0.00    -0.265 N 
ATOM     23  H30 UNL     1      21.916  10.089   0.309 +0.15 +0.00    +0.190 HD
ATOM     24  O4  UNL     1      21.778   8.812   3.188 -0.30 -0.00    -0.268 OA
BRANCH  22  25
ATOM     25  N9  UNL     1      23.531   9.147   1.166 -0.24 -0.00    -0.263 N 
ATOM     26  C19 UNL     1      23.922   7.821   1.272 -0.29 +0.00    +0.270 C 
ATOM     27  O5  UNL     1      23.119   6.919   1.511 -0.10 -0.00    -0.266 OA
ATOM     28  H31 UNL     1      24.107   9.809   0.645 +0.16 +0.00    +0.190 HD
BRANCH  26  29
ATOM     29  C20 UNL     1      25.356   7.508   1.023 -0.38 +0.00    +0.036 A 
ATOM     30  C21 UNL     1      26.275   7.809   2.037 -0.45 +0.00    +0.056 A 
ATOM     31  C22 UNL     1      27.615   7.499   1.858 -0.21 +0.00    +0.099 A 
ATOM     32  C23 UNL     1      28.060   6.914   0.675 -0.25 +0.00    +0.098 A 
ATOM     33  C24 UNL     1      27.164   6.630  -0.349 -0.31 +0.00    +0.040 A 
ATOM     34  C25 UNL     1      25.807   6.929  -0.176 -0.38 +0.00    +0.020 A 
BRANCH  31  35
ATOM     35  O7  UNL     1      28.501   7.769   2.862 -0.31 -0.00    -0.358 OA
ATOM     36  H35 UNL     1      29.326   7.318   2.588 +0.09 +0.00    +0.217 HD
ENDBRANCH  31  35
BRANCH  32  37
ATOM     37  O6  UNL     1      29.394   6.639   0.569 -0.10 -0.00    -0.358 OA
ATOM     38  H34 UNL     1      29.879   7.212   1.189 +0.11 +0.00    +0.217 HD
ENDBRANCH  32  37
ENDBRANCH  26  29
ENDBRANCH  22  25
ENDBRANCH  18  21
ENDBRANCH  17  18
ENDBRANCH   6  17
ENDBRANCH   1   5
BRANCH   2  39
ATOM     39  C11 UNL     1      15.220   8.921   1.994 +2.08 +0.00    +0.199 C 
ATOM     40  C10 UNL     1      14.221   8.393   3.066 +0.16 +0.00    +0.159 C 
ATOM     41  N5  UNL     1      13.968   7.240   2.199 +3.01 -0.00    -0.234 NA
ATOM     42  S3  UNL     1      12.688   9.346   3.261 +5.64 -0.00    -0.145 SA
ATOM     43  C9  UNL     1      12.692   6.579   2.063 -0.08 +0.00    +0.121 C 
ATOM     44  C12 UNL     1      14.610   7.776   1.116 +7.51 +0.00    +0.226 C 
ATOM     45  C8  UNL     1      11.941   6.526   3.401 -0.34 +0.00    +0.075 C 
ATOM     46  C29 UNL     1      11.640   7.972   3.901 -0.40 +0.00    +0.098 C 
ATOM     47  O1  UNL     1      14.573   7.449  -0.046 -0.10 -0.00    -0.277 OA
BRANCH  45  48
ATOM     48  C7  UNL     1      12.704   5.743   4.506 +0.61 +0.00    +0.103 C 
BRANCH  48  49
ATOM     49  S1  UNL     1      12.014   4.147   5.097 +0.23 -0.00    -0.109 SA
BRANCH  49  50
ATOM     50  C5  UNL     1      11.234   4.647   6.586 -0.35 +0.00    +0.093 A 
ATOM     51  C6  UNL     1      12.042   4.927   7.631 -0.43 +0.00    +0.063 A 
ATOM     52  C2  UNL     1      11.377   5.263   8.943 -0.13 +0.00    +0.009 A 
ATOM     53  C1  UNL     1      12.291   5.565  10.106 +1.70 +0.00    +0.068 C 
ATOM     54  N1  UNL     1      10.091   5.295   9.164 +1.09 -0.00    -0.344 N 
ATOM     55  C3  UNL     1       9.358   5.008   8.050 -0.31 +0.00    +0.142 A 
ATOM     56  H1  UNL     1       9.679   5.511  10.072 +0.65 +0.00    +0.167 HD
ATOM     57  C4  UNL     1       8.032   4.828   7.987 -0.34 +0.00    +0.159 A 
ATOM     58  N4  UNL     1       9.871   4.760   6.787 -0.22 -0.00    -0.235 N 
ATOM     59  N2  UNL     1       7.629   4.493   6.695 -0.26 -0.00    -0.274 N 
ATOM     60  N3  UNL     1       8.840   4.407   5.888 -0.27 -0.00    -0.136 NA
ATOM     61  H28 UNL     1       8.795   5.134   5.166 +0.11 +0.00    +0.173 HD
BRANCH  59  62
ATOM     62  C31 UNL     1       6.538   3.574   6.378 +0.81 +0.00    +0.233 C 
ATOM     63  C32 UNL     1       5.940   3.802   5.000 -0.26 +0.00    +0.064 C 
BRANCH  62  64
ATOM     64  O10 UNL     1       5.536   3.719   7.368 -0.64 -0.00    -0.376 OA
ATOM     65  H37 UNL     1       4.727   3.499   6.867 +0.07 +0.00    +0.212 HD
ENDBRANCH  62  64
ENDBRANCH  59  62
ENDBRANCH  49  50
ENDBRANCH  48  49
ENDBRANCH  45  48
BRANCH  45  66
ATOM     66  C30 UNL     1      10.602   5.853   3.155 -0.22 +0.00    +0.151 C 
ATOM     67  O8  UNL     1       9.723   5.664   3.979 +0.06 -0.00    -0.649 OA
BRANCH  66  68
ATOM     68  O9  UNL     1      10.427   5.446   1.881 +0.20 -0.00    -0.776 OA
ATOM     69  H36 UNL     1      11.223   4.897   1.690 -0.27 +0.00    +0.167 HD
ENDBRANCH  66  68
ENDBRANCH  45  66
ENDBRANCH   2  39
TORSDOF 18
TER
