USER    Run = 1
USER    DPF = ligand_514_receptor.dpf
USER  
USER    Estimated Free Energy of Binding    =  +4.83e+006 kcal/mol  [=(1)+(2)+(3)-(4)]
USER    
USER    (1) Final Intermolecular Energy     =  +4.83e+006 kcal/mol
USER        vdW + Hbond + desolv Energy     =  +2.47e+006 kcal/mol
USER        Electrostatic Energy            =  +2.36e+006 kcal/mol
USER    (2) Final Total Internal Energy     =   +0.00 kcal/mol
USER    (3) Torsional Free Energy           =   +1.19 kcal/mol
USER    (4) Unbound System's Energy  [=(2)] =   +0.00 kcal/mol
USER    
USER    
USER    NEWDPF move ligand_514.pdbqt
USER    NEWDPF about 0.000000 0.000000 0.000000
USER    NEWDPF tran0 16.286182 7.164778 2.052903
USER    NEWDPF quaternion0 -0.310688 -0.198884 -0.060222 0.927519
USER    NEWDPF axisangle0 -0.831214 -0.532095 -0.161117 43.897331
USER    NEWDPF quat0 -0.831214 -0.532095 -0.161117 43.897331
USER  keepresnum = 1 
USER  
REMARK  0 active torsions:
REMARK  status: ('A' for Active; 'I' for Inactive)
REMARK       I    between atoms: C2_2  and  C3_3 
REMARK       I    between atoms: C2_2  and  O15_81 
REMARK       I    between atoms: C3_3  and  C4_4 
REMARK       I    between atoms: C3_3  and  N6_87 
REMARK       I    between atoms: C4_4  and  N1_82 
REMARK       I    between atoms: C5_5  and  C6_6 
REMARK       I    between atoms: C5_5  and  C10_10 
REMARK       I    between atoms: C5_5  and  N1_82 
REMARK       I    between atoms: C6_6  and  C7_7 
REMARK       I    between atoms: C7_7  and  C8_8 
REMARK       I    between atoms: C8_8  and  C9_9 
REMARK       I    between atoms: C9_9  and  N2_83 
REMARK       I    between atoms: C10_10  and  N3_84 
REMARK       I    between atoms: C11_11  and  C12_12 
REMARK       I    between atoms: C11_11  and  C15_15 
REMARK       I    between atoms: C11_11  and  N3_84 
REMARK       I    between atoms: C15_15  and  N4_85 
REMARK       I    between atoms: C16_16  and  C17_17 
REMARK       I    between atoms: C16_16  and  C21_21 
REMARK       I    between atoms: C16_16  and  N4_85 
REMARK       I    between atoms: C17_17  and  C18_18 
REMARK       I    between atoms: C21_21  and  N5_86 
REMARK       I    between atoms: C22_22  and  C23_23 
REMARK       I    between atoms: C22_22  and  C26_26 
REMARK       I    between atoms: C22_22  and  N5_86 
REMARK       I    between atoms: C26_26  and  O6_72 
REMARK       I    between atoms: C27_27  and  C28_28 
REMARK       I    between atoms: C27_27  and  N6_87 
REMARK       I    between atoms: C28_28  and  N7_88 
REMARK       I    between atoms: C30_30  and  C31_31 
REMARK       I    between atoms: C30_30  and  N7_88 
REMARK       I    between atoms: C31_31  and  N8_89 
REMARK       I    between atoms: C33_33  and  C34_34 
REMARK       I    between atoms: C33_33  and  N8_89 
REMARK       I    between atoms: C34_34  and  C35_35 
REMARK       I    between atoms: C34_34  and  N9_90 
REMARK       I    between atoms: C38_38  and  C39_39 
REMARK       I    between atoms: C38_38  and  N9_90 
REMARK       I    between atoms: C39_39  and  C40_40 
REMARK       I    between atoms: C39_39  and  N10_91 
REMARK       I    between atoms: C43_43  and  C44_44 
REMARK       I    between atoms: C43_43  and  N10_91 
REMARK       I    between atoms: C44_44  and  C45_45 
REMARK       I    between atoms: C44_44  and  N12_93 
REMARK       I    between atoms: C45_45  and  C46_46 
REMARK       I    between atoms: C46_46  and  C47_47 
REMARK       I    between atoms: C47_47  and  C48_48 
REMARK       I    between atoms: C48_48  and  N11_92 
REMARK       I    between atoms: C49_49  and  C50_50 
REMARK       I    between atoms: C49_49  and  N12_93 
REMARK       I    between atoms: C50_50  and  C51_51 
REMARK       I    between atoms: C50_50  and  N14_95 
REMARK       I    between atoms: C51_51  and  C52_52 
REMARK       I    between atoms: C52_52  and  C53_53 
REMARK       I    between atoms: C53_53  and  C54_54 
REMARK       I    between atoms: C54_54  and  N13_94 
REMARK       I    between atoms: C55_55  and  C56_56 
REMARK       I    between atoms: C55_55  and  N14_95 
REMARK       I    between atoms: C56_56  and  C57_57 
REMARK       I    between atoms: C56_56  and  N16_97 
REMARK       I    between atoms: C57_57  and  C58_58 
REMARK       I    between atoms: C58_58  and  C59_59 
REMARK       I    between atoms: C59_59  and  C60_60 
REMARK       I    between atoms: C60_60  and  N15_96 
REMARK       I    between atoms: C61_61  and  C62_62 
REMARK       I    between atoms: C61_61  and  N16_97 
REMARK       I    between atoms: C62_62  and  C63_63 
REMARK       I    between atoms: C62_62  and  N18_99 
REMARK       I    between atoms: C63_63  and  C64_64 
REMARK       I    between atoms: C64_64  and  C65_65 
REMARK       I    between atoms: C65_65  and  C66_66 
REMARK       I    between atoms: C66_66  and  N17_98 
USER                              x       y       z     vdW  Elec       q    Type
USER                           _______ _______ _______ _____ _____    ______ ____
ROOT
ATOM      1  C1  UNL     1      21.617  12.335   2.913+99.99 +0.00    +0.042 C 
ATOM      2  C2  UNL     1      22.588  11.268   3.412+16.85 +0.00    +0.146 C 
ATOM      3  C3  UNL     1      22.562  10.020   2.511 +0.00 +0.00    +0.205 C 
ATOM      4  C4  UNL     1      23.882   9.233   2.637 -0.38 +0.00    +0.243 C 
ATOM      5  C5  UNL     1      26.178   9.034   1.719 -0.39 +0.00    +0.176 C 
ATOM      6  C6  UNL     1      26.021   7.770   0.842 -0.45 +0.00    +0.035 C 
ATOM      7  C7  UNL     1      24.927   7.804  -0.237 -0.46 +0.00    +0.004 C 
ATOM      8  C8  UNL     1      25.137   8.855  -1.328+49.26 +0.00    +0.030 C 
ATOM      9  C9  UNL     1      23.898   9.048  -2.207+20.69 +0.00    +0.267 C 
ATOM     10  C10 UNL     1      27.224  10.023   1.159+24.02 +0.00    +0.241 C 
ATOM     11  C11 UNL     1      29.541  10.280   0.396+34.41 +0.00    +0.180 C 
ATOM     12  C12 UNL     1      30.955  10.166   1.005+16.04 +0.00    +0.009 C 
ATOM     13  C13 UNL     1      31.027  10.892   2.352+99.99 +0.00    +0.012 C 
ATOM     14  C14 UNL     1      31.439   8.721   1.166 -0.21 +0.00    +0.012 C 
ATOM     15  C15 UNL     1      29.510   9.739  -1.052+36.89 +0.00    +0.241 C 
ATOM     16  C16 UNL     1      30.017  10.276  -3.416+14.79 +0.00    +0.177 C 
ATOM     17  C17 UNL     1      28.633  10.570  -4.022+13.13 +0.00    +0.038 C 
ATOM     18  C18 UNL     1      27.985  11.921  -3.645+20.00 -0.00    -0.020 C 
ATOM     19  C19 UNL     1      26.584  12.005  -4.262+44.13 +0.00    +0.009 C 
ATOM     20  C20 UNL     1      28.806  13.133  -4.083+99.99 +0.00    +0.009 C 
ATOM     21  C21 UNL     1      31.175  10.959  -4.180+99.99 +0.00    +0.241 C 
ATOM     22  C22 UNL     1      33.564  11.583  -3.993+99.99+99.99    +0.185 C 
ATOM     23  C23 UNL     1      34.378  12.526  -3.081+99.99+99.99    +0.010 C 
ATOM     24  C24 UNL     1      33.689  13.888  -2.956+99.99+99.99    +0.012 C 
ATOM     25  C25 UNL     1      34.644  11.949  -1.686+99.99+99.99    +0.012 C 
ATOM     26  C26 UNL     1      34.354  10.311  -4.314+99.99+99.99    +0.163 C 
ATOM     27  C27 UNL     1      20.944   8.271   1.899+44.81 +0.00    +0.240 C 
ATOM     28  C28 UNL     1      20.075   7.123   2.452+99.99 +0.00    +0.172 C 
ATOM     29  C29 UNL     1      20.962   6.012   2.995+99.99 +0.00    +0.042 C 
ATOM     30  C30 UNL     1      18.010   7.195   1.115+83.95 +0.00    +0.240 C 
ATOM     31  C31 UNL     1      17.381   6.799  -0.235+99.99 +0.00    +0.172 C 
ATOM     32  C32 UNL     1      18.020   7.610  -1.356+47.57 +0.00    +0.042 C 
ATOM     33  C33 UNL     1      15.076   6.056   0.201+99.99 +0.00    +0.241 C 
ATOM     34  C34 UNL     1      13.612   6.498   0.427 +5.46 +0.00    +0.180 C 
ATOM     35  C35 UNL     1      13.331   7.113   1.818 +1.73 +0.00    +0.009 C 
ATOM     36  C36 UNL     1      13.886   6.270   2.971 +9.94 +0.00    +0.012 C 
ATOM     37  C37 UNL     1      13.822   8.556   1.936+99.99 +0.00    +0.012 C 
ATOM     38  C38 UNL     1      11.475   5.363  -0.162 -0.13 +0.00    +0.241 C 
ATOM     39  C39 UNL     1      10.777   3.994  -0.304 +1.55 +0.00    +0.180 C 
ATOM     40  C40 UNL     1      10.810   3.494  -1.765 +0.63 +0.00    +0.009 C 
ATOM     41  C41 UNL     1      12.240   3.263  -2.263+99.99 +0.00    +0.012 C 
ATOM     42  C42 UNL     1      10.014   2.192  -1.918 -0.25 +0.00    +0.012 C 
ATOM     43  C43 UNL     1       9.076   4.073   1.479 +0.03 +0.00    +0.241 C 
ATOM     44  C44 UNL     1       7.699   4.653   1.867 -0.10 +0.00    +0.176 C 
ATOM     45  C45 UNL     1       7.824   6.176   2.025 -0.25 +0.00    +0.035 C 
ATOM     46  C46 UNL     1       6.582   6.877   2.587 -0.28 +0.00    +0.004 C 
ATOM     47  C47 UNL     1       5.310   6.637   1.769 -0.19 +0.00    +0.030 C 
ATOM     48  C48 UNL     1       4.129   7.412   2.354 +3.24 +0.00    +0.267 C 
ATOM     49  C49 UNL     1       6.527   2.852   3.081 -0.17 +0.00    +0.241 C 
ATOM     50  C50 UNL     1       6.406   2.168   4.461 +9.21 +0.00    +0.176 C 
ATOM     51  C51 UNL     1       5.259   1.141   4.475 +1.04 +0.00    +0.035 C 
ATOM     52  C52 UNL     1       5.259   0.277   5.741+99.99 +0.00    +0.004 C 
ATOM     53  C53 UNL     1       4.037  -0.633   5.883+99.99 +0.00    +0.030 C 
ATOM     54  C54 UNL     1       2.727   0.149   5.989+13.50 +0.00    +0.267 C 
ATOM     55  C55 UNL     1       6.736   3.151   6.738+10.17 +0.00    +0.241 C 
ATOM     56  C56 UNL     1       6.196   4.206   7.746 +1.58 +0.00    +0.176 C 
ATOM     57  C57 UNL     1       6.488   3.768   9.199+99.99 +0.00    +0.035 C 
ATOM     58  C58 UNL     1       5.980   2.380   9.639+99.99 +0.00    +0.004 C 
ATOM     59  C59 UNL     1       4.477   2.140   9.470+99.99 +0.00    +0.030 C 
ATOM     60  C60 UNL     1       4.065   0.782  10.040+99.99 +0.00    +0.267 C 
ATOM     61  C61 UNL     1       4.289   5.375   6.610 -0.26 +0.00    +0.251 C 
ATOM     62  C62 UNL     1       2.874   5.930   6.892 -0.15 +0.00    +0.308 C 
ATOM     63  C63 UNL     1       2.869   7.463   6.814 -0.26 +0.00    +0.045 C 
ATOM     64  C64 UNL     1       3.738   8.153   7.875 -0.12 +0.00    +0.004 C 
ATOM     65  C65 UNL     1       3.702   9.676   7.708 -0.46 +0.00    +0.030 C 
ATOM     66  C66 UNL     1       4.621  10.408   8.687 +0.63 +0.00    +0.267 C 
ATOM     67  O1  UNL     1      23.986   8.208   3.311 -0.21 -0.00    -0.271 OA
ATOM     68  O2  UNL     1      26.919  11.144   0.752+32.42 -0.00    -0.271 OA
ATOM     69  O3  UNL     1      29.057   8.631  -1.333 +0.78 -0.00    -0.271 OA
ATOM     70  O4  UNL     1      31.157  11.181  -5.387+99.99+99.99    -0.271 OA
ATOM     71  O5  UNL     1      34.184   9.212  -3.804+99.99+99.99    -0.648 OA
ATOM     72  O6  UNL     1      35.331  10.505  -5.220+99.99+99.99    -0.775 OA
ATOM     73  O7  UNL     1      21.172   8.407   0.696+22.65 -0.00    -0.271 OA
ATOM     74  O8  UNL     1      17.477   7.995   1.882 -0.34 -0.00    -0.271 OA
ATOM     75  O9  UNL     1      15.427   4.883   0.340+99.99 -0.00    -0.271 OA
ATOM     76  O10 UNL     1      10.893   6.423  -0.399 -0.23 -0.00    -0.271 OA
ATOM     77  O11 UNL     1       9.838   3.564   2.301 +1.94 -0.00    -0.271 OA
ATOM     78  O12 UNL     1       6.089   2.367   2.041 -0.12 -0.00    -0.271 OA
ATOM     79  O13 UNL     1       7.667   2.392   7.004+36.08 -0.00    -0.271 OA
ATOM     80  O14 UNL     1       4.908   5.602   5.574 -0.16 -0.00    -0.271 OA
ATOM     81  O15 UNL     1      22.235  10.936   4.761 +1.46 -0.00    -0.393 OA
ATOM     82  N1  UNL     1      24.926   9.756   1.913 -0.20 -0.00    -0.346 N 
ATOM     83  N2  UNL     1      22.833   9.743  -1.487+12.82 +0.00    +0.078 N 
ATOM     84  N3  UNL     1      28.527   9.562   1.160+16.31 -0.00    -0.346 N 
ATOM     85  N4  UNL     1      30.085  10.575  -1.985+13.86 -0.00    -0.346 N 
ATOM     86  N5  UNL     1      32.287  11.196  -3.390+24.29 -0.00    -0.345 N 
ATOM     87  N6  UNL     1      21.477   9.101   2.866 -0.19 -0.00    -0.344 N 
ATOM     88  N7  UNL     1      19.242   6.623   1.363+99.99 -0.00    -0.346 N 
ATOM     89  N8  UNL     1      15.944   7.053  -0.181 +2.36 -0.00    -0.346 N 
ATOM     90  N9  UNL     1      12.794   5.305   0.212 +0.18 -0.00    -0.346 N 
ATOM     91  N10 UNL     1       9.405   4.224   0.146 -0.01 -0.00    -0.346 N 
ATOM     92  N11 UNL     1       2.913   7.178   1.578+99.99 +0.00    +0.078 N 
ATOM     93  N12 UNL     1       7.269   4.019   3.105 -0.04 -0.00    -0.346 N 
ATOM     94  N13 UNL     1       1.673  -0.695   6.540+99.99+99.99    +0.078 N 
ATOM     95  N14 UNL     1       6.186   3.191   5.483 +1.01 -0.00    -0.346 N 
ATOM     96  N15 UNL     1       2.640   0.553   9.827 +1.26 +0.00    +0.078 N 
ATOM     97  N16 UNL     1       4.781   4.570   7.610 -0.08 -0.00    -0.346 N 
ATOM     98  N17 UNL     1       4.208  10.213  10.072 +4.28 +0.00    +0.078 N 
ATOM     99  N18 UNL     1       2.373   5.440   8.199 -0.10 +0.00    +0.092 N 
ATOM    100  HA1 UNL     1      35.728   9.617  -5.344+99.99+99.99    +0.167 HD
ATOM    101  HA2 UNL     1      21.281  10.739   4.767+11.40 +0.00    +0.210 HD
ATOM    102  HA3 UNL     1      24.761  10.525   1.269 +0.14 +0.00    +0.163 HD
ATOM    103  HA4 UNL     1      22.418   9.121  -0.781 +0.26 +0.00    +0.312 HD
ATOM    104  HA5 UNL     1      22.067   9.931  -2.132+71.07 +0.00    +0.312 HD
ATOM    105  HA6 UNL     1      28.644   8.555   1.188 +0.09 +0.00    +0.163 HD
ATOM    106  HA7 UNL     1      30.226  11.546  -1.733 +1.75 +0.00    +0.163 HD
ATOM    107  HA8 UNL     1      32.342  10.597  -2.572 +0.04 +0.00    +0.163 HD
ATOM    108  HA9 UNL     1      21.590   8.690   3.789 +0.13 +0.00    +0.163 HD
ATOM    109  HB0 UNL     1      19.746   6.262   0.562+99.99 +0.00    +0.163 HD
ATOM    110  HB1 UNL     1      15.680   8.007   0.037 -0.09 +0.00    +0.163 HD
ATOM    111  HB2 UNL     1      13.222   4.415   0.456 +0.47 +0.00    +0.163 HD
ATOM    112  HB3 UNL     1       8.899   4.937  -0.369 +0.08 +0.00    +0.163 HD
ATOM    113  HB4 UNL     1       3.073   7.449   0.609+99.99 +0.00    +0.312 HD
ATOM    114  HB5 UNL     1       2.720   6.177   1.555 +0.92 +0.00    +0.312 HD
ATOM    115  HB6 UNL     1       7.882   4.124   3.908 +0.08 +0.00    +0.163 HD
ATOM    116  HB7 UNL     1       1.559  -1.521   5.952+99.99+99.99    +0.312 HD
ATOM    117  HB8 UNL     1       0.784  -0.196   6.497+99.99+99.99    +0.312 HD
ATOM    118  HB9 UNL     1       5.595   3.989   5.246 +0.05 +0.00    +0.163 HD
ATOM    119  HC0 UNL     1       2.374  -0.317  10.289 +0.17 +0.00    +0.312 HD
ATOM    120  HC1 UNL     1       2.472   0.366   8.833 +0.28 +0.00    +0.312 HD
ATOM    121  HC2 UNL     1       4.251   4.707   8.471 +0.23 +0.00    +0.163 HD
ATOM    122  HC3 UNL     1       3.262  10.569  10.201 +0.17 +0.00    +0.312 HD
ATOM    123  HC4 UNL     1       4.808  10.764  10.685 +5.86 +0.00    +0.312 HD
ATOM    124  HC5 UNL     1       2.128   4.450   8.103+99.99+99.99    +0.313 HD
ATOM    125  HC6 UNL     1       1.494   5.914   8.413+99.99+99.99    +0.313 HD
ENDROOT
TORSDOF 60
TER
