USER    Run = 1
USER    DPF = ligand_241_receptor.dpf
USER  
USER    Estimated Free Energy of Binding    =  +1.47e+003 kcal/mol  [=(1)+(2)+(3)-(4)]
USER    
USER    (1) Final Intermolecular Energy     =  +1.47e+003 kcal/mol
USER        vdW + Hbond + desolv Energy     =  +1.47e+003 kcal/mol
USER        Electrostatic Energy            =   +0.00 kcal/mol
USER    (2) Final Total Internal Energy     = +390.98 kcal/mol
USER    (3) Torsional Free Energy           =   +1.19 kcal/mol
USER    (4) Unbound System's Energy  [=(2)] = +390.98 kcal/mol
USER    
USER    
USER    NEWDPF move ligand_241.pdbqt
USER    NEWDPF about 0.000000 0.000000 0.000000
USER    NEWDPF tran0 23.003942 9.978002 6.460901
USER    NEWDPF quaternion0 0.595791 0.228798 0.192452 0.745417
USER    NEWDPF axisangle0 0.893778 0.343232 0.288708 83.610067
USER    NEWDPF quat0 0.893778 0.343232 0.288708 83.610067
USER    NEWDPF dihe0 102.24 148.10 75.51 -180.00 35.40 138.53 -123.30 88.15 -180.00 -166.57 -162.10 -23.23 151.00 -151.96 -178.34 179.96 -95.77 180.00 -175.13 -176.59 149.51 -180.00 -174.90 -104.50 159.37 -40.29 
USER  keepresnum = 1 
USER  
REMARK  26 active torsions:
REMARK  status: ('A' for Active; 'I' for Inactive)
REMARK    1  A    between atoms: C4_4  and  N2_54 
REMARK       I    between atoms: C5_5  and  N2_54 
REMARK       I    between atoms: C5_5  and  N3_55 
REMARK    2  A    between atoms: C6_6  and  N3_55 
REMARK    3  A    between atoms: C8_8  and  S1_93 
REMARK    4  A    between atoms: C12_12  and  N1_53 
REMARK    5  A    between atoms: C15_15  and  N7_61 
REMARK    6  A    between atoms: C16_16  and  N7_61 
REMARK    7  A    between atoms: C19_19  and  N8_62 
REMARK    8  A    between atoms: C22_22  and  N8_62 
REMARK    9  A    between atoms: C23_23  and  N14_71 
REMARK   10  A    between atoms: C27_27  and  N12_69 
REMARK   11  A    between atoms: C29_29  and  N13_70 
REMARK   12  A    between atoms: C30_30  and  O5_83 
REMARK   13  A    between atoms: C31_31  and  O4_82 
REMARK   14  A    between atoms: C32_32  and  C33_33 
REMARK       I    between atoms: C32_32  and  N13_70 
REMARK   15  A    between atoms: C33_33  and  O7_85 
REMARK   16  A    between atoms: C36_36  and  N15_72 
REMARK       I    between atoms: C38_38  and  N15_72 
REMARK       I    between atoms: C38_38  and  N16_73 
REMARK   17  A    between atoms: C39_39  and  N16_73 
REMARK   18  A    between atoms: C41_41  and  S2_94 
REMARK   19  A    between atoms: C46_46  and  N19_77 
REMARK   20  A    between atoms: C48_48  and  N20_78 
REMARK   21  A    between atoms: C49_49  and  O12_90 
REMARK   22  A    between atoms: C50_50  and  O11_89 
REMARK   23  A    between atoms: C51_51  and  C52_52 
REMARK       I    between atoms: C51_51  and  N20_78 
REMARK   24  A    between atoms: C52_52  and  O14_92 
REMARK   25  A    between atoms: N4_56  and  S1_93 
REMARK   26  A    between atoms: N17_74  and  S2_94 
USER                              x       y       z     vdW  Elec       q    Type
USER                           _______ _______ _______ _____ _____    ______ ____
ROOT
ATOM      1  C16 UNL     1      21.676  10.912   6.540+86.98 +0.00    +0.062 C 
ATOM      2  C17 UNL     1      21.029   9.528   6.679+37.39 +0.00    +0.021 C 
ATOM      3  C18 UNL     1      19.975   9.469   7.791+41.60 +0.00    +0.021 C 
ATOM      4  C19 UNL     1      19.130  10.748   7.897+16.32 +0.00    +0.062 C 
ATOM      5  C20 UNL     1      20.021  11.983   8.157 +0.99 +0.00    +0.021 C 
ATOM      6  C21 UNL     1      21.495  11.806   7.769 +2.59 +0.00    +0.021 C 
ENDROOT
BRANCH   1   7
ATOM      7  N7  UNL     1      23.056  10.826   6.053+18.20 -0.00    -0.272 NA
ATOM      8  H55 UNL     1      23.645  10.236   6.653 -0.15 +0.00    +0.129 HD
BRANCH   7   9
ATOM      9  C15 UNL     1      23.375  10.495   4.738 -0.38 +0.00    +0.127 A 
ATOM     10  C14 UNL     1      24.400   9.656   4.269 +0.19 +0.00    +0.117 A 
ATOM     11  C13 UNL     1      24.454   9.466   2.898 -0.44 +0.00    +0.155 A 
ATOM     12  N18 UNL     1      25.415   8.952   4.886+10.63 -0.00    -0.346 N 
ATOM     13  N5  UNL     1      23.623   9.967   1.974 -0.17 -0.00    -0.174 N 
ATOM     14  N19 UNL     1      25.556   8.684   2.683 -0.30 -0.00    -0.319 N 
ATOM     15  C12 UNL     1      22.670  10.757   2.497+14.51 +0.00    +0.683 A 
ATOM     16  H5  UNL     1      23.705   9.769   0.976 +0.15 +0.00    +0.186 HD
ATOM     17  N6  UNL     1      22.537  11.027   3.810 +0.30 -0.00    -0.179 N 
ATOM     18  H6  UNL     1      21.788  11.649   4.116 +0.45 +0.00    +0.185 HD
ATOM     19  C45 UNL     1      26.084   8.379   3.910 +0.39 +0.00    +0.185 A 
ATOM     20  H18 UNL     1      25.605   8.890   5.886+21.21 +0.00    +0.167 HD
BRANCH  15  21
ATOM     21  N1  UNL     1      21.803  11.354   1.603+29.51 -0.00    -0.215 N 
ATOM     22  C2  UNL     1      22.238  11.563   0.216 +8.37 +0.00    +0.143 C 
ATOM     23  C1  UNL     1      21.598  12.890  -0.208+21.73 +0.00    +0.047 C 
ATOM     24  C4  UNL     1      20.483  13.112   0.811+11.95 +0.00    +0.106 C 
ATOM     25  C3  UNL     1      21.119  12.553   2.092+31.21 +0.00    +0.166 C 
BRANCH  24  26
ATOM     26  N2  UNL     1      19.280  12.362   0.469 -0.35 -0.00    -0.337 N 
ATOM     27  C5  UNL     1      18.885  11.245   1.167 -0.37 +0.00    +0.321 C 
ATOM     28  N3  UNL     1      17.691  10.765   0.678 -0.24 -0.00    -0.309 N 
ATOM     29  O1  UNL     1      19.546  10.775   2.083 -0.33 -0.00    -0.247 OA
ATOM     30  H52 UNL     1      17.287  11.306  -0.077 +0.15 +0.00    +0.170 HD
ATOM     31  H51 UNL     1      18.568  12.861  -0.053 +0.11 +0.00    +0.164 HD
BRANCH  28  32
ATOM     32  C6  UNL     1      16.979   9.629   1.103 -0.46 +0.00    +0.037 A 
ATOM     33  C7  UNL     1      15.727   9.267   0.606 +0.56 +0.00    +0.054 A 
ATOM     34  C8  UNL     1      15.105   8.102   1.072 +2.94 +0.00    +0.076 A 
ATOM     35  C9  UNL     1      15.709   7.301   2.043+99.99 +0.00    +0.025 A 
ATOM     36  C10 UNL     1      16.950   7.671   2.554 -0.36 +0.00    +0.004 A 
ATOM     37  C11 UNL     1      17.580   8.829   2.087 -0.44 +0.00    +0.029 A 
BRANCH  34  38
ATOM     38  S1  UNL     1      13.522   7.651   0.415+16.27 +0.00    +0.239 S 
ATOM     39  O2  UNL     1      13.472   6.214   0.310 +0.53 -0.00    -0.206 OA
ATOM     40  O3  UNL     1      13.228   8.523  -0.700+51.63 -0.00    -0.206 OA
BRANCH  38  41
ATOM     41  N4  UNL     1      12.468   8.138   1.633+20.69 -0.00    -0.225 NA
ATOM     42  H53 UNL     1      13.007   8.390   2.462 -0.36 +0.00    +0.136 HD
ATOM     43  H54 UNL     1      11.730   7.463   1.837 +0.06 +0.00    +0.136 HD
ENDBRANCH  38  41
ENDBRANCH  34  38
ENDBRANCH  28  32
ENDBRANCH  24  26
ENDBRANCH  15  21
BRANCH  14  44
ATOM     44  C46 UNL     1      26.132   8.286   1.412 -0.43 +0.00    +0.125 C 
ATOM     45  C47 UNL     1      25.107   7.734   0.403 -0.43 +0.00    +0.056 C 
ATOM     46  C48 UNL     1      25.527   6.294   0.098 -0.38 +0.00    +0.118 C 
ATOM     47  C49 UNL     1      26.539   5.900   1.187 +0.35 +0.00    +0.171 C 
ATOM     48  C50 UNL     1      27.221   7.218   1.546 -0.18 +0.00    +0.172 C 
BRANCH  46  49
ATOM     49  N20 UNL     1      24.386   5.387   0.030 -0.25 -0.00    -0.352 N 
ATOM     50  C51 UNL     1      23.345   5.516   0.929 -0.23 +0.00    +0.241 C 
ATOM     51  O13 UNL     1      23.346   6.355   1.827 +0.76 -0.00    -0.271 OA
ATOM     52  H62 UNL     1      24.131   5.010  -0.882 +0.11 +0.00    +0.163 HD
BRANCH  50  53
ATOM     53  C52 UNL     1      22.192   4.529   0.720 +9.93 +0.00    +0.266 C 
BRANCH  53  54
ATOM     54  O14 UNL     1      22.319   3.297   1.430 +0.11 -0.00    -0.392 OA
ATOM     55  H68 UNL     1      21.431   2.892   1.408 -0.08 +0.00    +0.210 HD
ENDBRANCH  53  54
ENDBRANCH  50  53
ENDBRANCH  46  49
BRANCH  47  56
ATOM     56  O12 UNL     1      27.517   4.971   0.713 -0.16 -0.00    -0.391 OA
ATOM     57  H67 UNL     1      28.360   5.470   0.612 +0.11 +0.00    +0.210 HD
ENDBRANCH  47  56
BRANCH  48  58
ATOM     58  O11 UNL     1      28.258   7.489   0.590 -0.15 -0.00    -0.391 OA
ATOM     59  H66 UNL     1      27.906   7.144  -0.261 +0.12 +0.00    +0.210 HD
ENDBRANCH  48  58
ENDBRANCH  14  44
ENDBRANCH   7   9
ENDBRANCH   1   7
BRANCH   4  60
ATOM     60  N8  UNL     1      18.360  10.995   6.675+21.04 -0.00    -0.272 NA
ATOM     61  H56 UNL     1      18.750  11.704   6.061 +8.54 +0.00    +0.129 HD
BRANCH  60  62
ATOM     62  C22 UNL     1      18.066   9.909   5.851+30.65 +0.00    +0.127 A 
ATOM     63  C25 UNL     1      18.967   9.040   5.218+22.95 +0.00    +0.117 A 
ATOM     64  C24 UNL     1      18.399   8.032   4.456 +0.52 +0.00    +0.155 A 
ATOM     65  N11 UNL     1      20.343   8.952   5.180+16.23 -0.00    -0.346 N 
ATOM     66  N10 UNL     1      17.092   7.805   4.233 -0.40 -0.00    -0.174 N 
ATOM     67  N12 UNL     1      19.460   7.318   3.956 +0.43 -0.00    -0.319 N 
ATOM     68  C23 UNL     1      16.301   8.705   4.848 +2.35 +0.00    +0.683 A 
ATOM     69  H10 UNL     1      16.739   7.036   3.662 +0.07 +0.00    +0.186 HD
ATOM     70  N9  UNL     1      16.745   9.694   5.652+19.93 -0.00    -0.179 N 
ATOM     71  H9  UNL     1      16.067  10.296   6.120 +0.73 +0.00    +0.185 HD
ATOM     72  C26 UNL     1      20.602   7.896   4.437+99.99 +0.00    +0.185 A 
ATOM     73  H11 UNL     1      21.016   9.572   5.631 +3.18 +0.00    +0.167 HD
BRANCH  68  74
ATOM     74  N14 UNL     1      14.939   8.647   4.647 -0.25 -0.00    -0.215 N 
ATOM     75  C34 UNL     1      14.012   9.422   5.454 +4.78 +0.00    +0.143 C 
ATOM     76  C35 UNL     1      12.657   8.800   5.106 +1.43 +0.00    +0.047 C 
ATOM     77  C36 UNL     1      13.000   7.317   5.024 -0.41 +0.00    +0.106 C 
ATOM     78  C37 UNL     1      14.400   7.316   4.368 -0.42 +0.00    +0.166 C 
BRANCH  77  79
ATOM     79  N15 UNL     1      12.031   6.509   4.299 -0.14 -0.00    -0.337 N 
ATOM     80  C38 UNL     1      11.004   7.202   3.679 -0.23 +0.00    +0.321 C 
ATOM     81  N16 UNL     1       9.988   6.361   3.292 -0.12 -0.00    -0.309 N 
ATOM     82  O8  UNL     1      11.020   8.420   3.555 -0.34 -0.00    -0.247 OA
ATOM     83  H59 UNL     1      10.269   5.428   3.031 +0.02 +0.00    +0.170 HD
ATOM     84  H58 UNL     1      11.725   5.665   4.761 +0.10 +0.00    +0.164 HD
BRANCH  81  85
ATOM     85  C39 UNL     1       8.682   6.771   2.950 -0.28 +0.00    +0.037 A 
ATOM     86  C40 UNL     1       7.809   5.966   2.212 -0.18 +0.00    +0.054 A 
ATOM     87  C41 UNL     1       6.536   6.436   1.879 -0.25 +0.00    +0.076 A 
ATOM     88  C42 UNL     1       6.116   7.706   2.275 -0.09 +0.00    +0.025 A 
ATOM     89  C43 UNL     1       6.991   8.518   2.996 +8.15 +0.00    +0.004 A 
ATOM     90  C44 UNL     1       8.271   8.055   3.325 +0.38 +0.00    +0.029 A 
BRANCH  87  91
ATOM     91  S2  UNL     1       5.457   5.395   0.940 -0.23 +0.00    +0.239 S 
ATOM     92  O9  UNL     1       5.719   5.616  -0.465 -0.12 -0.00    -0.206 OA
ATOM     93  O10 UNL     1       4.127   5.480   1.501 -0.42 -0.00    -0.206 OA
BRANCH  91  94
ATOM     94  N17 UNL     1       6.004   3.855   1.310 -0.04 -0.00    -0.225 NA
ATOM     95  H60 UNL     1       5.874   3.671   2.314 +0.05 +0.00    +0.136 HD
ATOM     96  H61 UNL     1       6.979   3.754   1.030 +0.06 +0.00    +0.136 HD
ENDBRANCH  91  94
ENDBRANCH  87  91
ENDBRANCH  81  85
ENDBRANCH  77  79
ENDBRANCH  68  74
BRANCH  67  97
ATOM     97  C27 UNL     1      19.337   6.128   3.140+99.99 +0.00    +0.125 C 
ATOM     98  C28 UNL     1      17.925   5.563   2.963 +9.38 +0.00    +0.056 C 
ATOM     99  C29 UNL     1      18.200   4.151   2.451+50.93 +0.00    +0.118 C 
ATOM    100  C30 UNL     1      19.307   3.681   3.402+15.37 +0.00    +0.171 C 
ATOM    101  C31 UNL     1      20.157   4.932   3.678+59.43 +0.00    +0.172 C 
BRANCH  99 102
ATOM    102  N13 UNL     1      17.049   3.262   2.484+22.03 -0.00    -0.352 N 
ATOM    103  C32 UNL     1      16.751   2.532   3.616+97.47 +0.00    +0.241 C 
ATOM    104  O6  UNL     1      17.504   2.425   4.581+97.31 -0.00    -0.271 OA
ATOM    105  H57 UNL     1      16.252   3.573   1.936+42.30 +0.00    +0.163 HD
BRANCH 103 106
ATOM    106  C33 UNL     1      15.398   1.820   3.572+38.74 +0.00    +0.266 C 
BRANCH 106 107
ATOM    107  O7  UNL     1      14.982   1.547   2.243 +6.41 -0.00    -0.392 OA
ATOM    108  H65 UNL     1      14.366   0.790   2.303 -0.10 +0.00    +0.210 HD
ENDBRANCH 106 107
ENDBRANCH 103 106
ENDBRANCH  99 102
BRANCH 100 109
ATOM    109  O5  UNL     1      20.061   2.616   2.835 +3.03 -0.00    -0.391 OA
ATOM    110  H64 UNL     1      20.985   2.770   3.128 +0.14 +0.00    +0.210 HD
ENDBRANCH 100 109
BRANCH 101 111
ATOM    111  O4  UNL     1      21.413   4.826   2.997+60.23 -0.00    -0.391 OA
ATOM    112  H63 UNL     1      21.710   3.899   3.149 +0.24 +0.00    +0.210 HD
ENDBRANCH 101 111
ENDBRANCH  67  97
ENDBRANCH  60  62
ENDBRANCH   4  60
TORSDOF 26
TER
