USER    Run = 1
USER    DPF = ligand_46_receptor.dpf
USER  
USER    Estimated Free Energy of Binding    = +144.80 kcal/mol  [=(1)+(2)+(3)-(4)]
USER    
USER    (1) Final Intermolecular Energy     = +143.61 kcal/mol
USER        vdW + Hbond + desolv Energy     = +143.61 kcal/mol
USER        Electrostatic Energy            =   +0.00 kcal/mol
USER    (2) Final Total Internal Energy     =  +73.00 kcal/mol
USER    (3) Torsional Free Energy           =   +1.19 kcal/mol
USER    (4) Unbound System's Energy  [=(2)] =  +73.00 kcal/mol
USER    
USER    
USER    NEWDPF move ligand_46.pdbqt
USER    NEWDPF about 0.000000 0.000000 0.000000
USER    NEWDPF tran0 6.796865 2.484227 3.367482
USER    NEWDPF quaternion0 0.512205 -0.834386 0.178868 0.097219
USER    NEWDPF axisangle0 0.514643 -0.838357 0.179719 168.841930
USER    NEWDPF quat0 0.514643 -0.838357 0.179719 168.841930
USER    NEWDPF dihe0 -13.66 -132.75 -40.62 -165.05 70.45 83.62 60.08 152.29 -28.08 73.42 56.46 -37.66 -180.00 -111.88 167.06 8.60 -140.68 -16.67 72.61 26.02 13.31 -79.00 
USER  keepresnum = 1 
USER  
REMARK  22 active torsions:
REMARK  status: ('A' for Active; 'I' for Inactive)
REMARK    1  A    between atoms: C2_2  and  C3_3 
REMARK    2  A    between atoms: C4_4  and  O16_69 
REMARK    3  A    between atoms: C5_5  and  O15_68 
REMARK    4  A    between atoms: C10_10  and  O14_67 
REMARK    5  A    between atoms: C11_11  and  O11_64 
REMARK    6  A    between atoms: C13_13  and  O4_57 
REMARK    7  A    between atoms: C17_17  and  O4_57 
REMARK    8  A    between atoms: C19_19  and  O10_63 
REMARK    9  A    between atoms: C20_20  and  O6_59 
REMARK   10  A    between atoms: C23_23  and  O6_59 
REMARK       I    between atoms: C23_23  and  N1_70 
REMARK   11  A    between atoms: C24_24  and  C25_25 
REMARK   12  A    between atoms: C24_24  and  N1_70 
REMARK   13  A    between atoms: C25_25  and  C26_26 
REMARK   14  A    between atoms: C26_26  and  C27_27 
REMARK   15  A    between atoms: C27_27  and  C28_28 
REMARK   16  A    between atoms: C28_28  and  C29_29 
REMARK       I    between atoms: C29_29  and  N2_71 
REMARK   17  A    between atoms: C30_30  and  C32_32 
REMARK   18  A    between atoms: C30_30  and  N2_71 
REMARK   19  A    between atoms: C35_35  and  O9_62 
REMARK   20  A    between atoms: C41_41  and  O11_64 
REMARK   21  A    between atoms: C42_42  and  O13_66 
REMARK   22  A    between atoms: C43_43  and  N3_72 
USER                              x       y       z     vdW  Elec       q    Type
USER                           _______ _______ _______ _____ _____    ______ ____
ROOT
ATOM      1  C3  UNL     1      11.040   5.851   7.833 +0.37 +0.00    +0.168 C 
ATOM      2  C4  UNL     1      12.006   6.967   7.258 -0.21 +0.00    +0.107 C 
ATOM      3  C5  UNL     1      12.490   6.622   5.810 -0.33 +0.00    +0.165 C 
ATOM      4  C6  UNL     1      13.215   7.678   4.936 -0.43 +0.00    +0.083 C 
ATOM      5  C7  UNL     1      13.621   7.108   3.558 -0.36 +0.00    +0.137 C 
ATOM      6  C8  UNL     1      12.740   6.056   2.855 +2.40 +0.00    +0.054 C 
ATOM      7  C9  UNL     1      11.379   6.664   2.450 -0.38 +0.00    +0.052 C 
ATOM      8  C10 UNL     1      10.212   5.668   2.135 -0.15 +0.00    +0.084 C 
ATOM      9  C11 UNL     1       8.810   6.333   2.490 -0.22 +0.00    +0.165 C 
ATOM     10  C12 UNL     1       8.549   6.600   4.037 -0.20 +0.00    +0.043 C 
ATOM     11  C13 UNL     1       8.012   5.331   4.785 -0.22 +0.00    +0.144 C 
ATOM     12  C14 UNL     1       7.670   5.469   6.295 -0.23 +0.00    +0.111 C 
ATOM     13  C15 UNL     1       8.753   6.140   7.123 +1.06 +0.00    +0.265 C 
ATOM     14  C16 UNL     1       6.294   6.072   6.613 -0.02 +0.00    +0.023 C 
ATOM     15  C40 UNL     1       7.645   7.823   4.255+33.29 +0.00    +0.015 C 
ATOM     16  C49 UNL     1      10.258   5.367   0.614 -0.11 +0.00    +0.049 C 
ATOM     17  C51 UNL     1      13.491   5.452   1.666+61.80 +0.00    +0.018 C 
ATOM     18  C52 UNL     1      12.502   9.005   4.677 +4.37 +0.00    +0.020 C 
ATOM     19  C53 UNL     1      11.285   8.313   7.376 +4.38 +0.00    +0.051 C 
ATOM     20  O1  UNL     1      14.640   7.549   3.013 -0.11 -0.00    -0.297 OA
ATOM     21  O2  UNL     1       8.556   7.030   7.940 +5.77 -0.00    -0.265 OA
ATOM     22  O3  UNL     1       9.961   5.555   6.905 -0.17 -0.00    -0.312 OA
ENDROOT
BRANCH  11  23
ATOM     23  O4  UNL     1       6.872   4.851   4.050 -0.08 -0.00    -0.355 OA
BRANCH  23  24
ATOM     24  C17 UNL     1       7.175   4.207   2.811 -0.08 +0.00    +0.263 C 
ATOM     25  C18 UNL     1       5.994   4.486   1.878 -0.12 +0.00    +0.101 C 
ATOM     26  C19 UNL     1       6.217   3.822   0.505 -0.10 +0.00    +0.090 C 
ATOM     27  C20 UNL     1       6.450   2.305   0.765 -0.10 +0.00    +0.196 C 
ATOM     28  C38 UNL     1       4.977   4.088  -0.363 -0.17 +0.00    +0.049 C 
ATOM     29  C21 UNL     1       7.612   2.122   1.761 -0.21 +0.00    +0.153 C 
ATOM     30  C22 UNL     1       7.835   0.653   2.105 +6.56 +0.00    +0.042 C 
ATOM     31  O5  UNL     1       7.329   2.803   2.988 -0.14 -0.00    -0.354 OA
BRANCH  26  32
ATOM     32  O10 UNL     1       7.356   4.523  -0.043 -0.03 -0.00    -0.382 OA
ATOM     33  C39 UNL     1       8.040   3.929  -1.134 -0.07 +0.00    +0.202 C 
ENDBRANCH  26  32
BRANCH  27  34
ATOM     34  O6  UNL     1       6.747   1.582  -0.446 -0.08 -0.00    -0.293 OA
BRANCH  34  35
ATOM     35  C23 UNL     1       5.719   1.383  -1.303 -0.05 +0.00    +0.361 C 
ATOM     36  O7  UNL     1       5.212   2.235  -2.015 -0.05 -0.00    -0.239 OA
ATOM     37  N1  UNL     1       5.362   0.072  -1.262 +0.23 -0.00    -0.337 N 
ATOM     38  H88 UNL     1       5.915  -0.526  -0.666 +0.12 +0.00    +0.164 HD
BRANCH  37  39
ATOM     39  C24 UNL     1       4.370  -0.498  -2.143 +6.18 +0.00    +0.125 C 
BRANCH  39  40
ATOM     40  C25 UNL     1       4.755  -0.390  -3.619 -0.09 +0.00    +0.020 C 
BRANCH  40  41
ATOM     41  C26 UNL     1       4.405   0.945  -4.286 -0.06 +0.00    +0.002 C 
BRANCH  41  42
ATOM     42  C27 UNL     1       5.145   2.171  -3.745 -0.10 +0.00    +0.009 C 
BRANCH  42  43
ATOM     43  C28 UNL     1       4.224   3.346  -3.425 -0.07 +0.00    +0.103 C 
BRANCH  43  44
ATOM     44  C29 UNL     1       3.271   3.026  -2.287 -0.07 +0.00    +0.218 C 
ATOM     45  O8  UNL     1       2.376   3.779  -1.919 -0.12 -0.00    -0.274 OA
ATOM     46  N2  UNL     1       3.507   1.794  -1.724 -0.01 -0.00    -0.353 N 
ATOM     47  H89 UNL     1       4.250   1.211  -2.088 +0.03 +0.00    +0.163 HD
BRANCH  46  48
ATOM     48  C30 UNL     1       2.698   1.271  -0.635 -0.10 +0.00    +0.113 C 
ATOM     49  C31 UNL     1       2.648  -0.260  -0.665 +2.85 +0.00    +0.037 C 
BRANCH  48  50
ATOM     50  C32 UNL     1       3.217   1.821   0.683 -0.11 -0.00    -0.036 A 
ATOM     51  C33 UNL     1       2.969   3.164   1.019 -0.08 +0.00    +0.012 A 
ATOM     52  C34 UNL     1       3.454   3.707   2.212 -0.10 +0.00    +0.037 A 
ATOM     53  C35 UNL     1       4.200   2.909   3.071 -0.11 +0.00    +0.065 A 
ATOM     54  C36 UNL     1       4.469   1.583   2.756 -0.22 +0.00    +0.037 A 
ATOM     55  C37 UNL     1       3.984   1.040   1.564 -0.19 +0.00    +0.012 A 
BRANCH  53  56
ATOM     56  O9  UNL     1       4.695   3.396   4.245 -0.07 -0.00    -0.361 OA
ATOM     57  H84 UNL     1       5.634   3.157   4.307 +0.04 +0.00    +0.217 HD
ENDBRANCH  53  56
ENDBRANCH  48  50
ENDBRANCH  46  48
ENDBRANCH  43  44
ENDBRANCH  42  43
ENDBRANCH  41  42
ENDBRANCH  40  41
ENDBRANCH  39  40
ENDBRANCH  37  39
ENDBRANCH  34  35
ENDBRANCH  27  34
ENDBRANCH  23  24
ENDBRANCH  11  23
BRANCH   9  58
ATOM     58  O11 UNL     1       8.738   7.577   1.759 -0.21 -0.00    -0.350 OA
BRANCH  58  59
ATOM     59  C41 UNL     1       8.408   7.401   0.368 -0.23 +0.00    +0.291 C 
ATOM     60  C42 UNL     1       9.571   8.006  -0.449 +0.61 +0.00    +0.206 C 
ATOM     61  C43 UNL     1       9.249   7.916  -1.963 -0.28 +0.00    +0.257 C 
ATOM     62  C44 UNL     1       7.848   8.504  -2.229 +8.95 +0.00    +0.070 C 
ATOM     63  C45 UNL     1       6.810   7.852  -1.316 +6.30 +0.00    +0.122 C 
ATOM     64  C46 UNL     1       5.435   8.478  -1.510 +5.37 +0.00    +0.040 C 
ATOM     65  O12 UNL     1       7.179   8.040   0.050 -0.36 -0.00    -0.354 OA
BRANCH  60  66
ATOM     66  O13 UNL     1      10.783   7.307  -0.127 -0.13 -0.00    -0.388 OA
ATOM     67  H85 UNL     1      11.219   7.855   0.554 +0.22 +0.00    +0.210 HD
ENDBRANCH  60  66
BRANCH  61  68
ATOM     68  N3  UNL     1      10.215   8.516  -2.921 -0.43 +0.00    +0.087 N 
ATOM     69  C47 UNL     1       9.557   9.420  -3.869 +0.73 +0.00    +0.310 C 
ATOM     70  C48 UNL     1      11.018   7.539  -3.655 -0.16 +0.00    +0.310 C 
ENDBRANCH  61  68
ENDBRANCH  58  59
ENDBRANCH   9  58
BRANCH   8  71
ATOM     71  O14 UNL     1      10.424   4.492   2.930 +0.98 -0.00    -0.383 OA
ATOM     72  C50 UNL     1      10.879   4.689   4.261 -0.15 +0.00    +0.202 C 
ENDBRANCH   8  71
BRANCH   1  73
ATOM     73  C2  UNL     1      11.705   4.498   8.160 -0.52 +0.00    +0.031 C 
ATOM     74  C1  UNL     1      11.143   3.364   7.305 -0.45 +0.00    +0.007 C 
ENDBRANCH   1  73
BRANCH   2  75
ATOM     75  O16 UNL     1      13.171   7.088   8.099 -0.25 -0.00    -0.385 OA
ATOM     76  H87 UNL     1      13.907   7.353   7.519 +0.17 +0.00    +0.210 HD
ENDBRANCH   2  75
BRANCH   3  77
ATOM     77  O15 UNL     1      13.409   5.506   5.943 -0.24 -0.00    -0.392 OA
ATOM     78  H86 UNL     1      13.857   5.576   6.807 +0.16 +0.00    +0.210 HD
ENDBRANCH   3  77
TORSDOF 22
TER
