USER    Run = 1
USER    DPF = ligand_283_receptor.dpf
USER  
USER    Estimated Free Energy of Binding    = +126.91 kcal/mol  [=(1)+(2)+(3)-(4)]
USER    
USER    (1) Final Intermolecular Energy     = +125.72 kcal/mol
USER        vdW + Hbond + desolv Energy     = +125.72 kcal/mol
USER        Electrostatic Energy            =   +0.00 kcal/mol
USER    (2) Final Total Internal Energy     = +101.45 kcal/mol
USER    (3) Torsional Free Energy           =   +1.19 kcal/mol
USER    (4) Unbound System's Energy  [=(2)] = +101.45 kcal/mol
USER    
USER    
USER    NEWDPF move ligand_283.pdbqt
USER    NEWDPF about 0.000000 0.000000 0.000000
USER    NEWDPF tran0 16.917492 5.741810 4.262439
USER    NEWDPF quaternion0 0.547110 -0.009342 0.274474 0.790726
USER    NEWDPF axisangle0 0.893722 -0.015260 0.448362 75.493227
USER    NEWDPF quat0 0.893722 -0.015260 0.448362 75.493227
USER    NEWDPF dihe0 -179.53 -109.27 142.84 114.34 178.75 22.02 139.55 -114.88 -82.30 -144.19 -16.90 -141.50 175.39 92.52 -23.29 127.13 -74.69 -150.86 180.00 172.48 -180.00 141.46 
USER  keepresnum = 1 
USER  
REMARK  22 active torsions:
REMARK  status: ('A' for Active; 'I' for Inactive)
REMARK    1  A    between atoms: C2_2  and  C3_3 
REMARK    2  A    between atoms: C2_2  and  N12_89 
REMARK       I    between atoms: C3_3  and  N1_77 
REMARK    3  A    between atoms: C4_4  and  C5_5 
REMARK    4  A    between atoms: C4_4  and  C63_63 
REMARK    5  A    between atoms: C4_4  and  N1_77 
REMARK       I    between atoms: C5_5  and  N2_78 
REMARK    6  A    between atoms: C7_7  and  N4_80 
REMARK    7  A    between atoms: C9_9  and  C10_10 
REMARK       I    between atoms: C10_10  and  N3_79 
REMARK    8  A    between atoms: C11_11  and  N3_79 
REMARK    9  A    between atoms: C21_21  and  C22_22 
REMARK       I    between atoms: C21_21  and  N4_80 
REMARK   10  A    between atoms: C25_25  and  C28_28 
REMARK       I    between atoms: C28_28  and  N5_81 
REMARK   11  A    between atoms: C29_29  and  N5_81 
REMARK   12  A    between atoms: C34_34  and  C50_50 
REMARK   13  A    between atoms: C36_36  and  C37_37 
REMARK       I    between atoms: C36_36  and  N6_82 
REMARK   14  A    between atoms: C37_37  and  C38_38 
REMARK   15  A    between atoms: C37_37  and  N9_86 
REMARK   16  A    between atoms: C38_38  and  S1_90 
REMARK   17  A    between atoms: C41_41  and  C42_42 
REMARK   18  A    between atoms: C41_41  and  S1_90 
REMARK       I    between atoms: C42_42  and  N7_83 
REMARK   19  A    between atoms: C43_43  and  N7_83 
REMARK   20  A    between atoms: C46_46  and  C47_47 
REMARK       I    between atoms: C46_46  and  N9_86 
REMARK   21  A    between atoms: C47_47  and  N10_87 
REMARK       I    between atoms: C50_50  and  N11_88 
REMARK   22  A    between atoms: C51_51  and  N11_88 
USER                              x       y       z     vdW  Elec       q    Type
USER                           _______ _______ _______ _____ _____    ______ ____
ROOT
ATOM      1  C29 UNL     1      14.246   7.577   4.258 -0.47 +0.00    +0.035 A 
ATOM      2  C30 UNL     1      13.650   6.430   3.731 +0.50 +0.00    +0.038 A 
ATOM      3  C31 UNL     1      12.357   6.041   4.124 +0.02 -0.00    -0.036 A 
ATOM      4  C32 UNL     1      11.668   6.797   5.084 -0.32 -0.00    -0.049 A 
ATOM      5  C33 UNL     1      10.269   6.410   5.497 -0.29 +0.00    +0.068 C 
ATOM      6  C34 UNL     1       9.882   4.987   5.054 -0.25 +0.00    +0.162 C 
ATOM      7  C35 UNL     1      11.756   4.775   3.566 +7.66 +0.00    +0.138 C 
ATOM      8  C36 UNL     1       9.786   3.581   3.097 +0.92 +0.00    +0.225 C 
ATOM      9  C61 UNL     1      12.262   7.949   5.611 -0.37 +0.00    +0.010 A 
ATOM     10  C62 UNL     1      13.541   8.332   5.201 -0.34 +0.00    +0.030 A 
ATOM     11  O6  UNL     1       9.864   2.525   3.734 +0.29 -0.00    -0.277 OA
ATOM     12  N6  UNL     1      10.293   4.761   3.651 -0.12 -0.00    -0.234 NA
ENDROOT
BRANCH   1  13
ATOM     13  N5  UNL     1      15.535   8.029   3.905 -0.29 -0.00    -0.323 N 
ATOM     14  C28 UNL     1      15.966   9.340   3.810 -0.26 +0.00    +0.256 C 
ATOM     15  O5  UNL     1      15.325  10.350   4.072 +8.94 -0.00    -0.267 OA
ATOM     16  H79 UNL     1      16.233   7.307   3.782 +0.04 +0.00    +0.169 HD
BRANCH  14  17
ATOM     17  C25 UNL     1      17.380   9.501   3.372 -0.48 +0.00    +0.032 A 
ATOM     18  C24 UNL     1      18.219  10.466   3.948 +1.59 +0.00    +0.018 A 
ATOM     19  C23 UNL     1      19.547  10.583   3.518+10.86 +0.00    +0.018 A 
ATOM     20  C22 UNL     1      20.039   9.730   2.520 -0.36 +0.00    +0.032 A 
ATOM     21  C27 UNL     1      19.196   8.769   1.946 +5.92 +0.00    +0.018 A 
ATOM     22  C26 UNL     1      17.874   8.647   2.380 -0.41 +0.00    +0.018 A 
BRANCH  20  23
ATOM     23  C21 UNL     1      21.442   9.822   2.032 -0.29 +0.00    +0.252 C 
ATOM     24  O4  UNL     1      22.310  10.328   2.730 -0.07 -0.00    -0.268 OA
ATOM     25  N4  UNL     1      21.674   9.341   0.761 -0.10 -0.00    -0.351 N 
ATOM     26  H78 UNL     1      20.884   9.137   0.163 +0.14 +0.00    +0.163 HD
BRANCH  25  27
ATOM     27  C7  UNL     1      22.987   9.472   0.133 -0.46 +0.00    +0.105 C 
ATOM     28  C6  UNL     1      23.875  10.443   0.909 +1.79 +0.00    +0.152 C 
ATOM     29  N2  UNL     1      24.399   9.628   1.999 -0.20 -0.00    -0.335 N 
ATOM     30  C5  UNL     1      24.620  10.174   3.243 -0.43 +0.00    +0.244 C 
ATOM     31  C9  UNL     1      24.482   8.214   1.586 -0.36 +0.00    +0.181 C 
ATOM     32  O2  UNL     1      24.536  11.398   3.410 +0.10 -0.00    -0.271 OA
ATOM     33  C8  UNL     1      23.779   8.167   0.216 -0.49 +0.00    +0.061 C 
BRANCH  30  34
ATOM     34  C4  UNL     1      24.987   9.259   4.439 +5.50 +0.00    +0.184 C 
BRANCH  34  35
ATOM     35  C63 UNL     1      24.868   7.729   4.129 +0.99 -0.00    -0.022 C 
ATOM     36  C64 UNL     1      26.139   7.161   3.465 +0.12 +0.00    +0.017 C 
ATOM     37  C65 UNL     1      24.598   6.918   5.409+20.55 +0.00    +0.017 C 
ATOM     38  C66 UNL     1      23.679   7.486   3.171+16.76 +0.00    +0.017 C 
ENDBRANCH  34  35
BRANCH  34  39
ATOM     39  N1  UNL     1      24.040   9.661   5.486 +0.97 -0.00    -0.345 N 
ATOM     40  C3  UNL     1      22.969  10.499   5.256 +0.70 +0.00    +0.251 C 
ATOM     41  O1  UNL     1      22.779  11.015   4.160 -0.34 -0.00    -0.271 OA
ATOM     42  H76 UNL     1      24.103   9.152   6.364 +5.21 +0.00    +0.163 HD
BRANCH  40  43
ATOM     43  C2  UNL     1      22.076  10.710   6.506+15.60 +0.00    +0.307 C 
ATOM     44  C1  UNL     1      22.963  10.858   7.743+12.61 +0.00    +0.053 C 
BRANCH  43  45
ATOM     45  N12 UNL     1      21.134   9.594   6.728+11.73 +0.00    +0.092 N 
ATOM     46  C67 UNL     1      21.456   8.831   7.928 +0.08 +0.00    +0.307 C 
ATOM     47  H84 UNL     1      21.151   8.968   5.925 +0.49 +0.00    +0.316 HD
ENDBRANCH  43  45
ENDBRANCH  40  43
ENDBRANCH  34  39
ENDBRANCH  30  34
BRANCH  31  48
ATOM     48  C10 UNL     1      25.919   7.694   1.404 -0.31 +0.00    +0.241 C 
ATOM     49  O3  UNL     1      26.243   6.569   1.773 -0.15 -0.00    -0.271 OA
ATOM     50  N3  UNL     1      26.738   8.513   0.662 -0.16 -0.00    -0.351 N 
ATOM     51  H77 UNL     1      26.471   9.483   0.554 +0.12 +0.00    +0.163 HD
BRANCH  50  52
ATOM     52  C11 UNL     1      28.124   8.167   0.378 -0.32 +0.00    +0.118 C 
ATOM     53  C12 UNL     1      28.899   9.431  -0.019 +4.27 +0.00    +0.030 C 
ATOM     54  C13 UNL     1      30.261   9.081  -0.598 -0.21 +0.00    +0.007 C 
ATOM     55  C14 UNL     1      30.091   8.278  -1.882 -0.25 +0.00    +0.039 C 
ATOM     56  C15 UNL     1      29.132   7.121  -1.726 -0.23 -0.00    -0.050 A 
ATOM     57  C16 UNL     1      29.164   6.089  -2.679 -0.14 +0.00    +0.007 A 
ATOM     58  C20 UNL     1      28.193   7.073  -0.678 -0.28 -0.00    -0.029 A 
ATOM     59  C17 UNL     1      28.303   4.998  -2.574 -0.07 +0.00    +0.001 A 
ATOM     60  C18 UNL     1      27.402   4.923  -1.517 -0.29 +0.00    +0.001 A 
ATOM     61  C19 UNL     1      27.352   5.948  -0.574 -0.30 +0.00    +0.010 A 
ENDBRANCH  50  52
ENDBRANCH  31  48
ENDBRANCH  25  27
ENDBRANCH  20  23
ENDBRANCH  14  17
ENDBRANCH   1  13
BRANCH   6  62
ATOM     62  C50 UNL     1       8.367   4.827   5.324 -0.21 +0.00    +0.236 C 
ATOM     63  O9  UNL     1       7.873   3.836   5.855 -0.25 -0.00    -0.272 OA
ATOM     64  N11 UNL     1       7.611   5.897   4.884 -0.03 -0.00    -0.351 N 
ATOM     65  H83 UNL     1       8.087   6.745   4.607 +0.09 +0.00    +0.163 HD
BRANCH  64  66
ATOM     66  C51 UNL     1       6.213   6.056   5.260 +0.40 +0.00    +0.118 C 
ATOM     67  C52 UNL     1       6.151   6.660   6.671 +1.96 +0.00    +0.030 C 
ATOM     68  C53 UNL     1       4.738   6.757   7.258 -0.36 +0.00    +0.007 C 
ATOM     69  C54 UNL     1       3.671   5.951   6.516 -0.30 +0.00    +0.039 C 
ATOM     70  C55 UNL     1       4.219   4.685   5.912 -0.26 -0.00    -0.050 A 
ATOM     71  C56 UNL     1       3.472   3.501   5.925 -0.28 +0.00    +0.007 A 
ATOM     72  C60 UNL     1       5.462   4.732   5.247 -0.25 -0.00    -0.029 A 
ATOM     73  C57 UNL     1       3.955   2.361   5.287 -0.30 +0.00    +0.001 A 
ATOM     74  C58 UNL     1       5.171   2.405   4.609 +0.02 +0.00    +0.001 A 
ATOM     75  C59 UNL     1       5.915   3.585   4.578 -0.23 +0.00    +0.010 A 
ENDBRANCH  64  66
ENDBRANCH   6  62
BRANCH   8  76
ATOM     76  C37 UNL     1       8.930   3.697   1.796 -0.01 +0.00    +0.189 C 
BRANCH  76  77
ATOM     77  C38 UNL     1       7.519   3.011   1.681 -0.20 +0.00    +0.030 C 
ATOM     78  C39 UNL     1       7.204   2.578   0.230 -0.13 +0.00    +0.029 C 
ATOM     79  C40 UNL     1       7.320   1.784   2.579 -0.24 +0.00    +0.029 C 
BRANCH  77  80
ATOM     80  S1  UNL     1       6.157   4.272   2.061 -0.13 -0.00    -0.148 SA
BRANCH  80  81
ATOM     81  C41 UNL     1       5.760   5.024   0.455 -0.16 +0.00    +0.177 C 
BRANCH  81  82
ATOM     82  C42 UNL     1       6.626   6.193   0.022 -0.09 +0.00    +0.232 C 
ATOM     83  O7  UNL     1       6.091   7.218  -0.397 -0.16 -0.00    -0.272 OA
ATOM     84  N7  UNL     1       7.977   5.955   0.102 -0.07 -0.00    -0.307 N 
ATOM     85  H80 UNL     1       8.320   5.303   0.811 +0.08 +0.00    +0.171 HD
BRANCH  84  86
ATOM     86  C43 UNL     1       8.975   6.738  -0.428 -0.21 +0.00    +0.150 A 
ATOM     87  N8  UNL     1      10.218   6.319  -0.504 -0.10 -0.00    -0.346 N 
ATOM     88  C44 UNL     1      11.002   7.287  -1.096 -0.09 +0.00    +0.097 A 
ATOM     89  H8  UNL     1      10.553   5.414  -0.174 +0.07 +0.00    +0.167 HD
ATOM     90  C45 UNL     1      10.337   8.425  -1.495 +1.54 +0.00    +0.070 A 
ATOM     91  S2  UNL     1       8.674   8.272  -1.115 -0.12 -0.00    -0.064 SA
ENDBRANCH  84  86
ENDBRANCH  81  82
ENDBRANCH  80  81
ENDBRANCH  77  80
ENDBRANCH  76  77
BRANCH  76  92
ATOM     92  N9  UNL     1       9.838   3.269   0.717 +1.79 -0.00    -0.345 N 
ATOM     93  C46 UNL     1       9.735   2.091   0.018 -0.03 +0.00    +0.251 C 
ATOM     94  O8  UNL     1       8.822   1.283   0.187 -0.16 -0.00    -0.271 OA
ATOM     95  H81 UNL     1      10.655   3.857   0.559 -0.30 +0.00    +0.163 HD
BRANCH  93  96
ATOM     96  C47 UNL     1      10.877   1.827  -0.987 -0.13 +0.00    +0.307 C 
ATOM     97  C48 UNL     1      10.329   1.763  -2.411 -0.06 +0.00    +0.053 C 
BRANCH  96  98
ATOM     98  N10 UNL     1      11.596   0.569  -0.688 -0.39 +0.00    +0.092 N 
ATOM     99  C49 UNL     1      12.710   0.361  -1.605 -0.03 +0.00    +0.307 C 
ATOM    100  H82 UNL     1      11.957   0.598   0.266 +0.00 +0.00    +0.316 HD
ENDBRANCH  96  98
ENDBRANCH  93  96
ENDBRANCH  76  92
ENDBRANCH   8  76
TORSDOF 22
TER
