USER    Run = 1
USER    DPF = ligand_479_receptor.dpf
USER  
USER    Estimated Free Energy of Binding    =  -12.25 kcal/mol  [=(1)+(2)+(3)-(4)]
USER    Estimated Inhibition Constant, Ki   =    1.05 nM (nanomolar)  [Temperature = 298.15 K]
USER    
USER    (1) Final Intermolecular Energy     =  -13.44 kcal/mol
USER        vdW + Hbond + desolv Energy     =  -13.44 kcal/mol
USER        Electrostatic Energy            =   +0.00 kcal/mol
USER    (2) Final Total Internal Energy     =   -1.57 kcal/mol
USER    (3) Torsional Free Energy           =   +1.19 kcal/mol
USER    (4) Unbound System's Energy  [=(2)] =   -1.57 kcal/mol
USER    
USER    
USER    NEWDPF move ligand_479.pdbqt
USER    NEWDPF about 0.000000 0.000000 0.000000
USER    NEWDPF tran0 16.249804 8.501756 2.540179
USER    NEWDPF quaternion0 -0.983082 -0.166957 0.066126 0.036093
USER    NEWDPF axisangle0 -0.983723 -0.167066 0.066169 175.863111
USER    NEWDPF quat0 -0.983723 -0.167066 0.066169 175.863111
USER    NEWDPF dihe0 111.71 -98.48 52.09 78.54 -65.29 -179.59 -165.42 128.95 41.12 153.14 -103.60 -48.59 101.58 -70.14 -176.06 
USER  keepresnum = 1 
USER  
REMARK  15 active torsions:
REMARK  status: ('A' for Active; 'I' for Inactive)
REMARK    1  A    between atoms: C2_2  and  O1_35 
REMARK    2  A    between atoms: C4_4  and  O8_42 
REMARK    3  A    between atoms: C5_5  and  C31_31 
REMARK    4  A    between atoms: C7_7  and  C8_8 
REMARK       I    between atoms: C8_8  and  N1_43 
REMARK    5  A    between atoms: C9_9  and  N1_43 
REMARK    6  A    between atoms: C12_12  and  N2_44 
REMARK    7  A    between atoms: C15_15  and  C16_16 
REMARK       I    between atoms: C15_15  and  N2_44 
REMARK    8  A    between atoms: C17_17  and  O6_40 
REMARK    9  A    between atoms: C19_19  and  O5_39 
REMARK   10  A    between atoms: C20_20  and  C22_22 
REMARK       I    between atoms: C22_22  and  N3_45 
REMARK   11  A    between atoms: C23_23  and  N3_45 
REMARK   12  A    between atoms: C26_26  and  N4_46 
REMARK       I    between atoms: C31_31  and  N5_47 
REMARK   13  A    between atoms: C32_32  and  C33_33 
REMARK   14  A    between atoms: C32_32  and  N5_47 
REMARK   15  A    between atoms: C33_33  and  N6_48 
USER                              x       y       z     vdW  Elec       q    Type
USER                           _______ _______ _______ _____ _____    ______ ____
ROOT
ATOM      1  C9  UNL     1      18.716  10.052   2.666 -0.43 +0.00    +0.084 C 
ATOM      2  C10 UNL     1      18.138   9.252   3.845 -0.45 +0.00    +0.027 C 
ATOM      3  C11 UNL     1      17.785   7.823   3.439 -0.60 +0.00    +0.027 C 
ATOM      4  C12 UNL     1      16.707   7.796   2.344 -0.22 +0.00    +0.084 C 
ATOM      5  C13 UNL     1      16.755   9.030   1.426 -0.55 +0.00    +0.027 C 
ATOM      6  C14 UNL     1      18.166   9.589   1.305 -0.45 +0.00    +0.027 C 
ENDROOT
BRANCH   4   7
ATOM      7  N2  UNL     1      15.382   7.676   2.938 +0.34 -0.00    -0.352 N 
ATOM      8  C15 UNL     1      15.103   8.149   4.201 -0.37 +0.00    +0.254 C 
ATOM      9  O3  UNL     1      15.890   8.826   4.854 +0.24 -0.00    -0.268 OA
ATOM     10  H42 UNL     1      14.726   7.019   2.529 -0.48 +0.00    +0.163 HD
BRANCH   8  11
ATOM     11  C16 UNL     1      13.763   7.812   4.762 -0.42 +0.00    +0.066 A 
ATOM     12  C17 UNL     1      13.573   7.221   6.014 -0.38 +0.00    +0.086 A 
ATOM     13  C18 UNL     1      12.287   6.887   6.460 -0.34 +0.00    +0.075 A 
ATOM     14  C19 UNL     1      11.159   7.182   5.683 -0.31 +0.00    +0.086 A 
ATOM     15  C20 UNL     1      11.335   7.807   4.429 -0.37 +0.00    +0.066 A 
ATOM     16  C21 UNL     1      12.637   8.120   3.988 -0.38 +0.00    +0.040 A 
BRANCH  12  17
ATOM     17  O6  UNL     1      14.632   6.901   6.829 +0.09 -0.00    -0.355 OA
ATOM     18  C30 UNL     1      14.294   5.781   7.656 -0.52 +0.00    +0.210 C 
ENDBRANCH  12  17
BRANCH  14  19
ATOM     19  O5  UNL     1       9.877   6.895   6.082 +0.12 -0.00    -0.355 OA
ATOM     20  C29 UNL     1       9.294   5.672   5.642 -0.17 +0.00    +0.210 C 
ENDBRANCH  14  19
BRANCH  15  21
ATOM     21  C22 UNL     1      10.219   8.178   3.496 -0.27 +0.00    +0.254 C 
ATOM     22  O4  UNL     1       9.381   9.006   3.840 -0.29 -0.00    -0.268 OA
ATOM     23  N3  UNL     1      10.189   7.566   2.263 -0.09 -0.00    -0.352 N 
ATOM     24  H43 UNL     1      10.824   6.787   2.123 +0.09 +0.00    +0.163 HD
BRANCH  23  25
ATOM     25  C23 UNL     1       9.072   7.726   1.342 -0.04 +0.00    +0.084 C 
ATOM     26  C24 UNL     1       7.747   7.783   2.127 -0.40 +0.00    +0.027 C 
ATOM     27  C25 UNL     1       6.582   7.257   1.298 -0.43 +0.00    +0.037 C 
ATOM     28  C26 UNL     1       6.780   5.776   0.936 -0.16 +0.00    +0.218 C 
ATOM     29  C27 UNL     1       8.259   5.408   0.721 -0.18 +0.00    +0.037 C 
ATOM     30  C28 UNL     1       9.091   6.610   0.283 -0.31 +0.00    +0.027 C 
BRANCH  28  31
ATOM     31  N4  UNL     1       5.974   5.470  -0.247 -0.15 +0.00    +0.082 N 
ATOM     32  H44 UNL     1       5.464   6.301  -0.546 -0.26 +0.00    +0.313 HD
ATOM     33  H45 UNL     1       6.583   5.218  -1.024 -0.39 +0.00    +0.313 HD
ENDBRANCH  28  31
ENDBRANCH  23  25
ENDBRANCH  15  21
ENDBRANCH   8  11
ENDBRANCH   4   7
BRANCH   1  34
ATOM     34  N1  UNL     1      20.169   9.972   2.662 -0.15 -0.00    -0.352 N 
ATOM     35  C8  UNL     1      20.883   9.711   1.513 -0.15 +0.00    +0.254 C 
ATOM     36  O2  UNL     1      20.374   9.668   0.400 -0.18 -0.00    -0.268 OA
ATOM     37  H41 UNL     1      20.652   9.854   3.548 +0.13 +0.00    +0.163 HD
BRANCH  35  38
ATOM     38  C7  UNL     1      22.348   9.486   1.672 -0.37 +0.00    +0.066 A 
ATOM     39  C2  UNL     1      23.085   9.929   2.774 -0.20 +0.00    +0.086 A 
ATOM     40  C3  UNL     1      24.468   9.720   2.839 -0.51 +0.00    +0.075 A 
ATOM     41  C4  UNL     1      25.138   9.023   1.824 -0.42 +0.00    +0.086 A 
ATOM     42  C5  UNL     1      24.397   8.528   0.729 -0.37 +0.00    +0.066 A 
ATOM     43  C6  UNL     1      23.011   8.772   0.666 -0.44 +0.00    +0.040 A 
BRANCH  39  44
ATOM     44  O1  UNL     1      22.496  10.625   3.802 -0.21 -0.00    -0.355 OA
ATOM     45  C1  UNL     1      23.172  10.347   5.034 -0.26 +0.00    +0.210 C 
ENDBRANCH  39  44
BRANCH  41  46
ATOM     46  O8  UNL     1      26.489   8.785   1.847 -0.28 -0.00    -0.355 OA
ATOM     47  C34 UNL     1      26.995   7.916   2.857 -0.25 +0.00    +0.210 C 
ENDBRANCH  41  46
BRANCH  42  48
ATOM     48  C31 UNL     1      24.983   7.758  -0.420 -0.24 +0.00    +0.254 C 
ATOM     49  O7  UNL     1      26.197   7.747  -0.594 -0.22 -0.00    -0.268 OA
ATOM     50  N5  UNL     1      24.111   7.105  -1.258 -0.26 -0.00    -0.355 N 
ATOM     51  H46 UNL     1      23.130   7.100  -0.997 +0.11 +0.00    +0.162 HD
BRANCH  50  52
ATOM     52  C32 UNL     1      24.528   6.242  -2.353 -0.41 +0.00    +0.152 C 
BRANCH  52  53
ATOM     53  C33 UNL     1      25.447   5.088  -1.913 -0.28 +0.00    +0.286 C 
BRANCH  53  54
ATOM     54  N6  UNL     1      26.844   5.497  -1.769 -0.29 +0.00    +0.079 N 
ATOM     55  H47 UNL     1      26.892   6.488  -1.541 +0.17 +0.00    +0.312 HD
ATOM     56  H48 UNL     1      27.240   5.008  -0.952 +0.17 +0.00    +0.312 HD
ENDBRANCH  53  54
ENDBRANCH  52  53
ENDBRANCH  50  52
ENDBRANCH  42  48
ENDBRANCH  35  38
ENDBRANCH   1  34
TORSDOF 15
TER
