USER    Run = 1
USER    DPF = ligand_349_receptor.dpf
USER  
USER    Estimated Free Energy of Binding    =  +5.42e+004 kcal/mol  [=(1)+(2)+(3)-(4)]
USER    
USER    (1) Final Intermolecular Energy     =  +5.42e+004 kcal/mol
USER        vdW + Hbond + desolv Energy     =  +5.42e+004 kcal/mol
USER        Electrostatic Energy            =   +0.00 kcal/mol
USER    (2) Final Total Internal Energy     =   +0.00 kcal/mol
USER    (3) Torsional Free Energy           =   +1.19 kcal/mol
USER    (4) Unbound System's Energy  [=(2)] =   +0.00 kcal/mol
USER    
USER    
USER    NEWDPF move ligand_349.pdbqt
USER    NEWDPF about 0.000000 0.000000 0.000000
USER    NEWDPF tran0 17.242804 6.031891 2.712666
USER    NEWDPF quaternion0 -0.204164 0.127514 0.036192 0.969921
USER    NEWDPF axisangle0 -0.838736 0.523848 0.148681 28.176817
USER    NEWDPF quat0 -0.838736 0.523848 0.148681 28.176817
USER  keepresnum = 1 
USER  
REMARK  0 active torsions:
REMARK  status: ('A' for Active; 'I' for Inactive)
REMARK       I    between atoms: C2_2  and  O1_55 
REMARK       I    between atoms: C3_3  and  C27_27 
REMARK       I    between atoms: C5_5  and  N1_66 
REMARK       I    between atoms: C8_8  and  C9_9 
REMARK       I    between atoms: C8_8  and  N1_66 
REMARK       I    between atoms: C9_9  and  C10_10 
REMARK       I    between atoms: C9_9  and  N3_68 
REMARK       I    between atoms: C10_10  and  C11_11 
REMARK       I    between atoms: C11_11  and  C12_12 
REMARK       I    between atoms: C12_12  and  C13_13 
REMARK       I    between atoms: C13_13  and  N2_67 
REMARK       I    between atoms: C14_14  and  C15_15 
REMARK       I    between atoms: C14_14  and  N3_68 
REMARK       I    between atoms: C16_16  and  O5_59 
REMARK       I    between atoms: C19_19  and  N4_69 
REMARK       I    between atoms: C21_21  and  C22_22 
REMARK       I    between atoms: C21_21  and  N4_69 
REMARK       I    between atoms: C22_22  and  C23_23 
REMARK       I    between atoms: C22_22  and  N6_71 
REMARK       I    between atoms: C23_23  and  C24_24 
REMARK       I    between atoms: C24_24  and  C25_25 
REMARK       I    between atoms: C25_25  and  C26_26 
REMARK       I    between atoms: C26_26  and  N5_70 
REMARK       I    between atoms: C27_27  and  N7_72 
REMARK       I    between atoms: C28_28  and  C29_29 
REMARK       I    between atoms: C28_28  and  C33_33 
REMARK       I    between atoms: C28_28  and  N7_72 
REMARK       I    between atoms: C29_29  and  C30_30 
REMARK       I    between atoms: C30_30  and  C31_31 
REMARK       I    between atoms: C31_31  and  C32_32 
REMARK       I    between atoms: C32_32  and  N8_73 
REMARK       I    between atoms: C33_33  and  N9_74 
REMARK       I    between atoms: C34_34  and  N9_74 
REMARK       I    between atoms: C36_36  and  C41_41 
REMARK       I    between atoms: C37_37  and  O8_62 
REMARK       I    between atoms: C41_41  and  N10_75 
REMARK       I    between atoms: C42_42  and  C43_43 
REMARK       I    between atoms: C42_42  and  C47_47 
REMARK       I    between atoms: C42_42  and  N10_75 
REMARK       I    between atoms: C43_43  and  C44_44 
REMARK       I    between atoms: C44_44  and  C45_45 
REMARK       I    between atoms: C45_45  and  C46_46 
REMARK       I    between atoms: C46_46  and  N11_76 
REMARK       I    between atoms: C47_47  and  N12_77 
REMARK       I    between atoms: C48_48  and  N12_77 
REMARK       I    between atoms: C52_52  and  C54_54 
REMARK       I    between atoms: C54_54  and  N13_78 
USER                              x       y       z     vdW  Elec       q    Type
USER                           _______ _______ _______ _____ _____    ______ ____
ROOT
ATOM      1  C1  UNL     1      16.749  12.405   4.391+99.99 +0.00    +0.210 C 
ATOM      2  C2  UNL     1      17.315  10.077   4.371 -0.25 +0.00    +0.084 A 
ATOM      3  C3  UNL     1      17.043   8.764   4.800 +0.86 +0.00    +0.067 A 
ATOM      4  C4  UNL     1      17.978   7.741   4.539 +0.94 +0.00    +0.049 A 
ATOM      5  C5  UNL     1      19.169   7.997   3.854 -0.24 +0.00    +0.035 A 
ATOM      6  C6  UNL     1      19.423   9.296   3.424 +0.07 +0.00    +0.032 A 
ATOM      7  C7  UNL     1      18.507  10.325   3.678 +1.37 +0.00    +0.040 A 
ATOM      8  C8  UNL     1      21.275   6.921   3.014+99.99 +0.00    +0.245 C 
ATOM      9  C9  UNL     1      21.915   5.516   2.919+89.76 +0.00    +0.177 C 
ATOM     10  C10 UNL     1      21.135   4.579   1.977+99.99 +0.00    +0.035 C 
ATOM     11  C11 UNL     1      20.800   5.121   0.578+99.99 +0.00    +0.004 C 
ATOM     12  C12 UNL     1      21.982   5.474  -0.330+15.08 +0.00    +0.030 C 
ATOM     13  C13 UNL     1      22.875   4.279  -0.660+99.99 +0.00    +0.267 C 
ATOM     14  C14 UNL     1      24.256   4.683   2.829+59.44 +0.00    +0.255 C 
ATOM     15  C15 UNL     1      25.663   4.954   2.395+15.00 +0.00    +0.067 A 
ATOM     16  C16 UNL     1      26.062   6.070   1.647 +0.35 +0.00    +0.081 A 
ATOM     17  C17 UNL     1      27.400   6.235   1.285 +1.18 +0.00    +0.040 A 
ATOM     18  C18 UNL     1      28.353   5.286   1.666+43.78 +0.00    +0.032 A 
ATOM     19  C19 UNL     1      27.980   4.168   2.410+99.99 +0.00    +0.035 A 
ATOM     20  C20 UNL     1      26.635   4.010   2.769+99.99 +0.00    +0.049 A 
ATOM     21  C21 UNL     1      30.239   3.088   2.605+32.30 +0.00    +0.255 C 
ATOM     22  C22 UNL     1      30.861   1.851   3.296 +2.86 +0.00    +0.309 C 
ATOM     23  C23 UNL     1      31.592   2.255   4.584 +5.95 +0.00    +0.045 C 
ATOM     24  C24 UNL     1      30.689   2.811   5.694+99.99 +0.00    +0.004 C 
ATOM     25  C25 UNL     1      31.502   3.174   6.939+99.99 +0.00    +0.030 C 
ATOM     26  C26 UNL     1      30.604   3.729   8.044+99.99 +0.00    +0.267 C 
ATOM     27  C27 UNL     1      15.811   8.349   5.550+56.40 +0.00    +0.255 C 
ATOM     28  C28 UNL     1      13.648   9.053   6.583 +0.66 +0.00    +0.177 C 
ATOM     29  C29 UNL     1      13.135  10.334   7.260 +4.54 +0.00    +0.035 C 
ATOM     30  C30 UNL     1      13.900  10.754   8.525 +1.46 +0.00    +0.004 C 
ATOM     31  C31 UNL     1      15.350  11.178   8.278+26.96 +0.00    +0.030 C 
ATOM     32  C32 UNL     1      16.034  11.766   9.516+99.99 +0.00    +0.267 C 
ATOM     33  C33 UNL     1      12.584   8.465   5.619 +0.06 +0.00    +0.245 C 
ATOM     34  C34 UNL     1      12.199   6.339   4.332 -0.31 +0.00    +0.035 A 
ATOM     35  C35 UNL     1      10.920   6.610   3.844 -0.30 +0.00    +0.049 A 
ATOM     36  C36 UNL     1      10.260   5.701   2.990 -0.19 +0.00    +0.067 A 
ATOM     37  C37 UNL     1      10.895   4.493   2.629+56.36 +0.00    +0.084 A 
ATOM     38  C38 UNL     1      12.177   4.229   3.123+99.99 +0.00    +0.040 A 
ATOM     39  C39 UNL     1      12.818   5.141   3.967+40.07 +0.00    +0.032 A 
ATOM     40  C40 UNL     1      10.782   2.343   1.570+99.99 +0.00    +0.210 C 
ATOM     41  C41 UNL     1       8.886   6.103   2.529 -0.15 +0.00    +0.255 C 
ATOM     42  C42 UNL     1       6.945   5.527   1.076 -0.14 +0.00    +0.177 C 
ATOM     43  C43 UNL     1       6.532   6.927   0.583 -0.40 +0.00    +0.035 C 
ATOM     44  C44 UNL     1       7.383   7.481  -0.569 -0.27 +0.00    +0.004 C 
ATOM     45  C45 UNL     1       7.039   8.931  -0.933 +8.52 +0.00    +0.030 C 
ATOM     46  C46 UNL     1       5.629   9.093  -1.501+21.86 +0.00    +0.267 C 
ATOM     47  C47 UNL     1       6.621   4.467  -0.005 -0.07 +0.00    +0.245 C 
ATOM     48  C48 UNL     1       7.776   3.277  -1.891 -0.11 +0.00    +0.035 A 
ATOM     49  C49 UNL     1       8.937   3.292  -2.675 -0.07 +0.00    +0.029 A 
ATOM     50  C50 UNL     1       9.090   2.400  -3.737+99.99 +0.00    +0.003 A 
ATOM     51  C51 UNL     1       8.080   1.484  -4.024 +8.43 +0.00    +0.017 A 
ATOM     52  C52 UNL     1       6.912   1.459  -3.251 -0.10 +0.00    +0.034 A 
ATOM     53  C53 UNL     1       6.772   2.349  -2.177 -0.09 +0.00    +0.046 A 
ATOM     54  C54 UNL     1       5.865   0.460  -3.595 -0.07 +0.00    +0.249 C 
ATOM     55  O1  UNL     1      16.386  11.049   4.637 +7.05 -0.00    -0.355 OA
ATOM     56  O2  UNL     1      21.839   7.910   2.549 +1.40 -0.00    -0.271 OA
ATOM     57  O3  UNL     1      23.972   3.634   3.401 +3.70 -0.00    -0.268 OA
ATOM     58  O4  UNL     1      30.932   3.881   1.977 -0.15 -0.00    -0.271 OA
ATOM     59  O5  UNL     1      25.154   7.012   1.246 -0.17 -0.00    -0.360 OA
ATOM     60  O6  UNL     1      15.636   7.176   5.873 +1.31 -0.00    -0.268 OA
ATOM     61  O7  UNL     1      11.574   9.087   5.304 +3.94 -0.00    -0.271 OA
ATOM     62  O8  UNL     1      10.216   3.631   1.802+35.66 -0.00    -0.355 OA
ATOM     63  O9  UNL     1       8.281   7.009   3.090 -0.22 -0.00    -0.268 OA
ATOM     64  O10 UNL     1       5.485   4.024  -0.149 -0.09 -0.00    -0.271 OA
ATOM     65  O11 UNL     1       6.114  -0.510  -4.301 -0.23 -0.00    -0.268 OA
ATOM     66  N1  UNL     1      20.037   6.907   3.640 +7.60 -0.00    -0.325 N 
ATOM     67  N2  UNL     1      23.994   4.708  -1.493 +1.23 +0.00    +0.078 N 
ATOM     68  N3  UNL     1      23.316   5.642   2.556+99.99 -0.00    -0.344 N 
ATOM     69  N4  UNL     1      28.877   3.175   2.831+14.40 -0.00    -0.325 N 
ATOM     70  N5  UNL     1      31.382   4.076   9.228+99.17 +0.00    +0.078 N 
ATOM     71  N6  UNL     1      29.823   0.819   3.556 +1.95 +0.00    +0.092 N 
ATOM     72  N7  UNL     1      14.874   9.309   5.831 +8.86 -0.00    -0.344 N 
ATOM     73  N8  UNL     1      15.497  13.074   9.873+99.99 +0.00    +0.078 N 
ATOM     74  N9  UNL     1      12.922   7.192   5.183 -0.18 -0.00    -0.325 N 
ATOM     75  N10 UNL     1       8.355   5.409   1.463 -0.02 -0.00    -0.344 N 
ATOM     76  N11 UNL     1       5.413  10.469  -1.934+30.68 +0.00    +0.078 N 
ATOM     77  N12 UNL     1       7.704   4.201  -0.833 -0.02 -0.00    -0.325 N 
ATOM     78  N13 UNL     1       4.599   0.671  -3.124 -0.02 -0.00    -0.366 N 
ATOM     79  H56 UNL     1      25.621   7.758   0.828 +0.17 +0.00    +0.217 HD
ATOM     80  H57 UNL     1      19.731   6.017   4.015 +0.32 +0.00    +0.169 HD
ATOM     81  H58 UNL     1      24.607   3.910  -1.660 +0.23 +0.00    +0.312 HD
ATOM     82  H59 UNL     1      24.553   5.383  -0.969 +0.23 +0.00    +0.312 HD
ATOM     83  H60 UNL     1      23.614   6.509   2.106 +0.18 +0.00    +0.163 HD
ATOM     84  H61 UNL     1      28.513   2.392   3.373 -0.29 +0.00    +0.169 HD
ATOM     85  H62 UNL     1      31.893   3.256   9.556 +0.28 +0.00    +0.312 HD
ATOM     86  H63 UNL     1      32.091   4.766   8.980+99.99 +0.00    +0.312 HD
ATOM     87  H64 UNL     1      30.259   0.046   4.063 +6.56 +0.00    +0.313 HD
ATOM     88  H65 UNL     1      29.543   0.421   2.655 -0.00 +0.00    +0.313 HD
ATOM     89  H66 UNL     1      14.991  10.224   5.403 +3.14 +0.00    +0.163 HD
ATOM     90  H67 UNL     1      14.524  12.985  10.162 +1.92 +0.00    +0.312 HD
ATOM     91  H68 UNL     1      15.996  13.431  10.686+99.99 +0.00    +0.312 HD
ATOM     92  H69 UNL     1      13.847   6.870   5.476 +0.12 +0.00    +0.169 HD
ATOM     93  H70 UNL     1       8.783   4.497   1.327 +0.06 +0.00    +0.163 HD
ATOM     94  H71 UNL     1       6.077  10.708  -2.669+38.76 +0.00    +0.312 HD
ATOM     95  H72 UNL     1       4.485  10.553  -2.346 +0.01 +0.00    +0.312 HD
ATOM     96  H73 UNL     1       8.510   4.804  -0.693 +0.07 +0.00    +0.169 HD
ATOM     97  H74 UNL     1       4.295   1.545  -2.720 +0.03 +0.00    +0.159 HD
ATOM     98  H75 UNL     1       3.884   0.032  -3.449 +0.03 +0.00    +0.159 HD
ENDROOT
TORSDOF 39
TER
