USER    Run = 1
USER    DPF = ligand_36_receptor.dpf
USER  
USER    Estimated Free Energy of Binding    =  +7.24e+003 kcal/mol  [=(1)+(2)+(3)-(4)]
USER    
USER    (1) Final Intermolecular Energy     =  +7.24e+003 kcal/mol
USER        vdW + Hbond + desolv Energy     =  +7.24e+003 kcal/mol
USER        Electrostatic Energy            =   +0.00 kcal/mol
USER    (2) Final Total Internal Energy     =   +0.00 kcal/mol
USER    (3) Torsional Free Energy           =   +1.19 kcal/mol
USER    (4) Unbound System's Energy  [=(2)] =   +0.00 kcal/mol
USER    
USER    
USER    NEWDPF move ligand_36.pdbqt
USER    NEWDPF about 0.000000 0.000000 0.000000
USER    NEWDPF tran0 12.399091 7.060678 1.654240
USER    NEWDPF quaternion0 -0.041229 0.530705 0.823178 0.197559
USER    NEWDPF axisangle0 -0.042058 0.541375 0.839729 157.211450
USER    NEWDPF quat0 -0.042058 0.541375 0.839729 157.211450
USER  keepresnum = 1 
USER  
REMARK  0 active torsions:
REMARK  status: ('A' for Active; 'I' for Inactive)
REMARK       I    between atoms: C2_2  and  C3_3 
REMARK       I    between atoms: C2_2  and  O15_62 
REMARK       I    between atoms: C3_3  and  C4_4 
REMARK       I    between atoms: C3_3  and  N14_78 
REMARK       I    between atoms: C4_4  and  N1_63 
REMARK       I    between atoms: C5_5  and  C7_7 
REMARK       I    between atoms: C5_5  and  N1_63 
REMARK       I    between atoms: C7_7  and  N2_64 
REMARK       I    between atoms: C8_8  and  C9_9 
REMARK       I    between atoms: C8_8  and  C13_13 
REMARK       I    between atoms: C8_8  and  N2_64 
REMARK       I    between atoms: C9_9  and  C10_10 
REMARK       I    between atoms: C10_10  and  C11_11 
REMARK       I    between atoms: C11_11  and  N3_65 
REMARK       I    between atoms: C12_12  and  N4_67 
REMARK       I    between atoms: C12_12  and  N5_68 
REMARK       I    between atoms: C13_13  and  N6_69 
REMARK       I    between atoms: C14_14  and  C15_15 
REMARK       I    between atoms: C14_14  and  C25_25 
REMARK       I    between atoms: C14_14  and  N6_69 
REMARK       I    between atoms: C15_15  and  C16_16 
REMARK       I    between atoms: C16_16  and  C17_17 
REMARK       I    between atoms: C17_17  and  C18_18 
REMARK       I    between atoms: C18_18  and  N7_70 
REMARK       I    between atoms: C19_19  and  C20_20 
REMARK       I    between atoms: C19_19  and  N7_70 
REMARK       I    between atoms: C25_25  and  N9_73 
REMARK       I    between atoms: C26_26  and  C27_27 
REMARK       I    between atoms: C26_26  and  C28_28 
REMARK       I    between atoms: C26_26  and  N9_73 
REMARK       I    between atoms: C27_27  and  O6_53 
REMARK       I    between atoms: C28_28  and  N10_74 
REMARK       I    between atoms: C29_29  and  C30_30 
REMARK       I    between atoms: C29_29  and  C32_32 
REMARK       I    between atoms: C29_29  and  N10_74 
REMARK       I    between atoms: C30_30  and  O8_55 
REMARK       I    between atoms: C32_32  and  N11_75 
REMARK       I    between atoms: C33_33  and  C34_34 
REMARK       I    between atoms: C33_33  and  N11_75 
REMARK       I    between atoms: C34_34  and  N12_76 
REMARK       I    between atoms: C35_35  and  C36_36 
REMARK       I    between atoms: C35_35  and  N12_76 
REMARK       I    between atoms: C36_36  and  N13_77 
REMARK       I    between atoms: C37_37  and  C38_38 
REMARK       I    between atoms: C37_37  and  N14_78 
REMARK       I    between atoms: C38_38  and  C39_39 
REMARK       I    between atoms: C38_38  and  N16_80 
REMARK       I    between atoms: C39_39  and  C40_40 
REMARK       I    between atoms: C40_40  and  C41_41 
REMARK       I    between atoms: C41_41  and  N15_79 
REMARK       I    between atoms: C42_42  and  C43_43 
REMARK       I    between atoms: C42_42  and  N16_80 
REMARK       I    between atoms: C43_43  and  C44_44 
REMARK       I    between atoms: C43_43  and  N18_82 
REMARK       I    between atoms: C44_44  and  C45_45 
REMARK       I    between atoms: C45_45  and  C46_46 
REMARK       I    between atoms: C46_46  and  C47_47 
REMARK       I    between atoms: C47_47  and  N17_81 
USER                              x       y       z     vdW  Elec       q    Type
USER                           _______ _______ _______ _____ _____    ______ ____
ROOT
ATOM      1  C1  UNL     1      17.699   6.900   6.140+99.99 +0.00    +0.042 C 
ATOM      2  C2  UNL     1      18.369   7.964   5.277+43.90 +0.00    +0.146 C 
ATOM      3  C3  UNL     1      17.519   8.335   4.043 -0.42 +0.00    +0.205 C 
ATOM      4  C4  UNL     1      16.227   9.081   4.435 -0.04 +0.00    +0.243 C 
ATOM      5  C5  UNL     1      14.089   9.969   3.522+30.80 +0.00    +0.172 C 
ATOM      6  C6  UNL     1      14.383  11.455   3.347+99.99 +0.00    +0.042 C 
ATOM      7  C7  UNL     1      13.043   9.495   2.491+99.99 +0.00    +0.240 C 
ATOM      8  C8  UNL     1      12.104   7.480   1.418 +2.70 +0.00    +0.176 C 
ATOM      9  C9  UNL     1      12.668   6.441   0.447 -0.37 +0.00    +0.036 C 
ATOM     10  C10 UNL     1      13.436   7.065  -0.728 +0.19 +0.00    +0.022 C 
ATOM     11  C11 UNL     1      12.589   7.938  -1.657+99.99 +0.00    +0.121 C 
ATOM     12  C12 UNL     1      10.424   7.038  -2.124 -0.30 +0.00    +0.121 C 
ATOM     13  C13 UNL     1      11.160   6.821   2.441 -0.26 +0.00    +0.241 C 
ATOM     14  C14 UNL     1       8.814   6.171   2.847 -0.20 +0.00    +0.176 C 
ATOM     15  C15 UNL     1       8.257   7.356   3.662 +0.08 +0.00    +0.035 C 
ATOM     16  C16 UNL     1       8.287   8.757   3.034 +2.26 +0.00    +0.004 C 
ATOM     17  C17 UNL     1       7.638   8.938   1.664+29.87 +0.00    +0.020 C 
ATOM     18  C18 UNL     1       6.152   8.604   1.609 +2.14 +0.00    +0.123 C 
ATOM     19  C19 UNL     1       5.892   8.332  -0.876 +2.99 +0.00    +0.268 C 
ATOM     20  C20 UNL     1       4.944   8.665  -1.994 +7.66 +0.00    +0.100 A 
ATOM     21  C21 UNL     1       5.153   8.140  -3.264+99.99 +0.00    +0.035 A 
ATOM     22  C22 UNL     1       4.247   8.472  -4.266+99.85 +0.00    +0.004 A 
ATOM     23  C23 UNL     1       3.173   9.306  -3.966 +4.88 +0.00    +0.017 A 
ATOM     24  C24 UNL     1       3.043   9.780  -2.670 +1.23 +0.00    +0.088 A 
ATOM     25  C25 UNL     1       7.700   5.369   2.139 -0.09 +0.00    +0.241 C 
ATOM     26  C26 UNL     1       7.197   3.978   0.119 -0.07 +0.00    +0.200 C 
ATOM     27  C27 UNL     1       7.758   3.984  -1.304 -0.07 +0.00    +0.199 C 
ATOM     28  C28 UNL     1       6.836   2.545   0.563 -0.07 +0.00    +0.243 C 
ATOM     29  C29 UNL     1       6.462   1.126   2.586 +0.06 +0.00    +0.205 C 
ATOM     30  C30 UNL     1       7.502   0.394   3.465+50.07 +0.00    +0.146 C 
ATOM     31  C31 UNL     1       8.007   1.211   4.653+99.99 +0.00    +0.042 C 
ATOM     32  C32 UNL     1       5.217   1.528   3.415 -0.25 +0.00    +0.243 C 
ATOM     33  C33 UNL     1       3.361   3.150   3.635 -0.07 +0.00    +0.225 C 
ATOM     34  C34 UNL     1       3.579   4.120   4.801 -0.10 +0.00    +0.235 C 
ATOM     35  C35 UNL     1       5.039   5.822   5.798 -0.17 +0.00    +0.225 C 
ATOM     36  C36 UNL     1       4.329   7.115   5.399 +5.30 +0.00    +0.233 C 
ATOM     37  C37 UNL     1      18.044   9.236   1.772 -0.26 +0.00    +0.241 C 
ATOM     38  C38 UNL     1      19.193   9.891   0.974 -0.19 +0.00    +0.177 C 
ATOM     39  C39 UNL     1      18.718  10.341  -0.409 +0.54 +0.00    +0.044 C 
ATOM     40  C40 UNL     1      19.770  11.188  -1.125+21.09 +0.00    +0.105 C 
ATOM     41  C41 UNL     1      19.297  11.642  -2.488+99.99 +0.00    +0.215 C 
ATOM     42  C42 UNL     1      21.118   8.637   1.927 +5.79 +0.00    +0.251 C 
ATOM     43  C43 UNL     1      22.134   7.505   1.634+25.38 +0.00    +0.308 C 
ATOM     44  C44 UNL     1      23.019   7.167   2.847+26.83 +0.00    +0.045 C 
ATOM     45  C45 UNL     1      24.054   8.230   3.250 -0.10 +0.00    +0.004 C 
ATOM     46  C46 UNL     1      25.454   8.024   2.655 -0.57 +0.00    +0.030 C 
ATOM     47  C47 UNL     1      26.199   6.839   3.275 +2.64 +0.00    +0.267 C 
ATOM     48  O1  UNL     1      16.036   9.569   5.545+14.03 -0.00    -0.271 OA
ATOM     49  O2  UNL     1      12.124  10.201   2.083+99.99 -0.00    -0.271 OA
ATOM     50  O3  UNL     1      11.500   6.564   3.594 -0.22 -0.00    -0.271 OA
ATOM     51  O4  UNL     1       6.862   7.601  -1.058 +1.06 -0.00    -0.266 OA
ATOM     52  O5  UNL     1       6.579   5.178   2.612 -0.08 -0.00    -0.271 OA
ATOM     53  O6  UNL     1       9.187   3.872  -1.261 -0.03 -0.00    -0.398 OA
ATOM     54  O7  UNL     1       6.257   1.754  -0.178 -0.08 -0.00    -0.271 OA
ATOM     55  O8  UNL     1       6.997  -0.853   3.949+99.99 -0.00    -0.393 OA
ATOM     56  O9  UNL     1       4.776   0.815   4.316 -0.33 -0.00    -0.271 OA
ATOM     57  O10 UNL     1       2.685   4.377   5.610 -0.07 -0.00    -0.272 OA
ATOM     58  O11 UNL     1       4.810   7.957   4.649+99.99 -0.00    -0.272 OA
ATOM     59  O12 UNL     1      17.044   8.736   1.264 -0.35 -0.00    -0.271 OA
ATOM     60  O13 UNL     1      18.230  11.325  -2.996+16.81 -0.00    -0.274 OA
ATOM     61  O14 UNL     1      21.027   9.230   3.001 -0.32 -0.00    -0.271 OA
ATOM     62  O15 UNL     1      19.628   7.409   4.853 +2.30 -0.00    -0.393 OA
ATOM     63  N1  UNL     1      15.308   9.171   3.409 -0.18 -0.00    -0.346 N 
ATOM     64  N2  UNL     1      13.166   8.162   2.145+12.22 -0.00    -0.346 N 
ATOM     65  N3  UNL     1      11.663   7.108  -2.417 -0.09 -0.00    -0.372 N 
ATOM     66  H3  UNL     1      12.017   6.567  -3.207 +0.08 +0.00    +0.161 HD
ATOM     67  N4  UNL     1       9.722   7.634  -1.135 -0.21 -0.00    -0.279 NA
ATOM     68  N5  UNL     1       9.647   6.216  -2.865 -0.10 -0.00    -0.279 NA
ATOM     69  N6  UNL     1       9.904   6.533   1.948 -0.11 -0.00    -0.346 N 
ATOM     70  N7  UNL     1       5.559   8.923   0.324+61.63 -0.00    -0.356 N 
ATOM     71  N8  UNL     1       3.901   9.480  -1.672+49.53 -0.00    -0.361 N 
ATOM     72  H8  UNL     1       3.776   9.844  -0.727+99.99 +0.00    +0.165 HD
ATOM     73  N9  UNL     1       8.108   4.692   1.020 -0.01 -0.00    -0.344 N 
ATOM     74  N10 UNL     1       7.037   2.285   1.902 -0.09 -0.00    -0.344 N 
ATOM     75  N11 UNL     1       4.580   2.680   3.004 -0.03 -0.00    -0.350 N 
ATOM     76  N12 UNL     1       4.781   4.795   4.808 -0.05 -0.00    -0.351 N 
ATOM     77  N13 UNL     1       3.049   7.229   5.868 -0.06 -0.00    -0.369 N 
ATOM     78  N14 UNL     1      18.281   9.196   3.128 -0.22 -0.00    -0.344 N 
ATOM     79  N15 UNL     1      20.180  12.444  -3.149+91.91 -0.00    -0.370 N 
ATOM     80  N16 UNL     1      20.275   8.907   0.860+13.51 -0.00    -0.346 N 
ATOM     81  N17 UNL     1      27.545   6.723   2.721+19.57 +0.00    +0.078 N 
ATOM     82  N18 UNL     1      22.919   7.840   0.432 -0.35 +0.00    +0.092 N 
ATOM     83  H56 UNL     1       9.537   4.550  -1.879 +0.09 +0.00    +0.209 HD
ATOM     84  H57 UNL     1       6.165  -0.664   4.432 +0.14 +0.00    +0.210 HD
ATOM     85  H58 UNL     1      20.198   8.146   4.560 +0.27 +0.00    +0.210 HD
ATOM     86  H59 UNL     1      15.638   8.950   2.467 +0.03 +0.00    +0.163 HD
ATOM     87  H60 UNL     1      13.690   7.597   2.807 -0.08 +0.00    +0.163 HD
ATOM     88  H61 UNL     1      10.051   8.563  -0.892 -0.13 +0.00    +0.126 HD
ATOM     89  H62 UNL     1       8.703   7.634  -1.246 +0.04 +0.00    +0.126 HD
ATOM     90  H63 UNL     1       8.783   6.655  -3.161 -0.13 +0.00    +0.126 HD
ATOM     91  H64 UNL     1      10.182   5.927  -3.683 +0.07 +0.00    +0.126 HD
ATOM     92  H65 UNL     1       9.676   6.855   1.009 +0.09 +0.00    +0.163 HD
ATOM     93  H66 UNL     1       4.680   9.439   0.318+99.99 +0.00    +0.162 HD
ATOM     94  H67 UNL     1       9.083   4.721   0.729 +0.06 +0.00    +0.163 HD
ATOM     95  H68 UNL     1       7.378   3.047   2.473 +0.07 +0.00    +0.163 HD
ATOM     96  H69 UNL     1       5.044   3.274   2.328 +0.06 +0.00    +0.163 HD
ATOM     97  H70 UNL     1       5.334   4.818   3.952 +0.07 +0.00    +0.163 HD
ATOM     98  H71 UNL     1       2.497   7.979   5.476 +0.05 +0.00    +0.159 HD
ATOM     99  H72 UNL     1       2.552   6.360   6.073 +0.05 +0.00    +0.159 HD
ATOM    100  H73 UNL     1      19.204   9.500   3.432 +0.11 +0.00    +0.163 HD
ATOM    101  H74 UNL     1      20.968  12.881  -2.692 +0.84 +0.00    +0.159 HD
ATOM    102  H75 UNL     1      19.874  12.826  -4.036 +0.26 +0.00    +0.159 HD
ATOM    103  H76 UNL     1      20.120   8.140   0.213+38.10 +0.00    +0.163 HD
ATOM    104  H77 UNL     1      27.487   6.600   1.711 +0.22 +0.00    +0.312 HD
ATOM    105  H78 UNL     1      28.054   7.594   2.871 +0.04 +0.00    +0.312 HD
ATOM    106  H79 UNL     1      22.291   8.070  -0.336 +0.24 +0.00    +0.313 HD
ATOM    107  H80 UNL     1      23.454   8.690   0.610 +0.25 +0.00    +0.313 HD
ENDROOT
TORSDOF 44
TER
