USER    Run = 1
USER    DPF = ligand_121_receptor.dpf
USER  
USER    Estimated Free Energy of Binding    =  -10.77 kcal/mol  [=(1)+(2)+(3)-(4)]
USER    Estimated Inhibition Constant, Ki   =   12.74 nM (nanomolar)  [Temperature = 298.15 K]
USER    
USER    (1) Final Intermolecular Energy     =  -11.96 kcal/mol
USER        vdW + Hbond + desolv Energy     =  -11.96 kcal/mol
USER        Electrostatic Energy            =   +0.00 kcal/mol
USER    (2) Final Total Internal Energy     =   -3.49 kcal/mol
USER    (3) Torsional Free Energy           =   +1.19 kcal/mol
USER    (4) Unbound System's Energy  [=(2)] =   -3.49 kcal/mol
USER    
USER    
USER    NEWDPF move ligand_121.pdbqt
USER    NEWDPF about 0.000000 0.000000 0.000000
USER    NEWDPF tran0 19.409597 8.502019 1.403223
USER    NEWDPF quaternion0 0.346744 -0.082332 -0.020108 0.934123
USER    NEWDPF axisangle0 0.971404 -0.230653 -0.056332 41.826118
USER    NEWDPF quat0 0.971404 -0.230653 -0.056332 41.826118
USER    NEWDPF dihe0 -163.21 -14.04 82.19 -6.09 -97.57 -4.15 103.94 18.38 -19.86 86.00 88.17 -149.56 
USER  keepresnum = 1 
USER  
REMARK  12 active torsions:
REMARK  status: ('A' for Active; 'I' for Inactive)
REMARK    1  A    between atoms: C3_3  and  N2_50 
REMARK    2  A    between atoms: C6_6  and  C8_8 
REMARK       I    between atoms: C8_8  and  N1_49 
REMARK    3  A    between atoms: C9_9  and  N1_49 
REMARK    4  A    between atoms: C13_13  and  O5_42 
REMARK    5  A    between atoms: C16_16  and  S1_53 
REMARK       I    between atoms: C19_19  and  N2_50 
REMARK       I    between atoms: C19_19  and  N3_51 
REMARK    6  A    between atoms: C20_20  and  N3_51 
REMARK    7  A    between atoms: C23_23  and  C26_26 
REMARK       I    between atoms: C26_26  and  N4_52 
REMARK    8  A    between atoms: C27_27  and  N4_52 
REMARK    9  A    between atoms: C31_31  and  O11_48 
REMARK   10  A    between atoms: C34_34  and  S2_54 
REMARK   11  A    between atoms: O4_41  and  S1_53 
REMARK   12  A    between atoms: O10_47  and  S2_54 
USER                              x       y       z     vdW  Elec       q    Type
USER                           _______ _______ _______ _____ _____    ______ ____
ROOT
ATOM      1  C19 UNL     1      19.751   9.356   2.844 -0.15 +0.00    +0.325 C 
ATOM      2  O6  UNL     1      19.868   8.142   2.924 +1.13 -0.00    -0.247 OA
ATOM      3  N2  UNL     1      18.557  10.059   2.901 -0.20 -0.00    -0.308 N 
ATOM      4  N3  UNL     1      20.806  10.248   2.693 -0.18 -0.00    -0.308 N 
ATOM      5  H28 UNL     1      18.609  10.986   2.507 +0.14 +0.00    +0.170 HD
ATOM      6  H29 UNL     1      20.677  11.077   3.256 +0.17 +0.00    +0.170 HD
ENDROOT
BRANCH   3   7
ATOM      7  C3  UNL     1      17.270   9.553   3.190 -0.47 +0.00    +0.042 A 
ATOM      8  C2  UNL     1      16.552   8.884   2.174 -0.48 -0.00    -0.034 A 
ATOM      9  C1  UNL     1      17.113   8.686   0.790 -0.46 +0.00    +0.050 C 
ATOM     10  C7  UNL     1      15.263   8.386   2.449 -0.07 +0.00    +0.026 A 
ATOM     11  C6  UNL     1      14.690   8.548   3.715 -0.43 +0.00    +0.033 A 
ATOM     12  C5  UNL     1      15.387   9.235   4.705 +0.53 +0.00    +0.019 A 
ATOM     13  C4  UNL     1      16.669   9.729   4.444 -0.18 +0.00    +0.031 A 
BRANCH  11  14
ATOM     14  C8  UNL     1      13.327   8.032   4.023 -0.32 +0.00    +0.256 C 
ATOM     15  O1  UNL     1      12.734   8.499   4.985 -0.23 -0.00    -0.267 OA
ATOM     16  N1  UNL     1      12.898   7.018   3.183 -0.24 -0.00    -0.322 N 
ATOM     17  H27 UNL     1      13.601   6.647   2.564 -0.39 +0.00    +0.169 HD
BRANCH  16  18
ATOM     18  C9  UNL     1      11.626   6.381   3.162 -0.29 +0.00    +0.046 A 
ATOM     19  C10 UNL     1      11.215   5.569   4.273 -0.27 +0.00    +0.003 A 
ATOM     20  C11 UNL     1      11.998   5.401   5.449 -0.36 +0.00    +0.017 A 
ATOM     21  C15 UNL     1       9.954   4.897   4.220 -0.27 +0.00    +0.002 A 
ATOM     22  C12 UNL     1      11.595   4.603   6.520 -0.41 +0.00    +0.037 A 
ATOM     23  C13 UNL     1      10.388   3.945   6.445 -0.41 +0.00    +0.066 A 
ATOM     24  C14 UNL     1       9.581   4.084   5.323 -0.35 +0.00    +0.050 A 
ATOM     25  C16 UNL     1       9.145   5.072   3.067 -0.16 +0.00    +0.083 A 
ATOM     26  C17 UNL     1       9.564   5.867   1.997 -0.21 +0.00    +0.028 A 
ATOM     27  C18 UNL     1      10.793   6.510   2.048 -0.30 +0.00    +0.032 A 
BRANCH  23  28
ATOM     28  O5  UNL     1       9.943   3.149   7.456 -0.32 -0.00    -0.361 OA
ATOM     29  H24 UNL     1       9.220   2.590   7.129 +0.10 +0.00    +0.217 HD
ENDBRANCH  23  28
BRANCH  25  30
ATOM     30  S1  UNL     1       7.541   4.311   2.910 -0.21 +0.00    +0.130 S 
ATOM     31  O2  UNL     1       6.642   4.923   3.868 +0.04 -0.00    -0.598 OA
ATOM     32  O3  UNL     1       7.209   4.245   1.506 +0.07 -0.00    -0.598 OA
BRANCH  30  33
ATOM     33  O4  UNL     1       7.738   2.807   3.460 -0.21 -0.00    -0.292 OA
ATOM     34  H23 UNL     1       7.305   2.757   4.338 -0.19 +0.00    +0.232 HD
ENDBRANCH  30  33
ENDBRANCH  25  30
ENDBRANCH  16  18
ENDBRANCH  11  14
ENDBRANCH   3   7
BRANCH   4  35
ATOM     35  C20 UNL     1      22.152   9.885   2.454 -0.28 +0.00    +0.042 A 
ATOM     36  C21 UNL     1      23.191   9.976   3.401 -0.47 -0.00    -0.034 A 
ATOM     37  C22 UNL     1      24.500   9.615   3.014 -0.58 +0.00    +0.026 A 
ATOM     38  C37 UNL     1      23.002  10.421   4.826 -0.45 +0.00    +0.050 C 
ATOM     39  C23 UNL     1      24.764   9.103   1.737 -0.44 +0.00    +0.033 A 
ATOM     40  C24 UNL     1      23.720   8.973   0.823 -0.43 +0.00    +0.019 A 
ATOM     41  C25 UNL     1      22.425   9.350   1.183 -0.43 +0.00    +0.031 A 
BRANCH  39  42
ATOM     42  C26 UNL     1      26.137   8.698   1.314 -0.30 +0.00    +0.256 C 
ATOM     43  O7  UNL     1      27.012   9.555   1.311 +0.32 -0.00    -0.267 OA
ATOM     44  N4  UNL     1      26.258   7.378   0.916 -0.16 -0.00    -0.322 N 
ATOM     45  H30 UNL     1      25.392   6.872   0.836 +0.13 +0.00    +0.169 HD
BRANCH  44  46
ATOM     46  C27 UNL     1      27.434   6.685   0.513 -0.29 +0.00    +0.046 A 
ATOM     47  C28 UNL     1      27.328   5.534  -0.341 -0.30 +0.00    +0.003 A 
ATOM     48  C29 UNL     1      26.088   5.044  -0.837 -0.42 +0.00    +0.017 A 
ATOM     49  C33 UNL     1      28.513   4.834  -0.728 -0.22 +0.00    +0.002 A 
ATOM     50  C30 UNL     1      25.996   3.930  -1.671 -0.40 +0.00    +0.037 A 
ATOM     51  C31 UNL     1      27.146   3.271  -2.043 -0.28 +0.00    +0.066 A 
ATOM     52  C32 UNL     1      28.384   3.706  -1.586 -0.20 +0.00    +0.050 A 
ATOM     53  C34 UNL     1      29.761   5.305  -0.239 -0.12 +0.00    +0.083 A 
ATOM     54  C35 UNL     1      29.845   6.428   0.585 -0.22 +0.00    +0.028 A 
ATOM     55  C36 UNL     1      28.691   7.106   0.957 -0.30 +0.00    +0.032 A 
BRANCH  51  56
ATOM     56  O11 UNL     1      27.026   2.193  -2.868 -0.20 -0.00    -0.361 OA
ATOM     57  H26 UNL     1      27.098   1.382  -2.338 -0.38 +0.00    +0.217 HD
ENDBRANCH  51  56
BRANCH  53  58
ATOM     58  S2  UNL     1      31.296   4.484  -0.627 -0.08 +0.00    +0.130 S 
ATOM     59  O8  UNL     1      32.352   5.069   0.172 +0.05 -0.00    -0.598 OA
ATOM     60  O9  UNL     1      31.403   4.382  -2.065 +0.05 -0.00    -0.598 OA
BRANCH  58  61
ATOM     61  O10 UNL     1      31.123   2.996  -0.027 -0.09 -0.00    -0.292 OA
ATOM     62  H25 UNL     1      31.859   2.850   0.606 +0.10 +0.00    +0.232 HD
ENDBRANCH  58  61
ENDBRANCH  53  58
ENDBRANCH  44  46
ENDBRANCH  39  42
ENDBRANCH   4  35
TORSDOF 12
TER
