USER    Run = 1
USER    DPF = ligand_176_receptor.dpf
USER  
USER    Estimated Free Energy of Binding    =   -9.74 kcal/mol  [=(1)+(2)+(3)-(4)]
USER    Estimated Inhibition Constant, Ki   =   73.02 nM (nanomolar)  [Temperature = 298.15 K]
USER    
USER    (1) Final Intermolecular Energy     =  -10.93 kcal/mol
USER        vdW + Hbond + desolv Energy     =  -10.93 kcal/mol
USER        Electrostatic Energy            =   +0.00 kcal/mol
USER    (2) Final Total Internal Energy     =   -1.07 kcal/mol
USER    (3) Torsional Free Energy           =   +1.19 kcal/mol
USER    (4) Unbound System's Energy  [=(2)] =   -1.07 kcal/mol
USER    
USER    
USER    NEWDPF move ligand_176.pdbqt
USER    NEWDPF about 0.000000 0.000000 0.000000
USER    NEWDPF tran0 15.212184 5.254173 5.681074
USER    NEWDPF quaternion0 0.713106 0.068435 0.346998 -0.605300
USER    NEWDPF axisangle0 0.895866 0.085974 0.435928 -105.499096
USER    NEWDPF quat0 0.895866 0.085974 0.435928 -105.499096
USER    NEWDPF dihe0 98.74 116.68 43.16 128.44 71.66 93.57 -80.31 113.97 165.40 -38.57 145.61 167.47 105.90 178.03 -177.09 177.63 17.31 -129.07 -153.58 -180.00 123.98 -58.03 
USER  keepresnum = 1 
USER  
REMARK  22 active torsions:
REMARK  status: ('A' for Active; 'I' for Inactive)
REMARK    1  A    between atoms: C2_2  and  C3_3 
REMARK    2  A    between atoms: C3_3  and  N1_40 
REMARK    3  A    between atoms: C4_4  and  C5_5 
REMARK    4  A    between atoms: C4_4  and  N1_40 
REMARK    5  A    between atoms: C5_5  and  C6_6 
REMARK    6  A    between atoms: C6_6  and  N2_41 
REMARK       I    between atoms: C7_7  and  N2_41 
REMARK    7  A    between atoms: C7_7  and  O2_48 
REMARK    8  A    between atoms: C8_8  and  O2_48 
REMARK    9  A    between atoms: C12_12  and  C13_13 
REMARK       I    between atoms: C12_12  and  N1_40 
REMARK   10  A    between atoms: C18_18  and  C21_21 
REMARK       I    between atoms: C21_21  and  N3_42 
REMARK   11  A    between atoms: C22_22  and  N3_42 
REMARK   12  A    between atoms: C26_26  and  C28_28 
REMARK   13  A    between atoms: C28_28  and  O5_51 
REMARK   14  A    between atoms: C29_29  and  C30_30 
REMARK   15  A    between atoms: C29_29  and  O5_51 
REMARK   16  A    between atoms: C30_30  and  O6_52 
REMARK   17  A    between atoms: C31_31  and  C32_32 
REMARK   18  A    between atoms: C31_31  and  O6_52 
REMARK   19  A    between atoms: C32_32  and  N4_43 
REMARK       I    between atoms: C33_33  and  N4_43 
REMARK   20  A    between atoms: C33_33  and  O8_54 
REMARK   21  A    between atoms: C34_34  and  O8_54 
REMARK   22  A    between atoms: C38_38  and  N6_46 
USER                              x       y       z     vdW  Elec       q    Type
USER                           _______ _______ _______ _____ _____    ______ ____
ROOT
ATOM      1  C13 UNL     1      10.212   5.079   3.679 -0.26 +0.00    +0.017 C 
ATOM      2  C14 UNL     1      10.933   5.483   4.737 -0.34 +0.00    +0.026 C 
ATOM      3  C15 UNL     1      12.117   6.343   4.571 -0.34 -0.00    -0.009 A 
ATOM      4  C16 UNL     1      12.160   7.430   3.664 -0.38 +0.00    +0.044 A 
ATOM      5  C17 UNL     1      13.324   8.205   3.586 -0.35 +0.00    +0.047 A 
ATOM      6  C18 UNL     1      14.447   7.904   4.366 -0.47 +0.00    +0.034 A 
ATOM      7  C19 UNL     1      14.390   6.840   5.272 -0.43 +0.00    +0.018 A 
ATOM      8  C20 UNL     1      13.233   6.067   5.376 -0.41 +0.00    +0.014 A 
ATOM      9  C38 UNL     1      10.293   7.023   2.262 -0.35 +0.00    +0.058 C 
ATOM     10  C39 UNL     1      10.482   5.516   2.277 +0.04 +0.00    +0.114 C 
ATOM     11  N5  UNL     1      11.074   7.865   2.876 -0.05 -0.00    -0.350 N 
ATOM     12  H5  UNL     1      10.897   8.866   2.784 +0.25 +0.00    +0.167 HD
ENDROOT
BRANCH   6  13
ATOM     13  C21 UNL     1      15.701   8.710   4.290 -0.27 +0.00    +0.256 C 
ATOM     14  N3  UNL     1      16.624   8.271   3.358 -0.30 -0.00    -0.323 N 
ATOM     15  H53 UNL     1      16.441   7.383   2.910 -0.14 +0.00    +0.169 HD
ATOM     16  O4  UNL     1      15.835   9.643   5.073 +0.67 -0.00    -0.267 OA
BRANCH  14  17
ATOM     17  C22 UNL     1      17.860   8.869   3.033 -0.49 +0.00    +0.035 A 
ATOM     18  C23 UNL     1      17.819  10.151   2.473 -0.44 +0.00    +0.029 A 
ATOM     19  C24 UNL     1      18.998  10.814   2.125 -0.49 +0.00    +0.003 A 
ATOM     20  C25 UNL     1      20.231  10.201   2.334 -0.43 +0.00    +0.009 A 
ATOM     21  C26 UNL     1      20.296   8.917   2.891 -0.03 -0.00    -0.032 A 
ATOM     22  C27 UNL     1      19.101   8.268   3.254 -0.03 +0.00    +0.038 A 
BRANCH  21  23
ATOM     23  C28 UNL     1      21.642   8.280   3.154 +1.11 +0.00    +0.206 C 
BRANCH  23  24
ATOM     24  O5  UNL     1      22.472   9.058   4.014 +0.02 -0.00    -0.385 OA
BRANCH  24  25
ATOM     25  C29 UNL     1      22.612  10.416   3.581 -0.15 +0.00    +0.194 C 
BRANCH  25  26
ATOM     26  C30 UNL     1      23.813  11.038   4.292 -0.07 +0.00    +0.193 C 
BRANCH  26  27
ATOM     27  O6  UNL     1      24.945  11.018   3.414 -0.62 -0.00    -0.387 OA
BRANCH  27  28
ATOM     28  C31 UNL     1      24.822  10.080   2.345 -0.41 +0.00    +0.187 C 
BRANCH  28  29
ATOM     29  C32 UNL     1      25.950   9.043   2.331 -0.51 +0.00    +0.151 C 
BRANCH  29  30
ATOM     30  N4  UNL     1      25.491   7.720   1.972 -0.17 -0.00    -0.335 N 
ATOM     31  C33 UNL     1      24.491   7.507   1.072 -0.21 +0.00    +0.361 C 
ATOM     32  O7  UNL     1      23.830   8.384   0.541 -0.31 -0.00    -0.238 OA
ATOM     33  H54 UNL     1      26.006   6.900   2.259 +0.12 +0.00    +0.164 HD
BRANCH  31  34
ATOM     34  O8  UNL     1      24.371   6.177   0.869 -0.28 -0.00    -0.294 OA
BRANCH  34  35
ATOM     35  C34 UNL     1      25.193   5.503  -0.118 -0.50 +0.00    +0.061 C 
ATOM     36  C35 UNL     1      26.675   5.537   0.273 -0.36 +0.00    +0.046 C 
ATOM     37  C36 UNL     1      24.701   4.075  -0.374 -0.48 +0.00    +0.046 C 
ATOM     38  C37 UNL     1      25.008   6.323  -1.405 -0.53 +0.00    +0.046 C 
ENDBRANCH  34  35
ENDBRANCH  31  34
ENDBRANCH  29  30
ENDBRANCH  28  29
ENDBRANCH  27  28
ENDBRANCH  26  27
ENDBRANCH  25  26
ENDBRANCH  24  25
ENDBRANCH  23  24
ENDBRANCH  21  23
ENDBRANCH  14  17
ENDBRANCH   6  13
BRANCH   9  39
ATOM     39  N6  UNL     1       9.206   7.524   1.590 -0.15 -0.00    -0.292 NA
ATOM     40  H55 UNL     1       9.386   7.561   0.591 +0.07 +0.00    +0.125 HD
ATOM     41  H56 UNL     1       8.886   8.426   1.938 +0.09 +0.00    +0.125 HD
ENDBRANCH   9  39
BRANCH   1  42
ATOM     42  C12 UNL     1       8.966   4.304   3.886 -0.18 +0.00    +0.250 C 
ATOM     43  N1  UNL     1       7.754   4.939   3.660 -0.04 -0.00    -0.348 N 
ATOM     44  O3  UNL     1       9.070   3.147   4.292 -0.26 -0.00    -0.268 OA
BRANCH  43  45
ATOM     45  C3  UNL     1       7.595   6.361   3.323 -0.20 +0.00    +0.125 C 
BRANCH  45  46
ATOM     46  C2  UNL     1       6.374   6.623   2.439 -0.31 +0.00    +0.015 C 
ATOM     47  C1  UNL     1       6.659   6.273   0.988 -0.31 +0.00    +0.006 C 
ENDBRANCH  45  46
ENDBRANCH  43  45
BRANCH  43  48
ATOM     48  C4  UNL     1       6.532   4.148   3.833 -0.18 +0.00    +0.127 C 
BRANCH  48  49
ATOM     49  C5  UNL     1       5.891   3.673   2.523 -0.14 +0.00    +0.040 C 
BRANCH  49  50
ATOM     50  C6  UNL     1       4.703   2.737   2.708 -0.13 +0.00    +0.126 C 
BRANCH  50  51
ATOM     51  N2  UNL     1       4.589   1.783   1.626 -0.07 -0.00    -0.337 N 
ATOM     52  C7  UNL     1       5.649   1.394   0.865 -0.05 +0.00    +0.361 C 
ATOM     53  O1  UNL     1       6.814   1.682   1.081 -0.16 -0.00    -0.238 OA
ATOM     54  H52 UNL     1       3.684   1.583   1.223 +0.05 +0.00    +0.164 HD
BRANCH  52  55
ATOM     55  O2  UNL     1       5.187   0.636  -0.155 -0.09 -0.00    -0.294 OA
BRANCH  55  56
ATOM     56  C8  UNL     1       5.033   1.200  -1.484 -0.13 +0.00    +0.061 C 
ATOM     57  C9  UNL     1       3.513   1.308  -1.685 -0.10 +0.00    +0.046 C 
ATOM     58  C10 UNL     1       5.602   0.263  -2.555 -0.12 +0.00    +0.046 C 
ATOM     59  C11 UNL     1       5.639   2.604  -1.568 -0.10 +0.00    +0.046 C 
ENDBRANCH  55  56
ENDBRANCH  52  55
ENDBRANCH  50  51
ENDBRANCH  49  50
ENDBRANCH  48  49
ENDBRANCH  43  48
ENDBRANCH   1  42
TORSDOF 22
TER
