USER    Run = 1
USER    DPF = ligand_153_receptor.dpf
USER  
USER    Estimated Free Energy of Binding    =  +3.03e+003 kcal/mol  [=(1)+(2)+(3)-(4)]
USER    
USER    (1) Final Intermolecular Energy     =  +3.02e+003 kcal/mol
USER        vdW + Hbond + desolv Energy     =  +3.02e+003 kcal/mol
USER        Electrostatic Energy            =   +0.00 kcal/mol
USER    (2) Final Total Internal Energy     =   +0.00 kcal/mol
USER    (3) Torsional Free Energy           =   +1.19 kcal/mol
USER    (4) Unbound System's Energy  [=(2)] =   +0.00 kcal/mol
USER    
USER    
USER    NEWDPF move ligand_153.pdbqt
USER    NEWDPF about 0.000000 0.000000 0.000000
USER    NEWDPF tran0 10.821582 7.137120 1.976537
USER    NEWDPF quaternion0 0.674293 0.234962 -0.494043 -0.496028
USER    NEWDPF axisangle0 0.776561 0.270598 -0.568973 -120.524817
USER    NEWDPF quat0 0.776561 0.270598 -0.568973 -120.524817
USER  keepresnum = 1 
USER  
REMARK  0 active torsions:
REMARK  status: ('A' for Active; 'I' for Inactive)
REMARK       I    between atoms: C3_3  and  C12_12 
REMARK       I    between atoms: C4_4  and  C6_6 
REMARK       I    between atoms: C5_5  and  N3_47 
REMARK       I    between atoms: C6_6  and  C7_7 
REMARK       I    between atoms: C6_6  and  N5_49 
REMARK       I    between atoms: C7_7  and  C8_8 
REMARK       I    between atoms: C8_8  and  N4_48 
REMARK       I    between atoms: C9_9  and  C10_10 
REMARK       I    between atoms: C9_9  and  N5_49 
REMARK       I    between atoms: C10_10  and  C11_11 
REMARK       I    between atoms: C10_10  and  N7_51 
REMARK       I    between atoms: C11_11  and  N6_50 
REMARK       I    between atoms: C12_12  and  N8_52 
REMARK       I    between atoms: C13_13  and  C14_14 
REMARK       I    between atoms: C13_13  and  C18_18 
REMARK       I    between atoms: C13_13  and  N8_52 
REMARK       I    between atoms: C14_14  and  C15_15 
REMARK       I    between atoms: C14_14  and  O4_67 
REMARK       I    between atoms: C18_18  and  N11_56 
REMARK       I    between atoms: C19_19  and  C21_21 
REMARK       I    between atoms: C19_19  and  N11_56 
REMARK       I    between atoms: C21_21  and  C22_22 
REMARK       I    between atoms: C21_21  and  O10_75 
REMARK       I    between atoms: C22_22  and  C24_24 
REMARK       I    between atoms: C24_24  and  N12_57 
REMARK       I    between atoms: C25_25  and  C26_26 
REMARK       I    between atoms: C25_25  and  C28_28 
REMARK       I    between atoms: C25_25  and  N12_57 
REMARK       I    between atoms: C26_26  and  O7_71 
REMARK       I    between atoms: C28_28  and  N13_58 
REMARK       I    between atoms: C29_29  and  C30_30 
REMARK       I    between atoms: C29_29  and  N13_58 
REMARK       I    between atoms: C30_30  and  C31_31 
REMARK       I    between atoms: C32_32  and  C34_34 
REMARK       I    between atoms: C35_35  and  C37_37 
REMARK       I    between atoms: C37_37  and  N16_63 
REMARK       I    between atoms: C38_38  and  C39_39 
REMARK       I    between atoms: C38_38  and  N16_63 
REMARK       I    between atoms: C39_39  and  C40_40 
REMARK       I    between atoms: C40_40  and  S3_79 
USER                              x       y       z     vdW  Elec       q    Type
USER                           _______ _______ _______ _____ _____    ______ ____
ROOT
ATOM      1  C1  UNL     1       6.423   7.330   7.179+31.69 +0.00    +0.054 C 
ATOM      2  C2  UNL     1       6.877   6.401   6.102 +5.59 +0.00    +0.009 A 
ATOM      3  C3  UNL     1       8.212   6.122   5.868 +2.30 +0.00    +0.111 A 
ATOM      4  C4  UNL     1       7.722   4.766   4.075 -0.18 +0.00    +0.117 A 
ATOM      5  C5  UNL     1       6.011   5.759   5.232 -0.08 +0.00    +0.087 A 
ATOM      6  C6  UNL     1       8.232   3.959   2.876 -0.11 +0.00    +0.296 C 
ATOM      7  C7  UNL     1       9.484   3.166   3.285 -0.04 +0.00    +0.146 C 
ATOM      8  C8  UNL     1       9.766   1.967   2.418 +2.44 +0.00    +0.217 C 
ATOM      9  C9  UNL     1       9.392   5.867   1.710 -0.10 +0.00    +0.315 C 
ATOM     10  C10 UNL     1       8.777   7.234   2.094 -0.19 +0.00    +0.336 C 
ATOM     11  C11 UNL     1       9.659   8.410   1.618 +9.84 +0.00    +0.250 C 
ATOM     12  C12 UNL     1       9.351   6.711   6.666 +5.24 +0.00    +0.269 C 
ATOM     13  C13 UNL     1      11.873   6.503   6.763 -0.27 +0.00    +0.211 C 
ATOM     14  C14 UNL     1      12.837   5.315   7.193 -0.42 +0.00    +0.201 C 
ATOM     15  C15 UNL     1      12.707   4.107   6.271 -0.43 +0.00    +0.057 A 
ATOM     16  C16 UNL     1      12.959   3.874   4.933+22.43 +0.00    +0.116 A 
ATOM     17  C17 UNL     1      12.252   2.011   5.706+99.99 +0.00    +0.180 A 
ATOM     18  C18 UNL     1      12.385   7.222   5.469 -0.28 +0.00    +0.243 C 
ATOM     19  C19 UNL     1      14.268   8.645   4.563 -0.26 +0.00    +0.110 C 
ATOM     20  C20 UNL     1      15.157   7.584   3.898 -0.46 +0.00    +0.035 C 
ATOM     21  C21 UNL     1      15.046   9.902   5.136+35.00 +0.00    +0.153 C 
ATOM     22  C22 UNL     1      16.025  10.536   4.079 +8.47 +0.00    +0.104 C 
ATOM     23  C23 UNL     1      16.699  11.820   4.606+34.48 +0.00    +0.022 C 
ATOM     24  C24 UNL     1      15.352  10.924   2.748 +1.11 +0.00    +0.224 C 
ATOM     25  C25 UNL     1      15.867  11.306   0.314 +0.44 +0.00    +0.205 C 
ATOM     26  C26 UNL     1      17.167  11.548  -0.550+37.28 +0.00    +0.146 C 
ATOM     27  C27 UNL     1      17.799  12.897  -0.151+16.20 +0.00    +0.042 C 
ATOM     28  C28 UNL     1      15.016  10.166  -0.305+20.65 +0.00    +0.243 C 
ATOM     29  C29 UNL     1      14.950   7.704  -0.602 +0.72 +0.00    +0.129 C 
ATOM     30  C30 UNL     1      13.678   7.381   0.181 +1.59 +0.00    +0.084 C 
ATOM     31  C31 UNL     1      13.136   6.023  -0.135 +0.02 +0.00    +0.052 A 
ATOM     32  C32 UNL     1      11.750   4.468  -0.888 +1.12 +0.00    +0.073 A 
ATOM     33  C33 UNL     1      12.566   3.668  -0.118+50.75 +0.00    +0.083 A 
ATOM     34  C34 UNL     1      10.440   3.974  -1.622 -0.08 +0.00    +0.102 A 
ATOM     35  C35 UNL     1       8.507   4.205  -2.697 -0.13 +0.00    +0.108 A 
ATOM     36  C36 UNL     1       8.439   2.855  -2.412 -0.10 +0.00    +0.087 A 
ATOM     37  C37 UNL     1       7.446   4.997  -3.321 +9.63 +0.00    +0.268 C 
ATOM     38  C38 UNL     1       6.873   7.390  -3.670+99.99 +0.00    +0.123 C 
ATOM     39  C39 UNL     1       6.441   7.968  -2.322+99.99 +0.00    +0.029 C 
ATOM     40  C40 UNL     1       5.628   9.251  -2.440+99.99 +0.00    +0.064 C 
ATOM     41  C41 UNL     1       3.207   8.261  -1.682+99.99 +0.00    +0.078 C 
ATOM     42  C42 UNL     1       3.373  10.666  -2.883+36.23 +0.00    +0.078 C 
ATOM     43  N1  UNL     1       8.639   5.299   4.881 -0.08 -0.00    -0.339 N 
ATOM     44  H1  UNL     1       9.631   5.095   4.758 +0.10 +0.00    +0.167 HD
ATOM     45  N2  UNL     1       6.401   4.957   4.226 -0.06 -0.00    -0.335 N 
ATOM     46  H2  UNL     1       5.724   4.513   3.606 +0.07 +0.00    +0.168 HD
ATOM     47  N3  UNL     1       4.622   5.901   5.334 -0.10 -0.00    -0.288 NA
ATOM     48  N4  UNL     1      11.086   1.611   2.381+10.35 -0.00    -0.370 N 
ATOM     49  N5  UNL     1       8.400   4.762   1.632 -0.12 +0.00    +0.098 N 
ATOM     50  N6  UNL     1      10.914   8.478   2.135+12.99 -0.00    -0.368 N 
ATOM     51  N7  UNL     1       7.409   7.371   1.481 -0.37 +0.00    +0.093 N 
ATOM     52  N8  UNL     1      10.518   6.022   6.463 -0.09 -0.00    -0.340 N 
ATOM     53  N9  UNL     1      12.647   2.570   4.581+10.02 -0.00    -0.360 N 
ATOM     54  H9  UNL     1      12.710   2.141   3.657 +0.61 +0.00    +0.166 HD
ATOM     55  N10 UNL     1      12.263   2.894   6.736 +5.20 -0.00    -0.352 N 
ATOM     56  N11 UNL     1      13.490   8.019   5.638 -0.16 -0.00    -0.352 N 
ATOM     57  N12 UNL     1      16.234  10.963   1.691 -0.23 -0.00    -0.345 N 
ATOM     58  N13 UNL     1      15.572   8.913  -0.122 -0.06 -0.00    -0.359 N 
ATOM     59  N14 UNL     1      12.122   5.801  -0.946 -0.22 -0.00    -0.351 N 
ATOM     60  H14 UNL     1      11.677   6.508  -1.531 +0.08 +0.00    +0.166 HD
ATOM     61  N15 UNL     1       9.691   4.819  -2.298 -0.06 -0.00    -0.344 N 
ATOM     62  H15 UNL     1       9.943   5.787  -2.501 +0.08 +0.00    +0.167 HD
ATOM     63  N16 UNL     1       7.819   6.316  -3.470+20.67 -0.00    -0.356 N 
ATOM     64  O1  UNL     1       8.915   1.284   1.855 -0.06 -0.00    -0.274 OA
ATOM     65  O2  UNL     1       9.236   9.259   0.830+99.99 -0.00    -0.271 OA
ATOM     66  O3  UNL     1       9.207   7.694   7.379+28.83 -0.00    -0.266 OA
ATOM     67  O4  UNL     1      12.498   4.883   8.414 -0.25 -0.00    -0.387 OA
ATOM     68  H4  UNL     1      13.073   4.172   8.671 +0.17 +0.00    +0.210 HD
ATOM     69  O5  UNL     1      11.834   7.083   4.367 -0.22 -0.00    -0.271 OA
ATOM     70  O6  UNL     1      14.169  11.241   2.633+18.54 -0.00    -0.273 OA
ATOM     71  O7  UNL     1      18.083  10.603  -0.317 -0.19 -0.00    -0.393 OA
ATOM     72  H7  UNL     1      18.864  10.748  -0.837 +0.20 +0.00    +0.210 HD
ATOM     73  O8  UNL     1      13.998  10.358  -0.973+20.15 -0.00    -0.271 OA
ATOM     74  O9  UNL     1       6.356   4.537  -3.643 +1.65 -0.00    -0.266 OA
ATOM     75  O10 UNL     1      15.763   9.516   6.199+99.99 -0.00    -0.393 OA
ATOM     76  H10 UNL     1      16.229  10.268   6.542 +4.33 +0.00    +0.210 HD
ATOM     77  S1  UNL     1      13.783   4.620   0.624+99.99 -0.00    -0.086 SA
ATOM     78  S2  UNL     1       9.860   2.358  -1.587 -0.33 -0.00    -0.080 SA
ATOM     79  S3  UNL     1       3.973   8.981  -3.157 +5.78 -0.00    -0.228 SA
ATOM     80  H46 UNL     1       4.304   5.618   6.253 +0.05 +0.00    +0.125 HD
ATOM     81  H47 UNL     1       4.233   5.313   4.600 +0.05 +0.00    +0.125 HD
ATOM     82  H48 UNL     1      11.743   2.013   3.060 +0.32 +0.00    +0.159 HD
ATOM     83  H49 UNL     1      11.334   0.733   1.957 -0.02 +0.00    +0.159 HD
ATOM     84  H50 UNL     1       7.501   5.237   1.467 +0.13 +0.00    +0.317 HD
ATOM     85  H51 UNL     1      11.211   7.947   2.962 +0.09 +0.00    +0.159 HD
ATOM     86  H52 UNL     1      11.490   9.286   1.926+87.68 +0.00    +0.159 HD
ATOM     87  H53 UNL     1       7.579   7.394   0.472 +0.18 +0.00    +0.314 HD
ATOM     88  H54 UNL     1       7.123   8.333   1.688 +0.20 +0.00    +0.314 HD
ATOM     89  H55 UNL     1      10.497   5.331   5.723 +0.11 +0.00    +0.163 HD
ATOM     90  H56 UNL     1      12.021   2.779   7.712 +0.18 +0.00    +0.166 HD
ATOM     91  H57 UNL     1      13.983   8.064   6.527 +0.13 +0.00    +0.163 HD
ATOM     92  H58 UNL     1      17.162  10.560   1.757 +0.14 +0.00    +0.163 HD
ATOM     93  H59 UNL     1      16.588   8.976   0.007 +0.10 +0.00    +0.162 HD
ATOM     94  H60 UNL     1       8.730   6.539  -3.065 -0.15 +0.00    +0.162 HD
ENDROOT
TORSDOF 33
TER
