USER    Run = 1
USER    DPF = ligand_123_receptor.dpf
USER  
USER    Estimated Free Energy of Binding    =  +91.56 kcal/mol  [=(1)+(2)+(3)-(4)]
USER    
USER    (1) Final Intermolecular Energy     =  +90.37 kcal/mol
USER        vdW + Hbond + desolv Energy     =  +90.37 kcal/mol
USER        Electrostatic Energy            =   +0.00 kcal/mol
USER    (2) Final Total Internal Energy     =   -2.19 kcal/mol
USER    (3) Torsional Free Energy           =   +1.19 kcal/mol
USER    (4) Unbound System's Energy  [=(2)] =   -2.19 kcal/mol
USER    
USER    
USER    NEWDPF move ligand_123.pdbqt
USER    NEWDPF about 0.000000 0.000000 0.000000
USER    NEWDPF tran0 18.588232 11.552820 2.380691
USER    NEWDPF quaternion0 0.138557 -0.227422 0.963839 -0.009771
USER    NEWDPF axisangle0 0.138563 -0.227433 0.963885 -178.880291
USER    NEWDPF quat0 0.138563 -0.227433 0.963885 -178.880291
USER    NEWDPF dihe0 49.68 -44.46 -143.83 41.27 124.83 4.41 178.15 -149.80 118.08 180.00 -180.00 -38.36 157.52 80.80 180.00 17.24 178.58 
USER  keepresnum = 1 
USER  
REMARK  17 active torsions:
REMARK  status: ('A' for Active; 'I' for Inactive)
REMARK    1  A    between atoms: C4_4  and  N5_56 
REMARK    2  A    between atoms: C7_7  and  N1_50 
REMARK    3  A    between atoms: C8_8  and  N2_52 
REMARK    4  A    between atoms: C9_9  and  S1_68 
REMARK    5  A    between atoms: C13_13  and  N3_54 
REMARK    6  A    between atoms: C17_17  and  O1_62 
REMARK    7  A    between atoms: C18_18  and  N3_54 
REMARK    8  A    between atoms: C21_21  and  N4_55 
REMARK    9  A    between atoms: C26_26  and  N6_58 
REMARK   10  A    between atoms: C29_29  and  N7_60 
REMARK   11  A    between atoms: C32_32  and  N7_60 
REMARK   12  A    between atoms: C35_35  and  C38_38 
REMARK       I    between atoms: C38_38  and  N8_61 
REMARK   13  A    between atoms: C39_39  and  N8_61 
REMARK   14  A    between atoms: C43_43  and  S3_70 
REMARK   15  A    between atoms: C45_45  and  O3_64 
REMARK   16  A    between atoms: O3_64  and  S2_69 
REMARK   17  A    between atoms: O6_67  and  S2_69 
USER                              x       y       z     vdW  Elec       q    Type
USER                           _______ _______ _______ _____ _____    ______ ____
ROOT
ATOM      1  N5  UNL     1      17.789  10.031   0.913 -0.22 -0.00    -0.300 N 
ATOM      2  H5  UNL     1      17.115  10.461   0.280 +0.15 +0.00    +0.187 HD
ATOM      3  N6  UNL     1      17.512   9.551   2.035 -0.21 -0.00    -0.300 N 
ATOM      4  H6  UNL     1      18.191   9.139   2.675 +0.14 +0.00    +0.187 HD
ENDROOT
BRANCH   1   5
ATOM      5  C4  UNL     1      19.166   9.892   0.652 -0.21 +0.00    +0.054 A 
ATOM      6  C3  UNL     1      19.616   8.895  -0.226+14.47 +0.00    +0.040 A 
ATOM      7  C2  UNL     1      20.985   8.716  -0.489 +7.35 -0.00    -0.032 A 
ATOM      8  C1  UNL     1      21.426   7.648  -1.451 +2.74 +0.00    +0.050 C 
ATOM      9  C7  UNL     1      21.927   9.536   0.156 -0.38 +0.00    +0.054 A 
ATOM     10  C6  UNL     1      21.471  10.534   1.035 -0.07 +0.00    +0.040 A 
ATOM     11  C5  UNL     1      20.104  10.714   1.298 -0.50 -0.00    -0.032 A 
ATOM     12  C25 UNL     1      19.655  11.786   2.251 -0.43 +0.00    +0.050 C 
BRANCH   9  13
ATOM     13  N1  UNL     1      23.300   9.370  -0.126 -0.23 -0.00    -0.300 N 
ATOM     14  N2  UNL     1      23.643   8.170  -0.042 -0.25 -0.00    -0.296 N 
ATOM     15  H2  UNL     1      23.032   7.404   0.242 +0.13 +0.00    +0.187 HD
ATOM     16  H1  UNL     1      23.933  10.132  -0.368 +0.33 +0.00    +0.187 HD
BRANCH  14  17
ATOM     17  C8  UNL     1      25.004   8.034  -0.402 -0.17 +0.00    +0.098 A 
ATOM     18  C9  UNL     1      26.017   8.777   0.224 +0.64 +0.00    +0.029 A 
ATOM     19  C10 UNL     1      27.355   8.574  -0.143 +0.32 +0.00    +0.033 A 
ATOM     20  C11 UNL     1      27.711   7.636  -1.130 -0.10 -0.00    -0.020 A 
ATOM     21  C12 UNL     1      29.062   7.441  -1.494 -0.25 +0.00    +0.041 A 
ATOM     22  C16 UNL     1      26.703   6.883  -1.763 +0.03 +0.00    +0.010 A 
ATOM     23  C13 UNL     1      29.451   6.502  -2.454 -0.19 +0.00    +0.029 A 
ATOM     24  C14 UNL     1      28.428   5.786  -3.090 +2.27 +0.00    +0.030 A 
ATOM     25  C15 UNL     1      27.083   5.960  -2.748 +8.21 +0.00    +0.017 A 
ATOM     26  C17 UNL     1      25.362   7.094  -1.384 -0.12 +0.00    +0.106 A 
BRANCH  18  27
ATOM     27  S1  UNL     1      25.669   9.982   1.501 +0.44 -0.00    -0.141 SA
ATOM     28  H45 UNL     1      24.575   9.363   1.974 +0.09 +0.00    +0.107 HD
ENDBRANCH  18  27
BRANCH  23  29
ATOM     29  N3  UNL     1      30.749   6.300  -2.901 -0.02 -0.00    -0.377 N 
ATOM     30  H38 UNL     1      30.946   6.896  -3.704 +0.04 +0.00    +0.160 HD
BRANCH  29  31
ATOM     31  C18 UNL     1      31.500   5.036  -2.974 -0.04 +0.00    +0.048 C 
ATOM     32  C19 UNL     1      32.372   4.809  -1.702 -0.01 +0.00    +0.063 C 
ATOM     33  C20 UNL     1      32.358   3.417  -1.126 -0.07 -0.00    -0.001 C 
ATOM     34  C21 UNL     1      31.447   2.491  -1.458 -0.14 +0.00    +0.002 C 
ATOM     35  C22 UNL     1      30.415   2.824  -2.416 -0.11 +0.00    +0.021 C 
ATOM     36  C23 UNL     1      30.425   3.969  -3.115 -0.08 +0.00    +0.005 C 
ATOM     37  C24 UNL     1      32.330   4.957  -4.269 -0.02 +0.00    +0.043 C 
BRANCH  34  38
ATOM     38  N4  UNL     1      31.430   1.233  -0.912 -0.13 -0.00    -0.303 NA
ATOM     39  H39 UNL     1      30.494   0.874  -0.754 +0.05 +0.00    +0.124 HD
ATOM     40  H40 UNL     1      32.012   0.567  -1.412 -0.42 +0.00    +0.124 HD
ENDBRANCH  34  38
ENDBRANCH  29  31
ENDBRANCH  23  29
BRANCH  26  41
ATOM     41  O1  UNL     1      24.371   6.354  -1.994 -0.36 -0.00    -0.357 OA
ATOM     42  H43 UNL     1      23.756   6.081  -1.286 +0.16 +0.00    +0.217 HD
ENDBRANCH  26  41
ENDBRANCH  14  17
ENDBRANCH   9  13
ENDBRANCH   1   5
BRANCH   3  43
ATOM     43  C26 UNL     1      16.134   9.659   2.291 -0.41 +0.00    +0.048 A 
ATOM     44  C27 UNL     1      15.444   8.561   2.810 -0.41 +0.00    +0.039 A 
ATOM     45  C28 UNL     1      14.071   8.633   3.111 +0.58 -0.00    -0.033 A 
ATOM     46  C29 UNL     1      13.366   9.834   2.879+23.25 +0.00    +0.038 A 
ATOM     47  C49 UNL     1      13.390   7.416   3.678 -0.48 +0.00    +0.050 C 
ATOM     48  C30 UNL     1      14.074  10.936   2.378+17.43 +0.00    +0.032 A 
ATOM     49  C31 UNL     1      15.439  10.852   2.088 -0.23 +0.00    +0.033 A 
BRANCH  46  50
ATOM     50  N7  UNL     1      11.996   9.921   3.201 +9.26 -0.00    -0.356 N 
ATOM     51  H41 UNL     1      11.719  10.830   3.555 +2.03 +0.00    +0.166 HD
BRANCH  50  52
ATOM     52  C32 UNL     1      10.983   8.948   3.255 +3.42 +0.00    +0.032 A 
ATOM     53  C33 UNL     1      10.776   8.117   2.146 +4.18 +0.00    +0.030 A 
ATOM     54  C34 UNL     1       9.761   7.154   2.145 -0.31 +0.00    +0.019 A 
ATOM     55  C35 UNL     1       8.939   7.002   3.265 -0.30 +0.00    +0.032 A 
ATOM     56  C36 UNL     1       9.119   7.839   4.371 +2.02 +0.00    +0.019 A 
ATOM     57  C37 UNL     1      10.136   8.800   4.360 -0.28 +0.00    +0.030 A 
BRANCH  55  58
ATOM     58  C38 UNL     1       7.870   5.964   3.229 -0.13 +0.00    +0.256 C 
ATOM     59  N8  UNL     1       7.269   5.789   1.993 -0.05 -0.00    -0.323 N 
ATOM     60  H42 UNL     1       7.532   6.457   1.280 +0.09 +0.00    +0.169 HD
ATOM     61  O2  UNL     1       7.589   5.387   4.273 -0.14 -0.00    -0.267 OA
BRANCH  59  62
ATOM     62  C39 UNL     1       6.284   4.897   1.626 -0.16 +0.00    +0.032 C 
ATOM     63  C40 UNL     1       5.861   3.994   2.529 -0.15 +0.00    +0.012 C 
ATOM     64  C41 UNL     1       4.765   2.987   2.245 -0.13 +0.00    +0.051 C 
ATOM     65  C42 UNL     1       5.097   1.599   2.840 -0.29 +0.00    +0.059 C 
ATOM     66  C46 UNL     1       4.396   2.882   0.768 -0.11 -0.00    -0.015 C 
ATOM     67  C43 UNL     1       4.125   0.535   2.375 -0.19 -0.00    -0.021 C 
ATOM     68  C44 UNL     1       3.483   0.662   1.200 -0.15 +0.00    +0.052 C 
ATOM     69  C45 UNL     1       3.738   1.792   0.324 -0.13 +0.00    +0.099 C 
ATOM     70  C47 UNL     1       4.797   3.978  -0.093 -0.18 +0.00    +0.013 C 
ATOM     71  C48 UNL     1       5.666   4.917   0.314 -0.21 +0.00    +0.030 C 
BRANCH  67  72
ATOM     72  S3  UNL     1       3.867  -0.843   3.403 -0.12 -0.00    -0.147 SA
ATOM     73  H46 UNL     1       3.954  -0.248   4.603 +0.03 +0.00    +0.107 HD
ENDBRANCH  67  72
BRANCH  69  74
ATOM     74  O3  UNL     1       3.354   1.641  -0.993 -0.07 -0.00    -0.220 OA
BRANCH  74  75
ATOM     75  S2  UNL     1       4.456   1.389  -2.171 -0.09 +0.00    +0.245 S 
ATOM     76  O4  UNL     1       3.792   0.695  -3.253 +0.01 -0.00    -0.579 OA
ATOM     77  O5  UNL     1       5.199   2.609  -2.395 +0.01 -0.00    -0.579 OA
BRANCH  75  78
ATOM     78  O6  UNL     1       5.470   0.303  -1.539 -0.11 -0.00    -0.273 OA
ATOM     79  H44 UNL     1       5.501  -0.464  -2.147 +0.06 +0.00    +0.234 HD
ENDBRANCH  75  78
ENDBRANCH  74  75
ENDBRANCH  69  74
ENDBRANCH  59  62
ENDBRANCH  55  58
ENDBRANCH  50  52
ENDBRANCH  46  50
ENDBRANCH   3  43
TORSDOF 17
TER
