USER    Run = 1
USER    DPF = ligand_477_receptor.dpf
USER  
USER    Estimated Free Energy of Binding    =   -4.48 kcal/mol  [=(1)+(2)+(3)-(4)]
USER    Estimated Inhibition Constant, Ki   =  516.99 uM (micromolar)  [Temperature = 298.15 K]
USER    
USER    (1) Final Intermolecular Energy     =   -5.68 kcal/mol
USER        vdW + Hbond + desolv Energy     =   -5.68 kcal/mol
USER        Electrostatic Energy            =   +0.00 kcal/mol
USER    (2) Final Total Internal Energy     =   -1.71 kcal/mol
USER    (3) Torsional Free Energy           =   +1.19 kcal/mol
USER    (4) Unbound System's Energy  [=(2)] =   -1.71 kcal/mol
USER    
USER    
USER    NEWDPF move ligand_477.pdbqt
USER    NEWDPF about 0.000000 0.000000 0.000000
USER    NEWDPF tran0 12.357100 6.894706 2.677791
USER    NEWDPF quaternion0 0.264376 0.022433 -0.105334 0.958388
USER    NEWDPF axisangle0 0.926107 0.078584 -0.368985 33.173927
USER    NEWDPF quat0 0.926107 0.078584 -0.368985 33.173927
USER    NEWDPF dihe0 57.19 161.46 -0.07 -77.03 -36.48 -111.09 179.94 92.32 -180.00 -151.90 -2.63 -154.93 -6.31 
USER  keepresnum = 1 
USER  
REMARK  13 active torsions:
REMARK  status: ('A' for Active; 'I' for Inactive)
REMARK    1  A    between atoms: C2_2  and  O1_33 
REMARK    2  A    between atoms: C3_3  and  C4_4 
REMARK    3  A    between atoms: C3_3  and  O1_33 
REMARK    4  A    between atoms: C4_4  and  O2_34 
REMARK    5  A    between atoms: C5_5  and  O2_34 
REMARK    6  A    between atoms: C6_6  and  O4_36 
REMARK       I    between atoms: C13_13  and  N1_39 
REMARK       I    between atoms: C13_13  and  N2_40 
REMARK    7  A    between atoms: C15_15  and  O4_36 
REMARK    8  A    between atoms: C17_17  and  N4_43 
REMARK    9  A    between atoms: C20_20  and  C21_21 
REMARK       I    between atoms: C20_20  and  N4_43 
REMARK   10  A    between atoms: C24_24  and  C27_27 
REMARK   11  A    between atoms: C30_30  and  C31_31 
REMARK   12  A    between atoms: C30_30  and  N5_44 
REMARK   13  A    between atoms: C31_31  and  O6_38 
USER                              x       y       z     vdW  Elec       q    Type
USER                           _______ _______ _______ _____ _____    ______ ____
ROOT
ATOM      1  C15 UNL     1      10.250   6.988   3.084 -0.30 +0.00    +0.081 A 
ATOM      2  C16 UNL     1      11.581   7.302   3.355 -0.34 +0.00    +0.085 A 
ATOM      3  C17 UNL     1      12.490   7.276   2.311 -0.09 +0.00    +0.110 A 
ATOM      4  C18 UNL     1      10.834   6.699   0.805 -0.26 +0.00    +0.092 A 
ATOM      5  C19 UNL     1       9.860   6.692   1.783 -0.27 +0.00    +0.054 A 
ATOM      6  N3  UNL     1      12.134   6.980   1.041 -0.12 -0.00    -0.352 N 
ATOM      7  H3  UNL     1      12.822   6.969   0.288 +0.04 +0.00    +0.166 HD
ENDROOT
BRANCH   1   8
ATOM      8  O4  UNL     1       9.377   7.054   4.149 -0.18 -0.00    -0.308 OA
BRANCH   8   9
ATOM      9  C6  UNL     1       8.258   6.249   4.087 -0.14 +0.00    +0.110 A 
ATOM     10  C5  UNL     1       8.327   4.950   4.594 -0.20 +0.00    +0.104 A 
ATOM     11  C12 UNL     1       7.214   4.108   4.497 -0.23 +0.00    +0.070 A 
ATOM     12  C11 UNL     1       6.021   4.604   3.923 -0.17 +0.00    +0.056 A 
ATOM     13  C8  UNL     1       5.960   5.902   3.402 -0.19 -0.00    -0.005 A 
ATOM     14  N1  UNL     1       4.758   4.010   3.761 -0.05 -0.00    -0.274 N 
ATOM     15  C7  UNL     1       7.096   6.730   3.471 +0.20 +0.00    +0.054 A 
ATOM     16  C9  UNL     1       4.668   6.080   2.859 -0.20 +0.00    +0.031 A 
ATOM     17  C10 UNL     1       3.967   4.916   3.060 -0.13 +0.00    +0.103 A 
ATOM     18  C13 UNL     1       4.382   2.720   4.230 -0.12 +0.00    +0.326 C 
ATOM     19  O3  UNL     1       5.206   1.967   4.731 -0.00 -0.00    -0.246 OA
ATOM     20  N2  UNL     1       3.034   2.452   4.095 -0.03 -0.00    -0.347 N 
ATOM     21  C14 UNL     1       2.492   1.222   4.614 -0.19 +0.00    +0.151 C 
ATOM     22  H36 UNL     1       2.383   3.206   3.939 +0.04 +0.00    +0.163 HD
BRANCH  10  23
ATOM     23  O2  UNL     1       9.527   4.556   5.125 -0.14 -0.00    -0.346 OA
BRANCH  23  24
ATOM     24  C4  UNL     1      10.103   3.346   4.619 -0.33 +0.00    +0.201 C 
BRANCH  24  25
ATOM     25  C3  UNL     1      11.542   3.141   5.109 -0.07 +0.00    +0.194 C 
BRANCH  25  26
ATOM     26  O1  UNL     1      12.037   4.220   5.909 -0.24 -0.00    -0.389 OA
BRANCH  26  27
ATOM     27  C2  UNL     1      11.559   4.194   7.252 -0.42 +0.00    +0.163 C 
ATOM     28  C1  UNL     1      10.814   5.489   7.515 -0.34 +0.00    +0.033 C 
ENDBRANCH  26  27
ENDBRANCH  25  26
ENDBRANCH  24  25
ENDBRANCH  23  24
ENDBRANCH  10  23
ENDBRANCH   8   9
ENDBRANCH   1   8
BRANCH   3  29
ATOM     29  N4  UNL     1      13.849   7.561   2.441 +0.31 -0.00    -0.309 N 
ATOM     30  C20 UNL     1      14.548   7.874   3.583 -0.34 +0.00    +0.257 C 
ATOM     31  O5  UNL     1      14.103   7.900   4.724 -0.34 -0.00    -0.267 OA
ATOM     32  H37 UNL     1      14.338   7.438   1.566 -0.43 +0.00    +0.170 HD
BRANCH  30  33
ATOM     33  C21 UNL     1      15.997   8.164   3.377 -0.50 +0.00    +0.032 A 
ATOM     34  C22 UNL     1      16.354   9.212   2.528 -0.48 +0.00    +0.017 A 
ATOM     35  C23 UNL     1      17.704   9.512   2.310 -0.47 +0.00    +0.009 A 
ATOM     36  C24 UNL     1      18.744   8.779   2.915 -0.33 -0.00    -0.051 A 
ATOM     37  C25 UNL     1      18.348   7.716   3.752 -0.29 +0.00    +0.009 A 
ATOM     38  C26 UNL     1      17.001   7.404   3.981 -0.15 +0.00    +0.017 A 
BRANCH  36  39
ATOM     39  C27 UNL     1      20.270   9.141   2.649 -0.04 +0.00    +0.075 C 
ATOM     40  C28 UNL     1      20.770   9.299   1.194 +1.57 +0.00    +0.283 C 
ATOM     41  N5  UNL     1      21.556  10.494   1.589 -0.07 +0.00    +0.092 N 
ATOM     42  C29 UNL     1      20.749  10.600   2.829 +0.15 +0.00    +0.283 C 
BRANCH  41  43
ATOM     43  C30 UNL     1      22.951  10.137   1.909 +1.36 +0.00    +0.303 C 
BRANCH  43  44
ATOM     44  C31 UNL     1      23.127   9.619   3.354 -0.49 +0.00    +0.142 C 
ATOM     45  C32 UNL     1      23.663  10.658   4.329 -0.60 +0.00    +0.041 C 
BRANCH  44  46
ATOM     46  O6  UNL     1      24.043   8.518   3.323 -0.25 -0.00    -0.394 OA
ATOM     47  H35 UNL     1      24.151   8.262   2.391 +0.17 +0.00    +0.210 HD
ENDBRANCH  44  46
ENDBRANCH  43  44
ENDBRANCH  41  43
ENDBRANCH  36  39
ENDBRANCH  30  33
ENDBRANCH   3  29
TORSDOF 13
TER
