USER    Run = 1
USER    DPF = ligand_172_receptor.dpf
USER  
USER    Estimated Free Energy of Binding    = +120.45 kcal/mol  [=(1)+(2)+(3)-(4)]
USER    
USER    (1) Final Intermolecular Energy     = +119.26 kcal/mol
USER        vdW + Hbond + desolv Energy     = +119.26 kcal/mol
USER        Electrostatic Energy            =   +0.00 kcal/mol
USER    (2) Final Total Internal Energy     =   -1.20 kcal/mol
USER    (3) Torsional Free Energy           =   +1.19 kcal/mol
USER    (4) Unbound System's Energy  [=(2)] =   -1.20 kcal/mol
USER    
USER    
USER    NEWDPF move ligand_172.pdbqt
USER    NEWDPF about 0.000000 0.000000 0.000000
USER    NEWDPF tran0 19.725114 9.204060 -0.716424
USER    NEWDPF quaternion0 0.237058 0.919343 -0.313546 0.017344
USER    NEWDPF axisangle0 0.237093 0.919481 -0.313593 178.012473
USER    NEWDPF quat0 0.237093 0.919481 -0.313593 178.012473
USER    NEWDPF dihe0 -180.00 179.39 2.69 -34.68 82.85 76.11 -30.32 -111.51 180.00 92.53 173.73 170.94 178.09 175.43 79.53 -125.03 166.55 101.30 15.19 -107.65 -136.14 -43.33 -22.64 -105.38 156.18 -155.62 
USER  keepresnum = 1 
USER  
REMARK  26 active torsions:
REMARK  status: ('A' for Active; 'I' for Inactive)
REMARK    1  A    between atoms: C2_2  and  N1_52 
REMARK    2  A    between atoms: C3_3  and  C4_4 
REMARK       I    between atoms: C3_3  and  N1_52 
REMARK    3  A    between atoms: C5_5  and  O8_93 
REMARK    4  A    between atoms: C6_6  and  O7_92 
REMARK    5  A    between atoms: C7_7  and  N2_53 
REMARK    6  A    between atoms: C11_11  and  N21_82 
REMARK    7  A    between atoms: C12_12  and  N6_60 
REMARK    8  A    between atoms: C13_13  and  N6_60 
REMARK    9  A    between atoms: C16_16  and  N7_61 
REMARK   10  A    between atoms: C19_19  and  N7_61 
REMARK   11  A    between atoms: C20_20  and  N11_68 
REMARK   12  A    between atoms: C22_22  and  N11_68 
REMARK   13  A    between atoms: C25_25  and  N12_69 
REMARK   14  A    between atoms: C28_28  and  N12_69 
REMARK   15  A    between atoms: C29_29  and  N18_78 
REMARK   16  A    between atoms: C33_33  and  N16_76 
REMARK   17  A    between atoms: C34_34  and  O6_91 
REMARK   18  A    between atoms: C35_35  and  O5_90 
REMARK   19  A    between atoms: C36_36  and  C37_37 
REMARK       I    between atoms: C37_37  and  N17_77 
REMARK   20  A    between atoms: C38_38  and  N17_77 
REMARK   21  A    between atoms: C40_40  and  C41_41 
REMARK   22  A    between atoms: C40_40  and  N18_78 
REMARK   23  A    between atoms: C41_41  and  C42_42 
REMARK   24  A    between atoms: C46_46  and  C47_47 
REMARK   25  A    between atoms: C46_46  and  N21_82 
REMARK   26  A    between atoms: C47_47  and  C48_48 
USER                              x       y       z     vdW  Elec       q    Type
USER                           _______ _______ _______ _____ _____    ______ ____
ROOT
ATOM      1  C19 UNL     1      19.527   9.972  -0.350 +2.62 +0.00    +0.162 A 
ATOM      2  C20 UNL     1      21.312   8.785  -1.088 +6.80 +0.00    +0.162 A 
ATOM      3  C21 UNL     1      21.400  10.984  -0.923 +9.65 +0.00    +0.183 A 
ATOM      4  N8  UNL     1      20.059   8.792  -0.641 +6.77 -0.00    -0.309 N 
ATOM      5  H8  UNL     1      19.530   7.927  -0.529+11.46 +0.00    +0.171 HD
ATOM      6  N9  UNL     1      22.038   9.874  -1.245+14.31 -0.00    -0.309 N 
ATOM      7  H9  UNL     1      23.001   9.860  -1.583 +0.29 +0.00    +0.171 HD
ATOM      8  N10 UNL     1      20.164  11.121  -0.472 +0.20 -0.00    -0.309 N 
ATOM      9  H10 UNL     1      19.747  12.022  -0.241 +0.13 +0.00    +0.171 HD
ATOM     10 CL1  UNL     1      22.288  12.436  -1.102 +1.28 -0.00    -0.045 Cl
ENDROOT
BRANCH   1  11
ATOM     11  N7  UNL     1      18.219   9.929   0.122 -0.27 -0.00    -0.259 NA
ATOM     12  H61 UNL     1      18.197  10.603   0.882 +0.11 +0.00    +0.131 HD
BRANCH  11  13
ATOM     13  C16 UNL     1      17.694   8.600   0.451 +0.75 +0.00    +0.063 C 
ATOM     14  C15 UNL     1      17.117   8.632   1.881 -0.55 +0.00    +0.022 C 
ATOM     15  C14 UNL     1      15.653   9.060   1.937 -0.06 +0.00    +0.026 C 
ATOM     16  C13 UNL     1      14.745   8.217   1.029+13.32 +0.00    +0.083 C 
ATOM     17  C18 UNL     1      15.498   7.389  -0.018 +3.07 +0.00    +0.026 C 
ATOM     18  C17 UNL     1      16.651   8.190  -0.607 -0.50 +0.00    +0.022 C 
BRANCH  16  19
ATOM     19  N6  UNL     1      13.774   7.417   1.767 +1.70 -0.00    -0.369 N 
ATOM     20  H60 UNL     1      14.158   6.813   2.491 -0.43 +0.00    +0.161 HD
BRANCH  19  21
ATOM     21  C12 UNL     1      12.651   6.840   1.190 +0.04 +0.00    +0.148 A 
ATOM     22  C9  UNL     1      11.810   5.998   1.939 +0.08 +0.00    +0.123 A 
ATOM     23  C10 UNL     1      10.690   5.510   1.297 +0.34 +0.00    +0.157 A 
ATOM     24  N3  UNL     1      11.872   5.533   3.237 +0.67 -0.00    -0.346 N 
ATOM     25  N2  UNL     1      10.058   4.729   2.227 +0.83 -0.00    -0.297 N 
ATOM     26  N4  UNL     1      10.309   5.740   0.032 -0.18 -0.00    -0.174 N 
ATOM     27  C8  UNL     1      10.801   4.778   3.376 +0.97 +0.00    +0.188 A 
ATOM     28  C11 UNL     1      11.173   6.540  -0.620 +0.04 +0.00    +0.681 A 
ATOM     29  H4  UNL     1       9.463   5.354  -0.388 +0.09 +0.00    +0.186 HD
ATOM     30  N5  UNL     1      12.298   7.074  -0.100 -0.12 -0.00    -0.175 N 
ATOM     31  H5  UNL     1      12.891   7.662  -0.685 -0.08 +0.00    +0.186 HD
ATOM     32  H3  UNL     1      12.590   5.730   3.935 +0.11 +0.00    +0.167 HD
BRANCH  25  33
ATOM     33  C7  UNL     1       8.818   4.010   1.997 -0.06 +0.00    +0.263 C 
ATOM     34  C6  UNL     1       7.811   4.173   3.144 -0.15 +0.00    +0.199 C 
ATOM     35  C5  UNL     1       6.492   4.035   2.407 -0.09 +0.00    +0.189 C 
ATOM     36  C4  UNL     1       6.792   4.729   1.088 -0.07 +0.00    +0.247 C 
ATOM     37  O2  UNL     1       8.189   4.504   0.792 -0.03 -0.00    -0.346 OA
BRANCH  34  38
ATOM     38  O7  UNL     1       7.916   3.170   4.157 -0.16 -0.00    -0.388 OA
ATOM     39  H69 UNL     1       7.057   2.691   4.165 -0.16 +0.00    +0.210 HD
ENDBRANCH  34  38
BRANCH  35  40
ATOM     40  O8  UNL     1       6.221   2.641   2.181 -0.06 -0.00    -0.390 OA
ATOM     41  H70 UNL     1       5.937   2.589   1.244 +0.07 +0.00    +0.210 HD
ENDBRANCH  35  40
BRANCH  36  42
ATOM     42  C3  UNL     1       6.543   6.240   1.156 -0.20 +0.00    +0.249 C 
ATOM     43  N1  UNL     1       7.482   6.976   0.462 -0.16 -0.00    -0.359 N 
ATOM     44  H59 UNL     1       8.237   6.480   0.002 +0.07 +0.00    +0.162 HD
ATOM     45  O1  UNL     1       5.606   6.743   1.767 -0.22 -0.00    -0.271 OA
BRANCH  43  46
ATOM     46  C2  UNL     1       7.430   8.419   0.377 +0.74 +0.00    +0.118 C 
ATOM     47  C1  UNL     1       6.464   8.882  -0.697 +3.05 +0.00    +0.026 C 
ENDBRANCH  43  46
ENDBRANCH  36  42
ENDBRANCH  25  33
BRANCH  28  48
ATOM     48  N21 UNL     1      10.832   6.803  -1.934 -0.20 -0.00    -0.226 N 
ATOM     49  H66 UNL     1      10.439   7.731  -2.008 +0.07 +0.00    +0.177 HD
BRANCH  48  50
ATOM     50  C46 UNL     1      11.765   6.411  -2.984 -0.25 +0.00    +0.144 C 
BRANCH  50  51
ATOM     51  C47 UNL     1      11.293   5.194  -3.785 -0.02 +0.00    +0.078 C 
BRANCH  51  52
ATOM     52  C48 UNL     1      10.140   4.523  -3.121 -0.18 +0.00    +0.027 A 
ATOM     53  C49 UNL     1       8.889   5.027  -2.837 -0.12 +0.00    +0.116 A 
ATOM     54  N22 UNL     1       8.205   3.989  -2.274 -0.04 -0.00    -0.355 N 
ATOM     55  C50 UNL     1       9.046   2.918  -2.219 -0.06 +0.00    +0.182 A 
ATOM     56  C51 UNL     1       6.836   4.023  -1.830 +0.05 +0.00    +0.156 C 
ATOM     57  N23 UNL     1      10.226   3.209  -2.720 +0.03 -0.00    -0.354 N 
ATOM     58  H23 UNL     1      11.035   2.592  -2.795 +0.09 +0.00    +0.166 HD
ENDBRANCH  51  52
ENDBRANCH  50  51
ENDBRANCH  48  50
ENDBRANCH  28  48
ENDBRANCH  19  21
ENDBRANCH  16  19
ENDBRANCH  11  13
ENDBRANCH   1  11
BRANCH   2  59
ATOM     59  N11 UNL     1      21.924   7.588  -1.421 +0.51 -0.00    -0.259 NA
ATOM     60  H62 UNL     1      21.246   7.001  -1.922 +0.05 +0.00    +0.131 HD
BRANCH  59  61
ATOM     61  C22 UNL     1      23.269   7.634  -1.984 +2.50 +0.00    +0.063 C 
ATOM     62  C23 UNL     1      23.777   6.222  -2.341 +0.55 +0.00    +0.021 C 
ATOM     63  C24 UNL     1      24.842   5.706  -1.379 -0.56 +0.00    +0.021 C 
ATOM     64  C25 UNL     1      26.048   6.652  -1.332 -0.39 +0.00    +0.062 C 
ATOM     65  C26 UNL     1      25.664   8.140  -1.274 +9.88 +0.00    +0.021 C 
ATOM     66  C27 UNL     1      24.179   8.361  -0.980 -0.16 +0.00    +0.021 C 
BRANCH  64  67
ATOM     67  N12 UNL     1      27.016   6.251  -0.311 -0.15 -0.00    -0.272 NA
ATOM     68  H63 UNL     1      27.000   5.253  -0.097 +0.08 +0.00    +0.129 HD
BRANCH  67  69
ATOM     69  C28 UNL     1      27.099   6.962   0.890 -0.27 +0.00    +0.114 A 
ATOM     70  C31 UNL     1      25.954   7.496   1.506 -0.34 +0.00    +0.117 A 
ATOM     71  C30 UNL     1      26.139   8.158   2.707 -0.45 +0.00    +0.143 A 
ATOM     72  N15 UNL     1      24.626   7.501   1.138 -0.14 -0.00    -0.346 N 
ATOM     73  N14 UNL     1      27.304   8.372   3.333 +1.61 -0.00    -0.317 N 
ATOM     74  N16 UNL     1      24.884   8.517   3.111 -0.30 -0.00    -0.297 N 
ATOM     75  C29 UNL     1      28.346   7.841   2.667 -0.05 +0.00    +0.160 A 
ATOM     76  H14 UNL     1      27.391   8.879   4.213 +6.70 +0.00    +0.170 HD
ATOM     77  N13 UNL     1      28.285   7.146   1.519 -0.12 -0.00    -0.321 N 
ATOM     78  H13 UNL     1      29.138   6.755   1.117 +0.08 +0.00    +0.169 HD
ATOM     79  C32 UNL     1      24.014   8.134   2.116 -0.27 +0.00    +0.188 A 
ATOM     80  H15 UNL     1      24.210   7.102   0.296 +0.13 +0.00    +0.167 HD
BRANCH  75  81
ATOM     81  N18 UNL     1      29.628   7.969   3.187 -0.09 -0.00    -0.264 NA
ATOM     82  H65 UNL     1      29.561   7.546   4.111 -0.41 +0.00    +0.130 HD
BRANCH  81  83
ATOM     83  C40 UNL     1      30.685   7.382   2.366 -0.21 +0.00    +0.101 C 
BRANCH  83  84
ATOM     84  C41 UNL     1      31.235   8.340   1.301 -0.24 +0.00    +0.073 C 
BRANCH  84  85
ATOM     85  C42 UNL     1      30.927   7.997  -0.118 -0.18 +0.00    +0.026 A 
ATOM     86  C43 UNL     1      30.334   8.748  -1.111 -0.14 +0.00    +0.116 A 
ATOM     87  N19 UNL     1      30.341   7.954  -2.221 -0.09 -0.00    -0.355 N 
ATOM     88  C44 UNL     1      30.969   6.792  -1.895 -0.05 +0.00    +0.182 A 
ATOM     89  C45 UNL     1      29.776   8.289  -3.503 -0.30 +0.00    +0.156 C 
ATOM     90  N20 UNL     1      31.309   6.771  -0.625 +0.00 -0.00    -0.354 N 
ATOM     91  H20 UNL     1      31.761   6.009  -0.121 +0.05 +0.00    +0.166 HD
ENDBRANCH  84  85
ENDBRANCH  83  84
ENDBRANCH  81  83
ENDBRANCH  75  81
BRANCH  74  92
ATOM     92  C33 UNL     1      24.455   9.093   4.366 -0.11 +0.00    +0.263 C 
ATOM     93  C34 UNL     1      24.299  10.609   4.495 +2.05 +0.00    +0.199 C 
ATOM     94  C35 UNL     1      22.859  10.831   4.071 -0.05 +0.00    +0.189 C 
ATOM     95  C36 UNL     1      22.164   9.560   4.555 +1.11 +0.00    +0.247 C 
ATOM     96  O3  UNL     1      23.165   8.539   4.700 +1.83 -0.00    -0.346 OA
BRANCH  93  97
ATOM     97  O6  UNL     1      24.427  11.038   5.874+12.86 -0.00    -0.388 OA
ATOM     98  H68 UNL     1      23.621  10.776   6.359 -0.38 +0.00    +0.210 HD
ENDBRANCH  93  97
BRANCH  94  99
ATOM     99  O5  UNL     1      22.281  11.995   4.664 +3.58 -0.00    -0.390 OA
ATOM    100  H67 UNL     1      22.592  12.759   4.130 +0.14 +0.00    +0.210 HD
ENDBRANCH  94  99
BRANCH  95 101
ATOM    101  C37 UNL     1      21.044   9.184   3.575 +0.19 +0.00    +0.249 C 
ATOM    102  N17 UNL     1      20.300   8.088   3.979 +1.73 -0.00    -0.359 N 
ATOM    103  H64 UNL     1      20.373   7.814   4.957 +1.95 +0.00    +0.162 HD
ATOM    104  O4  UNL     1      20.831   9.794   2.532 -0.31 -0.00    -0.271 OA
BRANCH 102 105
ATOM    105  C38 UNL     1      19.123   7.671   3.246 +2.02 +0.00    +0.118 C 
ATOM    106  C39 UNL     1      17.892   7.678   4.131 +0.07 +0.00    +0.026 C 
ENDBRANCH 102 105
ENDBRANCH  95 101
ENDBRANCH  74  92
ENDBRANCH  67  69
ENDBRANCH  64  67
ENDBRANCH  59  61
ENDBRANCH   2  59
TORSDOF 26
TER
