USER    Run = 1
USER    DPF = ligand_420_receptor.dpf
USER  
USER    Estimated Free Energy of Binding    =  +17.06 kcal/mol  [=(1)+(2)+(3)-(4)]
USER    
USER    (1) Final Intermolecular Energy     =  +15.87 kcal/mol
USER        vdW + Hbond + desolv Energy     =  +15.87 kcal/mol
USER        Electrostatic Energy            =   +0.00 kcal/mol
USER    (2) Final Total Internal Energy     =   +1.61 kcal/mol
USER    (3) Torsional Free Energy           =   +1.19 kcal/mol
USER    (4) Unbound System's Energy  [=(2)] =   +1.61 kcal/mol
USER    
USER    
USER    NEWDPF move ligand_420.pdbqt
USER    NEWDPF about 0.000000 0.000000 0.000000
USER    NEWDPF tran0 20.227115 8.976574 2.798177
USER    NEWDPF quaternion0 -0.093194 -0.636506 0.458744 0.612967
USER    NEWDPF axisangle0 -0.117951 -0.805593 0.580609 104.391352
USER    NEWDPF quat0 -0.117951 -0.805593 0.580609 104.391352
USER    NEWDPF dihe0 -162.41 180.00 179.65 -135.81 122.29 130.64 173.42 -78.48 -76.92 180.00 178.21 
USER  keepresnum = 1 
USER  
REMARK  11 active torsions:
REMARK  status: ('A' for Active; 'I' for Inactive)
REMARK    1  A    between atoms: C2_2  and  C3_3 
REMARK    2  A    between atoms: C2_2  and  N16_67 
REMARK    3  A    between atoms: C3_3  and  N1_46 
REMARK    4  A    between atoms: C4_4  and  N1_46 
REMARK    5  A    between atoms: C7_7  and  C9_9 
REMARK    6  A    between atoms: C12_12  and  C14_14 
REMARK    7  A    between atoms: C20_20  and  O1_68 
REMARK    8  A    between atoms: C21_21  and  O1_68 
REMARK    9  A    between atoms: C23_23  and  C25_25 
REMARK   10  A    between atoms: C27_27  and  C29_29 
REMARK   11  A    between atoms: C35_35  and  C36_36 
USER                              x       y       z     vdW  Elec       q    Type
USER                           _______ _______ _______ _____ _____    ______ ____
ROOT
ATOM      1  C21 UNL     1      16.153   8.918   3.182 -0.37 +0.00    +0.170 A 
ATOM      2  C22 UNL     1      16.936   9.569   2.252 -0.37 +0.00    +0.146 A 
ATOM      3  C23 UNL     1      15.707   8.239   1.100 +0.43 +0.00    +0.138 A 
ATOM      4  C24 UNL     1      14.464   7.083   2.966 +5.84 +0.00    +0.160 C 
ATOM      5  N6  UNL     1      16.665   9.133   0.980 -0.24 -0.00    -0.346 N 
ATOM      6  H6  UNL     1      17.116   9.439   0.118 +0.12 +0.00    +0.167 HD
ATOM      7  N7  UNL     1      15.388   8.051   2.428 +0.13 -0.00    -0.315 N 
ENDROOT
BRANCH   1   8
ATOM      8  O1  UNL     1      16.016   8.965   4.509 -0.26 -0.00    -0.260 OA
BRANCH   8   9
ATOM      9  C20 UNL     1      15.125   8.214   5.153 +1.49 +0.00    +0.231 A 
ATOM     10  N4  UNL     1      15.522   7.080   5.807 +0.85 -0.00    -0.320 N 
ATOM     11  C17 UNL     1      14.416   6.507   6.382 -0.36 +0.00    +0.062 A 
ATOM     12  H47 UNL     1      16.467   6.735   5.847 +0.16 +0.00    +0.169 HD
ATOM     13  C16 UNL     1      13.373   7.358   6.028 -0.39 +0.00    +0.063 A 
ATOM     14  C18 UNL     1      14.242   5.357   7.151 -0.48 +0.00    +0.033 A 
ATOM     15  C15 UNL     1      12.071   7.063   6.455 -0.36 +0.00    +0.045 A 
ATOM     16  N5  UNL     1      13.832   8.409   5.272 -0.17 -0.00    -0.320 N 
ATOM     17  C14 UNL     1      11.859   5.917   7.238 -0.38 -0.00    -0.007 A 
ATOM     18  C19 UNL     1      12.934   5.080   7.570 -0.54 +0.00    +0.016 A 
ATOM     19  H5  UNL     1      13.284   9.178   4.885 +0.12 +0.00    +0.169 HD
BRANCH  17  20
ATOM     20  C12 UNL     1      10.506   5.590   7.690 -0.02 +0.00    +0.045 A 
ATOM     21  C11 UNL     1      10.051   5.412   8.986 +2.34 +0.00    +0.033 A 
ATOM     22  C10 UNL     1       8.669   5.126   8.930 +0.02 +0.00    +0.034 A 
ATOM     23  C9  UNL     1       8.293   5.134   7.602 -0.43 +0.00    +0.061 A 
ATOM     24  N3  UNL     1       9.428   5.360   6.850 -0.12 -0.00    -0.349 N 
ATOM     25  C13 UNL     1       9.497   5.308   5.403 -0.25 +0.00    +0.156 C 
BRANCH  23  26
ATOM     26  C7  UNL     1       6.985   4.919   7.062 -0.42 +0.00    +0.062 A 
ATOM     27  C6  UNL     1       5.827   5.607   7.361 -0.31 +0.00    +0.035 A 
ATOM     28  C5  UNL     1       4.780   5.032   6.604 -0.36 +0.00    +0.044 A 
ATOM     29  C4  UNL     1       5.310   3.989   5.875 -0.31 +0.00    +0.082 A 
ATOM     30  N2  UNL     1       6.675   3.987   6.090 -0.17 -0.00    -0.340 N 
ATOM     31  C8  UNL     1       7.647   3.225   5.337 +1.40 +0.00    +0.158 C 
BRANCH  29  32
ATOM     32  N1  UNL     1       4.663   3.136   5.034 -0.17 -0.00    -0.277 NA
ATOM     33  H46 UNL     1       4.841   2.151   5.221 -0.27 +0.00    +0.129 HD
BRANCH  32  34
ATOM     34  C3  UNL     1       4.683   3.407   3.589 -0.14 +0.00    +0.129 C 
BRANCH  34  35
ATOM     35  C2  UNL     1       4.877   4.913   3.227 -0.11 +0.00    +0.231 C 
ATOM     36  C1  UNL     1       3.803   5.408   2.247 -0.09 +0.00    +0.044 C 
BRANCH  35  37
ATOM     37  N16 UNL     1       6.224   5.368   2.798 -0.14 +0.00    +0.085 N 
ATOM     38  C44 UNL     1       6.985   6.115   3.795 -0.02 +0.00    +0.309 C 
ATOM     39  C45 UNL     1       6.175   6.123   1.544 -0.16 +0.00    +0.309 C 
ENDBRANCH  35  37
ENDBRANCH  34  35
ENDBRANCH  32  34
ENDBRANCH  29  32
ENDBRANCH  23  26
ENDBRANCH  17  20
ENDBRANCH   8   9
ENDBRANCH   1   8
BRANCH   3  40
ATOM     40  C25 UNL     1      15.122   7.569  -0.024 +1.82 +0.00    +0.096 A 
ATOM     41  C26 UNL     1      15.648   7.248  -1.257 +3.23 +0.00    +0.123 A 
ATOM     42  N8  UNL     1      14.723   6.634  -2.052 +5.58 -0.00    -0.349 N 
ATOM     43  C27 UNL     1      13.614   6.561  -1.337 +1.01 +0.00    +0.118 A 
ATOM     44  H8  UNL     1      14.861   6.299  -3.006 +0.09 +0.00    +0.167 HD
ATOM     45  N9  UNL     1      13.842   7.045  -0.060 +0.08 -0.00    -0.333 N 
ATOM     46  C28 UNL     1      12.932   6.985   1.061 +0.39 +0.00    +0.158 C 
BRANCH  43  47
ATOM     47  C29 UNL     1      12.353   6.012  -1.840 +0.06 +0.00    +0.010 A 
ATOM     48  C30 UNL     1      11.401   5.465  -0.962 -0.28 +0.00    +0.047 A 
ATOM     49  C31 UNL     1      10.204   4.961  -1.490 -0.18 +0.00    +0.061 A 
ATOM     50  C32 UNL     1       9.978   5.028  -2.859 -0.19 +0.00    +0.060 A 
ATOM     51  N11 UNL     1       9.140   4.376  -0.845 -0.03 -0.00    -0.339 N 
ATOM     52  C33 UNL     1      10.884   5.587  -3.759 -0.26 +0.00    +0.033 A 
ATOM     53  N10 UNL     1       8.736   4.469  -3.021 -0.08 -0.00    -0.339 N 
ATOM     54  C34 UNL     1      12.077   6.081  -3.215 -0.08 +0.00    +0.017 A 
ATOM     55  C35 UNL     1       8.281   4.067  -1.792 -0.08 +0.00    +0.135 A 
ATOM     56  H48 UNL     1       8.229   4.394  -3.890 +0.03 +0.00    +0.167 HD
ATOM     57  H11 UNL     1       9.039   4.215   0.157 +0.06 +0.00    +0.167 HD
BRANCH  55  58
ATOM     58  C36 UNL     1       7.013   3.465  -1.556 -0.07 +0.00    +0.096 A 
ATOM     59  C37 UNL     1       5.978   3.289  -2.449 -0.07 +0.00    +0.123 A 
ATOM     60  N12 UNL     1       4.937   2.608  -1.876 -0.02 -0.00    -0.347 N 
ATOM     61  C38 UNL     1       5.298   2.389  -0.625 -0.06 +0.00    +0.153 A 
ATOM     62  H12 UNL     1       4.064   2.329  -2.323 +0.03 +0.00    +0.167 HD
ATOM     63  C40 UNL     1       4.509   1.657   0.327 -0.10 +0.00    +0.152 A 
ATOM     64  N13 UNL     1       6.533   2.956  -0.370 -0.00 -0.00    -0.330 N 
ATOM     65  N14 UNL     1       4.933   1.291   1.526 -0.09 -0.00    -0.348 N 
ATOM     66  N15 UNL     1       3.219   1.219   0.123 -0.07 -0.00    -0.343 N 
ATOM     67  C41 UNL     1       3.892   0.610   2.103 -0.14 +0.00    +0.107 A 
ATOM     68  H14 UNL     1       5.847   1.478   1.938 +0.06 +0.00    +0.167 HD
ATOM     69  C42 UNL     1       2.817   0.553   1.251 -0.12 +0.00    +0.109 A 
ATOM     70  C43 UNL     1       2.411   1.419  -1.056 -0.07 +0.00    +0.157 C 
ATOM     71  C39 UNL     1       7.146   3.066   0.934 -0.09 +0.00    +0.158 C 
ENDBRANCH  55  58
ENDBRANCH  43  47
ENDBRANCH   3  40
TORSDOF 11
TER
