USER    Run = 1
USER    DPF = ligand_434_receptor.dpf
USER  
USER    Estimated Free Energy of Binding    =  +2.78e+003 kcal/mol  [=(1)+(2)+(3)-(4)]
USER    
USER    (1) Final Intermolecular Energy     =  +2.78e+003 kcal/mol
USER        vdW + Hbond + desolv Energy     =  +2.78e+003 kcal/mol
USER        Electrostatic Energy            =   +0.00 kcal/mol
USER    (2) Final Total Internal Energy     =   -2.20 kcal/mol
USER    (3) Torsional Free Energy           =   +1.19 kcal/mol
USER    (4) Unbound System's Energy  [=(2)] =   -2.20 kcal/mol
USER    
USER    
USER    NEWDPF move ligand_434.pdbqt
USER    NEWDPF about 0.000000 0.000000 0.000000
USER    NEWDPF tran0 11.585059 0.768916 5.057983
USER    NEWDPF quaternion0 0.113187 -0.876076 -0.466763 -0.042564
USER    NEWDPF axisangle0 0.113289 -0.876871 -0.467187 -175.121002
USER    NEWDPF quat0 0.113289 -0.876871 -0.467187 -175.121002
USER    NEWDPF dihe0 -180.00 47.56 -178.11 77.63 173.32 112.85 -26.58 164.87 -18.42 -43.81 90.48 37.54 178.39 125.39 143.50 49.94 97.02 -72.19 -160.45 -152.59 50.94 -61.55 -10.98 -29.41 180.00 
USER  keepresnum = 1 
USER  
REMARK  25 active torsions:
REMARK  status: ('A' for Active; 'I' for Inactive)
REMARK    1  A    between atoms: C4_4  and  C5_5 
REMARK       I    between atoms: C5_5  and  N3_59 
REMARK    2  A    between atoms: C6_6  and  N3_59 
REMARK    3  A    between atoms: C8_8  and  C9_9 
REMARK       I    between atoms: C9_9  and  N6_63 
REMARK    4  A    between atoms: C10_10  and  N6_63 
REMARK    5  A    between atoms: C12_12  and  C13_13 
REMARK       I    between atoms: C13_13  and  N9_67 
REMARK    6  A    between atoms: C14_14  and  N9_67 
REMARK    7  A    between atoms: C16_16  and  C17_17 
REMARK       I    between atoms: C17_17  and  N12_71 
REMARK    8  A    between atoms: C18_18  and  C19_19 
REMARK    9  A    between atoms: C18_18  and  N12_71 
REMARK   10  A    between atoms: C19_19  and  C20_20 
REMARK   11  A    between atoms: C20_20  and  C21_21 
REMARK       I    between atoms: C21_21  and  N13_72 
REMARK   12  A    between atoms: C22_22  and  N13_72 
REMARK   13  A    between atoms: C24_24  and  C26_26 
REMARK       I    between atoms: C26_26  and  N15_74 
REMARK   14  A    between atoms: C27_27  and  N15_74 
REMARK   15  A    between atoms: C29_29  and  C31_31 
REMARK       I    between atoms: C31_31  and  N17_76 
REMARK   16  A    between atoms: C32_32  and  N17_76 
REMARK   17  A    between atoms: C34_34  and  C36_36 
REMARK       I    between atoms: C36_36  and  N19_78 
REMARK   18  A    between atoms: C37_37  and  N19_78 
REMARK   19  A    between atoms: C39_39  and  C41_41 
REMARK       I    between atoms: C41_41  and  N21_80 
REMARK   20  A    between atoms: C42_42  and  C43_43 
REMARK   21  A    between atoms: C42_42  and  N21_80 
REMARK   22  A    between atoms: C43_43  and  C44_44 
REMARK       I    between atoms: C44_44  and  N22_81 
REMARK   23  A    between atoms: C45_45  and  C46_46 
REMARK   24  A    between atoms: C45_45  and  N22_81 
REMARK   25  A    between atoms: C46_46  and  N23_82 
USER                              x       y       z     vdW  Elec       q    Type
USER                           _______ _______ _______ _____ _____    ______ ____
ROOT
ATOM      1  C22 UNL     1       6.056   0.215   0.554+18.81 +0.00    +0.052 A 
ATOM      2  C23 UNL     1       5.734  -0.071   1.855+47.56 +0.00    +0.120 A 
ATOM      3  C24 UNL     1       7.671   1.098   1.914 +0.53 +0.00    +0.105 A 
ATOM      4  C25 UNL     1       7.255   0.970   0.590 -0.08 +0.00    +0.066 A 
ATOM      5  C52 UNL     1       6.708   0.298   4.111 +6.64 +0.00    +0.156 C 
ATOM      6  N14 UNL     1       6.703   0.455   2.670 +5.78 -0.00    -0.354 N 
ENDROOT
BRANCH   1   7
ATOM      7  N13 UNL     1       5.394  -0.167  -0.596 +2.14 -0.00    -0.326 N 
ATOM      8  C21 UNL     1       5.746   0.199  -1.883 +0.03 +0.00    +0.222 C 
ATOM      9  O5  UNL     1       6.763   0.789  -2.233 -0.09 -0.00    -0.273 OA
ATOM     10  H62 UNL     1       4.535  -0.685  -0.461 +1.08 +0.00    +0.169 HD
BRANCH   8  11
ATOM     11  C20 UNL     1       4.700  -0.192  -2.910 +0.18 +0.00    +0.105 C 
BRANCH  11  12
ATOM     12  C19 UNL     1       3.266  -0.096  -2.387 -0.02 +0.00    +0.029 C 
BRANCH  12  13
ATOM     13  C18 UNL     1       2.915   1.265  -1.779 -0.07 +0.00    +0.123 C 
BRANCH  13  14
ATOM     14  N12 UNL     1       4.061   2.072  -1.443 -0.02 -0.00    -0.354 N 
ATOM     15  C17 UNL     1       4.168   3.418  -1.721 -0.08 +0.00    +0.285 C 
ATOM     16  O4  UNL     1       3.266   4.052  -2.266 -0.13 -0.00    -0.264 OA
ATOM     17  H61 UNL     1       4.831   1.677  -0.902 +0.04 +0.00    +0.162 HD
BRANCH  15  18
ATOM     18  C16 UNL     1       5.429   3.995  -1.280 -0.06 +0.00    +0.178 A 
ATOM     19  N10 UNL     1       6.426   4.503  -2.081 +2.28 -0.00    -0.339 N 
ATOM     20  C15 UNL     1       7.419   4.976  -1.271 +0.73 +0.00    +0.140 A 
ATOM     21  C53 UNL     1       6.424   4.555  -3.522 +8.30 +0.00    +0.157 C 
ATOM     22  C14 UNL     1       6.982   4.734   0.006 -0.09 +0.00    +0.125 A 
ATOM     23  N11 UNL     1       5.765   4.116  -0.003 -0.05 -0.00    -0.323 N 
ATOM     24  H11 UNL     1       5.225   3.810   0.807 +0.05 +0.00    +0.169 HD
BRANCH  22  25
ATOM     25  N9  UNL     1       7.571   5.021   1.204 -0.02 -0.00    -0.305 N 
ATOM     26  C13 UNL     1       8.075   6.240   1.594 -0.13 +0.00    +0.291 C 
ATOM     27  O3  UNL     1       8.063   7.264   0.914 -0.26 -0.00    -0.264 OA
ATOM     28  H60 UNL     1       7.629   4.257   1.869 +0.08 +0.00    +0.170 HD
BRANCH  26  29
ATOM     29  C12 UNL     1       8.634   6.191   2.939 -0.15 +0.00    +0.178 A 
ATOM     30  N7  UNL     1       7.987   5.795   4.088 -0.07 -0.00    -0.339 N 
ATOM     31  C11 UNL     1       8.870   5.899   5.126 -0.09 +0.00    +0.140 A 
ATOM     32  C54 UNL     1       6.618   5.350   4.192 -0.18 +0.00    +0.157 C 
ATOM     33  C10 UNL     1      10.033   6.357   4.562 -0.21 +0.00    +0.125 A 
ATOM     34  N8  UNL     1       9.884   6.536   3.216 -0.12 -0.00    -0.323 N 
ATOM     35  H8  UNL     1      10.590   6.868   2.558 +0.10 +0.00    +0.169 HD
BRANCH  33  36
ATOM     36  N6  UNL     1      11.238   6.633   5.142 -0.13 -0.00    -0.305 N 
ATOM     37  C9  UNL     1      11.832   5.936   6.168 -0.21 +0.00    +0.291 C 
ATOM     38  O2  UNL     1      11.360   4.951   6.731 -0.23 -0.00    -0.264 OA
ATOM     39  H59 UNL     1      11.746   7.434   4.773 +0.12 +0.00    +0.170 HD
BRANCH  37  40
ATOM     40  C8  UNL     1      13.122   6.510   6.526 -0.31 +0.00    +0.178 A 
ATOM     41  N4  UNL     1      13.612   6.742   7.790 -0.26 -0.00    -0.339 N 
ATOM     42  C7  UNL     1      14.862   7.285   7.664+20.45 +0.00    +0.140 A 
ATOM     43  C55 UNL     1      12.935   6.463   9.033 -0.41 +0.00    +0.157 C 
ATOM     44  C6  UNL     1      15.082   7.361   6.310+11.65 +0.00    +0.125 A 
ATOM     45  N5  UNL     1      14.010   6.887   5.619 -0.24 -0.00    -0.323 N 
ATOM     46  H5  UNL     1      13.910   6.833   4.605 +0.10 +0.00    +0.169 HD
BRANCH  44  47
ATOM     47  N3  UNL     1      16.221   7.839   5.727+20.91 -0.00    -0.305 N 
ATOM     48  C5  UNL     1      16.697   7.470   4.488 +0.14 +0.00    +0.291 C 
ATOM     49  O1  UNL     1      16.172   6.677   3.712+23.14 -0.00    -0.264 OA
ATOM     50  H58 UNL     1      16.783   8.514   6.234+45.85 +0.00    +0.170 HD
BRANCH  48  51
ATOM     51  C4  UNL     1      17.950   8.155   4.184 -0.25 +0.00    +0.176 A 
ATOM     52  N1  UNL     1      18.121   9.223   3.334 -0.23 -0.00    -0.342 N 
ATOM     53  C1  UNL     1      17.089   9.878   2.567 -0.42 +0.00    +0.157 C 
ATOM     54  C2  UNL     1      19.448   9.557   3.336 +0.44 +0.00    +0.109 A 
ATOM     55  C3  UNL     1      20.041   8.666   4.197 +1.65 +0.00    +0.107 A 
ATOM     56  N2  UNL     1      19.114   7.801   4.718 +0.68 -0.00    -0.346 N 
ATOM     57  H2  UNL     1      19.282   7.043   5.379 +0.30 +0.00    +0.167 HD
ENDBRANCH  48  51
ENDBRANCH  44  47
ENDBRANCH  37  40
ENDBRANCH  33  36
ENDBRANCH  26  29
ENDBRANCH  22  25
ENDBRANCH  15  18
ENDBRANCH  13  14
ENDBRANCH  12  13
ENDBRANCH  11  12
ENDBRANCH   8  11
ENDBRANCH   1   7
BRANCH   3  58
ATOM     58  C26 UNL     1       8.853   1.751   2.472 +3.93 +0.00    +0.273 C 
ATOM     59  N15 UNL     1      10.024   1.034   2.303 +4.44 -0.00    -0.320 N 
ATOM     60  H63 UNL     1       9.984   0.144   1.835 -0.28 +0.00    +0.169 HD
ATOM     61  O6  UNL     1       8.789   2.832   3.053 -0.20 -0.00    -0.266 OA
BRANCH  59  62
ATOM     62  C27 UNL     1      11.271   1.422   2.754 +6.21 +0.00    +0.053 A 
ATOM     63  C28 UNL     1      11.447   2.365   3.737 +6.07 +0.00    +0.120 A 
ATOM     64  N16 UNL     1      12.794   2.523   3.947+46.97 -0.00    -0.354 N 
ATOM     65  C29 UNL     1      13.514   1.685   3.110+82.29 +0.00    +0.105 A 
ATOM     66  C51 UNL     1      13.355   3.436   4.922+41.02 +0.00    +0.156 C 
ATOM     67  C30 UNL     1      12.562   1.001   2.359+15.79 +0.00    +0.066 A 
BRANCH  65  68
ATOM     68  C31 UNL     1      14.975   1.604   3.076+15.42 +0.00    +0.273 C 
ATOM     69  N17 UNL     1      15.571   2.461   2.170+99.99 -0.00    -0.320 N 
ATOM     70  H64 UNL     1      14.984   3.047   1.596+27.35 +0.00    +0.169 HD
ATOM     71  O7  UNL     1      15.596   0.825   3.795 +4.31 -0.00    -0.266 OA
BRANCH  69  72
ATOM     72  C32 UNL     1      16.931   2.579   1.953+99.99 +0.00    +0.053 A 
ATOM     73  C33 UNL     1      17.854   2.490   2.966+17.40 +0.00    +0.120 A 
ATOM     74  N18 UNL     1      19.106   2.651   2.425 +7.89 -0.00    -0.354 N 
ATOM     75  C34 UNL     1      19.018   2.840   1.054+99.99 +0.00    +0.105 A 
ATOM     76  C50 UNL     1      20.328   2.618   3.202+11.86 +0.00    +0.156 C 
ATOM     77  C35 UNL     1      17.656   2.800   0.760+99.99 +0.00    +0.066 A 
BRANCH  75  78
ATOM     78  C36 UNL     1      20.169   3.041   0.171+99.99 +0.00    +0.273 C 
ATOM     79  N19 UNL     1      21.379   3.154   0.831+31.34 -0.00    -0.320 N 
ATOM     80  H65 UNL     1      21.386   3.117   1.838 +0.11 +0.00    +0.169 HD
ATOM     81  O8  UNL     1      20.042   3.109  -1.048+92.22 -0.00    -0.266 OA
BRANCH  79  82
ATOM     82  C37 UNL     1      22.608   3.336   0.227+99.99 +0.00    +0.053 A 
ATOM     83  C38 UNL     1      23.411   2.284  -0.148+99.99 +0.00    +0.120 A 
ATOM     84  N20 UNL     1      24.546   2.792  -0.732 +2.25 -0.00    -0.354 N 
ATOM     85  C39 UNL     1      24.519   4.172  -0.692 -0.24 +0.00    +0.104 A 
ATOM     86  C49 UNL     1      25.554   1.965  -1.363+52.84 +0.00    +0.156 C 
ATOM     87  C40 UNL     1      23.293   4.517  -0.135 +4.01 +0.00    +0.066 A 
BRANCH  85  88
ATOM     88  C41 UNL     1      25.527   5.101  -1.169 -0.34 +0.00    +0.268 C 
ATOM     89  N21 UNL     1      26.786   4.900  -0.647 -0.14 -0.00    -0.355 N 
ATOM     90  H66 UNL     1      26.821   4.396   0.235 +0.08 +0.00    +0.162 HD
ATOM     91  O9  UNL     1      25.280   6.024  -1.940 -0.37 -0.00    -0.266 OA
BRANCH  89  92
ATOM     92  C42 UNL     1      27.840   5.880  -0.825 -0.25 +0.00    +0.132 C 
BRANCH  92  93
ATOM     93  C43 UNL     1      27.322   7.196  -1.388 -0.14 +0.00    +0.122 C 
BRANCH  93  94
ATOM     94  C44 UNL     1      26.137   7.737  -0.613 +0.03 +0.00    +0.219 C 
ATOM     95  N22 UNL     1      25.863   7.018   0.533 -0.12 -0.00    -0.359 N 
ATOM     96  H67 UNL     1      26.591   6.416   0.898 +0.11 +0.00    +0.162 HD
ATOM     97  O10 UNL     1      25.454   8.681  -0.996 +5.24 -0.00    -0.274 OA
BRANCH  95  98
ATOM     98  C45 UNL     1      24.826   7.460   1.455 -0.37 +0.00    +0.152 C 
BRANCH  98  99
ATOM     99  C46 UNL     1      24.407   8.917   1.186 -0.25 +0.00    +0.290 C 
BRANCH  99 100
ATOM    100  N23 UNL     1      24.297   9.819   2.343 -0.43 +0.00    +0.081 N 
ATOM    101  C47 UNL     1      25.236  10.936   2.281 +0.56 +0.00    +0.309 C 
ATOM    102  C48 UNL     1      22.932  10.298   2.552 +1.76 +0.00    +0.309 C 
ENDBRANCH  99 100
ENDBRANCH  98  99
ENDBRANCH  95  98
ENDBRANCH  93  94
ENDBRANCH  92  93
ENDBRANCH  89  92
ENDBRANCH  85  88
ENDBRANCH  79  82
ENDBRANCH  75  78
ENDBRANCH  69  72
ENDBRANCH  65  68
ENDBRANCH  59  62
ENDBRANCH   3  58
TORSDOF 25
TER
