USER    Run = 1
USER    DPF = ligand_55_receptor.dpf
USER  
USER    Estimated Free Energy of Binding    =  +55.95 kcal/mol  [=(1)+(2)+(3)-(4)]
USER    
USER    (1) Final Intermolecular Energy     =  +54.75 kcal/mol
USER        vdW + Hbond + desolv Energy     =  +54.75 kcal/mol
USER        Electrostatic Energy            =   +0.00 kcal/mol
USER    (2) Final Total Internal Energy     =   +9.28 kcal/mol
USER    (3) Torsional Free Energy           =   +1.19 kcal/mol
USER    (4) Unbound System's Energy  [=(2)] =   +9.28 kcal/mol
USER    
USER    
USER    NEWDPF move ligand_55.pdbqt
USER    NEWDPF about 0.000000 0.000000 0.000000
USER    NEWDPF tran0 18.517111 6.221945 -3.120544
USER    NEWDPF quaternion0 -0.182009 -0.398798 0.537718 0.720203
USER    NEWDPF axisangle0 -0.262350 -0.574833 0.775074 87.857560
USER    NEWDPF quat0 -0.262350 -0.574833 0.775074 87.857560
USER    NEWDPF dihe0 -180.00 31.41 -79.08 179.98 123.22 -107.42 71.97 5.53 175.80 -8.00 -149.34 -73.97 176.42 116.12 120.67 97.95 75.09 -128.68 -47.87 155.35 180.00 135.63 -140.99 103.06 57.87 -167.84 
USER  keepresnum = 1 
USER  
REMARK  26 active torsions:
REMARK  status: ('A' for Active; 'I' for Inactive)
REMARK    1  A    between atoms: C3_3  and  C4_4 
REMARK    2  A    between atoms: C4_4  and  C42_42 
REMARK    3  A    between atoms: C5_5  and  C6_6 
REMARK    4  A    between atoms: C5_5  and  C41_41 
REMARK    5  A    between atoms: C7_7  and  C8_8 
REMARK       I    between atoms: C8_8  and  N1_62 
REMARK    6  A    between atoms: C9_9  and  C10_10 
REMARK    7  A    between atoms: C9_9  and  N1_62 
REMARK    8  A    between atoms: C10_10  and  C11_11 
REMARK    9  A    between atoms: C11_11  and  C12_12 
REMARK   10  A    between atoms: C12_12  and  C13_13 
REMARK   11  A    between atoms: C13_13  and  C14_14 
REMARK       I    between atoms: C14_14  and  N2_63 
REMARK   12  A    between atoms: C15_15  and  C16_16 
REMARK   13  A    between atoms: C15_15  and  N2_63 
REMARK   14  A    between atoms: C16_16  and  C17_17 
REMARK   15  A    between atoms: C17_17  and  C18_18 
REMARK   16  A    between atoms: C18_18  and  C19_19 
REMARK   17  A    between atoms: C19_19  and  O3_57 
REMARK   18  A    between atoms: C20_20  and  O3_57 
REMARK   19  A    between atoms: C24_24  and  N3_64 
REMARK   20  A    between atoms: C26_26  and  C27_27 
REMARK   21  A    between atoms: C26_26  and  N3_64 
REMARK   22  A    between atoms: C27_27  and  C28_28 
REMARK   23  A    between atoms: C27_27  and  O4_58 
REMARK   24  A    between atoms: C28_28  and  N4_65 
REMARK   25  A    between atoms: C41_41  and  O6_60 
REMARK   26  A    between atoms: C53_53  and  N6_68 
USER                              x       y       z     vdW  Elec       q    Type
USER                           _______ _______ _______ _____ _____    ______ ____
ROOT
ATOM      1  C12 UNL     1      14.452   8.440  -0.681+11.98 +0.00    +0.009 C 
ENDROOT
BRANCH   1   2
ATOM      2  C11 UNL     1      13.572   7.643   0.287+10.60 +0.00    +0.002 C 
BRANCH   2   3
ATOM      3  C10 UNL     1      12.802   6.494  -0.376 -0.51 +0.00    +0.020 C 
BRANCH   3   4
ATOM      4  C9  UNL     1      12.298   5.406   0.575 +1.22 +0.00    +0.123 C 
BRANCH   4   5
ATOM      5  N1  UNL     1      11.015   5.719   1.168 +0.01 -0.00    -0.358 N 
ATOM      6  C8  UNL     1       9.863   5.081   0.794 +0.03 +0.00    +0.241 C 
ATOM      7  O1  UNL     1       9.774   4.300  -0.146 -0.11 -0.00    -0.269 OA
ATOM      8  H51 UNL     1      10.994   6.431   1.883 +0.07 +0.00    +0.162 HD
BRANCH   6   9
ATOM      9  C7  UNL     1       8.654   5.411   1.592 -0.17 +0.00    +0.075 C 
ATOM     10  C6  UNL     1       8.061   6.617   1.582 -0.31 +0.00    +0.024 C 
BRANCH  10  11
ATOM     11  C5  UNL     1       6.915   7.023   2.400 -0.35 +0.00    +0.049 C 
ATOM     12  C4  UNL     1       6.430   6.306   3.456 -0.08 -0.00    -0.007 C 
BRANCH  12  13
ATOM     13  C3  UNL     1       5.192   6.706   4.157 +4.23 +0.00    +0.009 C 
ATOM     14  C2  UNL     1       4.129   5.912   4.364 -0.20 -0.00    -0.030 C 
ATOM     15  C1  UNL     1       2.883   6.360   5.060 -0.18 +0.00    +0.036 C 
ENDBRANCH  12  13
BRANCH  12  16
ATOM     16  C42 UNL     1       7.145   5.067   3.882 -0.21 +0.00    +0.001 A 
ATOM     17  C43 UNL     1       6.725   3.830   3.496 -0.20 +0.00    +0.010 A 
ATOM     18  C44 UNL     1       5.549   3.645   2.635 -0.12 +0.00    +0.017 A 
ATOM     19  C48 UNL     1       7.444   2.623   3.927 -0.05 +0.00    +0.089 A 
ATOM     20  C45 UNL     1       5.114   2.430   2.276 -0.15 +0.00    +0.030 A 
ATOM     21  C46 UNL     1       5.821   1.212   2.738 -0.26 +0.00    +0.028 A 
ATOM     22  C47 UNL     1       7.023   1.401   3.577 +0.60 +0.00    +0.067 A 
ATOM     23  N5  UNL     1       5.431   0.017   2.437 +3.65 -0.00    -0.399 N 
ATOM     24  H54 UNL     1       4.590   0.038   1.852 +0.06 +0.00    +0.156 HD
ATOM     25  H5  UNL     1       5.901  -0.836   2.742 +6.86 +0.00    +0.156 HD
ATOM     26  O7  UNL     1       8.582   2.728   4.712 -0.08 -0.00    -0.309 OA
ATOM     27  C49 UNL     1       9.006   3.965   5.116 -0.31 +0.00    +0.089 A 
ATOM     28  C50 UNL     1       8.349   5.139   4.753 -0.25 +0.00    +0.010 A 
ATOM     29  C54 UNL     1      10.132   3.985   5.947 -0.39 +0.00    +0.061 A 
ATOM     30  C51 UNL     1       8.841   6.348   5.269 +0.90 +0.00    +0.017 A 
ATOM     31  C52 UNL     1       9.958   6.368   6.112 -0.13 +0.00    +0.024 A 
ATOM     32  C53 UNL     1      10.643   5.192   6.420 -0.34 +0.00    +0.008 A 
BRANCH  32  33
ATOM     33  N6  UNL     1      11.659   5.197   7.389 -0.18 -0.00    -0.303 NA
ATOM     34  H55 UNL     1      11.711   4.319   7.902 +0.09 +0.00    +0.124 HD
ATOM     35  H56 UNL     1      11.579   5.983   8.033 +0.10 +0.00    +0.124 HD
ENDBRANCH  32  33
ENDBRANCH  12  16
BRANCH  11  36
ATOM     36  C41 UNL     1       6.214   8.282   2.043 +0.19 +0.00    +0.177 C 
ATOM     37  O5  UNL     1       5.759   9.101   2.818 +4.20 -0.00    -0.646 OA
BRANCH  36  38
ATOM     38  O6  UNL     1       6.133   8.425   0.707 +0.51 -0.00    -0.773 OA
ATOM     39  H50 UNL     1       6.582   7.628   0.354 +0.06 +0.00    +0.167 HD
ENDBRANCH  36  38
ENDBRANCH  11  36
ENDBRANCH  10  11
ENDBRANCH   6   9
ENDBRANCH   4   5
ENDBRANCH   3   4
ENDBRANCH   2   3
ENDBRANCH   1   2
BRANCH   1  40
ATOM     40  C13 UNL     1      15.733   7.683  -1.038 +1.60 +0.00    +0.103 C 
BRANCH  40  41
ATOM     41  C14 UNL     1      16.913   8.018  -0.144 +0.37 +0.00    +0.217 C 
ATOM     42  O2  UNL     1      16.969   7.717   1.044 -0.29 -0.00    -0.274 OA
ATOM     43  N2  UNL     1      17.932   8.656  -0.818 +0.53 -0.00    -0.361 N 
ATOM     44  H52 UNL     1      17.776   8.962  -1.779 +0.12 +0.00    +0.162 HD
BRANCH  43  45
ATOM     45  C15 UNL     1      19.132   9.112  -0.151 +4.86 +0.00    +0.122 C 
BRANCH  45  46
ATOM     46  C16 UNL     1      18.898  10.401   0.634 -0.56 +0.00    +0.020 C 
BRANCH  46  47
ATOM     47  C17 UNL     1      19.534  11.654   0.023 -0.67 +0.00    +0.004 C 
BRANCH  47  48
ATOM     48  C18 UNL     1      19.210  12.980   0.722 -0.42 +0.00    +0.027 C 
BRANCH  48  49
ATOM     49  C19 UNL     1      18.698  12.839   2.155 -0.63 +0.00    +0.175 C 
BRANCH  49  50
ATOM     50  O3  UNL     1      19.733  12.282   2.965 +2.49 -0.00    -0.351 OA
BRANCH  50  51
ATOM     51  C20 UNL     1      20.122  11.000   2.683 +0.26 +0.00    +0.070 A 
ATOM     52  C21 UNL     1      19.388   9.846   2.941 -0.16 +0.00    +0.037 A 
ATOM     53  C22 UNL     1      19.909   8.603   2.585 +2.88 +0.00    +0.005 A 
ATOM     54  C23 UNL     1      21.167   8.516   1.982 +6.31 +0.00    +0.023 A 
ATOM     55  C24 UNL     1      21.941   9.658   1.741 -0.42 +0.00    +0.011 A 
ATOM     56  C25 UNL     1      21.382  10.897   2.073 +2.24 +0.00    +0.060 A 
BRANCH  55  57
ATOM     57  N3  UNL     1      23.158   9.497   1.070 -0.22 -0.00    -0.290 NA
ATOM     58  H53 UNL     1      23.604  10.399   0.901 +0.11 +0.00    +0.127 HD
BRANCH  57  59
ATOM     59  C26 UNL     1      23.273   8.598  -0.090 -0.46 +0.00    +0.126 C 
BRANCH  59  60
ATOM     60  C27 UNL     1      23.908   7.265   0.353 -0.42 +0.00    +0.149 C 
BRANCH  60  61
ATOM     61  C28 UNL     1      24.219   6.291  -0.791 -0.47 +0.00    +0.162 C 
BRANCH  61  62
ATOM     62  N4  UNL     1      25.633   6.035  -1.027 -0.19 -0.00    -0.343 N 
ATOM     63  C29 UNL     1      26.658   6.897  -0.685 -0.33 +0.00    +0.046 A 
ATOM     64  C30 UNL     1      27.854   6.284  -1.061 -0.29 +0.00    +0.005 A 
ATOM     65  C34 UNL     1      26.634   8.167  -0.081 -0.21 +0.00    +0.032 A 
ATOM     66  C31 UNL     1      29.072   6.958  -0.828 -0.22 +0.00    +0.033 A 
ATOM     67  C35 UNL     1      27.528   5.019  -1.638 -0.27 +0.00    +0.005 A 
ATOM     68  C32 UNL     1      29.050   8.220  -0.228 -0.23 +0.00    +0.011 A 
ATOM     69  C33 UNL     1      27.851   8.818   0.141 +0.37 +0.00    +0.021 A 
ATOM     70 BR1  UNL     1      30.681   9.127   0.085 -0.20 -0.00    -0.051 Br
ATOM     71  C36 UNL     1      26.139   4.879  -1.600 -0.39 +0.00    +0.046 A 
ATOM     72  C40 UNL     1      28.307   3.977  -2.188 -0.20 +0.00    +0.033 A 
ATOM     73  C37 UNL     1      25.499   3.726  -2.089 -0.20 +0.00    +0.032 A 
ATOM     74  C38 UNL     1      26.289   2.707  -2.630 -0.32 +0.00    +0.021 A 
ATOM     75  C39 UNL     1      27.671   2.834  -2.677 -0.27 +0.00    +0.011 A 
ATOM     76 BR2  UNL     1      28.712   1.437  -3.416 -0.19 -0.00    -0.051 Br
ENDBRANCH  61  62
ENDBRANCH  60  61
BRANCH  60  77
ATOM     77  O4  UNL     1      25.093   7.545   1.116 -0.14 -0.00    -0.393 OA
ATOM     78  H49 UNL     1      24.752   7.827   1.991 +0.17 +0.00    +0.210 HD
ENDBRANCH  60  77
ENDBRANCH  59  60
ENDBRANCH  57  59
ENDBRANCH  55  57
ENDBRANCH  50  51
ENDBRANCH  49  50
ENDBRANCH  48  49
ENDBRANCH  47  48
ENDBRANCH  46  47
ENDBRANCH  45  46
ENDBRANCH  43  45
ENDBRANCH  40  41
ENDBRANCH   1  40
TORSDOF 26
TER
