USER    Run = 1
USER    DPF = ligand_535_receptor.dpf
USER  
USER    Estimated Free Energy of Binding    =  +55.33 kcal/mol  [=(1)+(2)+(3)-(4)]
USER    
USER    (1) Final Intermolecular Energy     =  +54.14 kcal/mol
USER        vdW + Hbond + desolv Energy     =  +54.14 kcal/mol
USER        Electrostatic Energy            =   +0.00 kcal/mol
USER    (2) Final Total Internal Energy     =   +3.55 kcal/mol
USER    (3) Torsional Free Energy           =   +1.19 kcal/mol
USER    (4) Unbound System's Energy  [=(2)] =   +3.55 kcal/mol
USER    
USER    
USER    NEWDPF move ligand_535.pdbqt
USER    NEWDPF about 0.000000 0.000000 0.000000
USER    NEWDPF tran0 17.135080 8.626308 3.037021
USER    NEWDPF quaternion0 -0.215729 0.949370 -0.154942 -0.167782
USER    NEWDPF axisangle0 -0.218831 0.963022 -0.157170 -160.682281
USER    NEWDPF quat0 -0.218831 0.963022 -0.157170 -160.682281
USER    NEWDPF dihe0 172.73 -73.33 133.17 7.26 -180.00 100.10 62.57 -4.68 -80.21 152.25 -15.27 -180.00 -155.29 163.53 -57.92 -79.95 72.00 52.70 158.90 8.87 
USER  keepresnum = 1 
USER  
REMARK  20 active torsions:
REMARK  status: ('A' for Active; 'I' for Inactive)
REMARK    1  A    between atoms: N1_1  and  C1_11 
REMARK    2  A    between atoms: N1_1  and  C26_36 
REMARK       I    between atoms: N2_2  and  C16_26 
REMARK       I    between atoms: N3_3  and  C5_15 
REMARK    3  A    between atoms: N3_3  and  C6_16 
REMARK    4  A    between atoms: N4_4  and  C17_27 
REMARK       I    between atoms: N4_4  and  C22_32 
REMARK    5  A    between atoms: N5_5  and  C23_33 
REMARK       I    between atoms: N6_6  and  C32_42 
REMARK    6  A    between atoms: N6_6  and  C33_43 
REMARK       I    between atoms: N7_7  and  C39_49 
REMARK    7  A    between atoms: N8_8  and  C40_50 
REMARK       I    between atoms: N8_8  and  C41_51 
REMARK    8  A    between atoms: N9_9  and  C42_52 
REMARK       I    between atoms: N10_10  and  C52_62 
REMARK    9  A    between atoms: N10_10  and  C53_63 
REMARK   10  A    between atoms: C3_13  and  C5_15 
REMARK   11  A    between atoms: C16_26  and  C17_27 
REMARK   12  A    between atoms: C17_27  and  C18_28 
REMARK   13  A    between atoms: C22_32  and  C23_33 
REMARK   14  A    between atoms: C26_36  and  C27_37 
REMARK   15  A    between atoms: C27_37  and  C28_38 
REMARK   16  A    between atoms: C31_41  and  C32_42 
REMARK   17  A    between atoms: C38_48  and  C52_62 
REMARK   18  A    between atoms: C39_49  and  C40_50 
REMARK   19  A    between atoms: C40_50  and  C45_55 
REMARK   20  A    between atoms: C41_51  and  C42_52 
USER                              x       y       z     vdW  Elec       q    Type
USER                           _______ _______ _______ _____ _____    ______ ____
ROOT
ATOM      1  C28 UNL     1      14.671   8.973   2.994 +0.32 -0.00    -0.057 A 
ATOM      2  C29 UNL     1      15.104   8.040   2.043 +2.36 +0.00    +0.008 A 
ATOM      3  C30 UNL     1      16.432   8.034   1.612 +0.20 +0.00    +0.017 A 
ATOM      4  C31 UNL     1      17.345   8.954   2.139 -0.47 +0.00    +0.032 A 
ATOM      5  C63 UNL     1      16.915   9.902   3.075 -0.47 +0.00    +0.017 A 
ATOM      6  C64 UNL     1      15.586   9.904   3.505 +0.30 +0.00    +0.008 A 
ENDROOT
BRANCH   4   7
ATOM      7  C32 UNL     1      18.755   8.915   1.656 +1.96 +0.00    +0.256 C 
ATOM      8  N6  UNL     1      19.709   9.003   2.655 -0.01 -0.00    -0.323 N 
ATOM      9  H5  UNL     1      19.372   8.958   3.607 +0.11 +0.00    +0.169 HD
ATOM     10  O4  UNL     1      18.956   8.774   0.456 +9.13 -0.00    -0.267 OA
BRANCH   8  11
ATOM     11  C33 UNL     1      21.109   9.068   2.496 -0.07 +0.00    +0.035 A 
ATOM     12  C34 UNL     1      21.989   9.467   3.502 -0.34 +0.00    +0.030 A 
ATOM     13  C35 UNL     1      23.368   9.481   3.277 -0.54 +0.00    +0.010 A 
ATOM     14  C36 UNL     1      23.894   9.090   2.042 -0.43 -0.00    -0.048 A 
ATOM     15  C37 UNL     1      25.399   9.107   1.830 -0.50 +0.00    +0.074 C 
ATOM     16  C50 UNL     1      23.017   8.651   1.027 -0.43 -0.00    -0.032 A 
ATOM     17  C38 UNL     1      25.741   8.981   0.336 +1.86 +0.00    +0.184 C 
ATOM     18  N7  UNL     1      24.963   7.860  -0.249 -0.16 -0.00    -0.332 N 
ATOM     19  C39 UNL     1      25.423   6.571   0.028 -0.29 +0.00    +0.244 C 
ATOM     20  C49 UNL     1      23.549   8.209  -0.322 -0.42 +0.00    +0.166 C 
ATOM     21  O5  UNL     1      26.615   6.411   0.325 -0.20 -0.00    -0.271 OA
ATOM     22  C51 UNL     1      21.632   8.671   1.257 +3.37 +0.00    +0.039 A 
BRANCH  17  23
ATOM     23  C52 UNL     1      27.256   9.125   0.060 +2.42 +0.00    +0.241 C 
ATOM     24  N10 UNL     1      27.730   8.324  -0.959 +0.76 -0.00    -0.351 N 
ATOM     25  H8  UNL     1      27.245   7.440  -1.047 +0.08 +0.00    +0.163 HD
ATOM     26  O7  UNL     1      27.934  10.010   0.578 +6.44 -0.00    -0.271 OA
BRANCH  24  27
ATOM     27  C53 UNL     1      29.144   8.324  -1.307 +0.48 +0.00    +0.118 C 
ATOM     28  C54 UNL     1      29.365   7.702  -2.695 -0.29 +0.00    +0.030 C 
ATOM     29  C55 UNL     1      29.196   6.186  -2.646 -0.18 +0.00    +0.007 C 
ATOM     30  C56 UNL     1      30.238   5.559  -1.725 -0.11 +0.00    +0.039 C 
ATOM     31  C57 UNL     1      30.401   6.284  -0.412 -0.11 -0.00    -0.050 A 
ATOM     32  C58 UNL     1      29.928   7.597  -0.230 -0.21 -0.00    -0.029 A 
ATOM     33  C62 UNL     1      31.104   5.654   0.628 -0.16 +0.00    +0.007 A 
ATOM     34  C59 UNL     1      30.155   8.244   0.999 -0.19 +0.00    +0.010 A 
ATOM     35  C60 UNL     1      30.850   7.604   2.024 -0.34 +0.00    +0.001 A 
ATOM     36  C61 UNL     1      31.323   6.310   1.839 -0.29 +0.00    +0.001 A 
ENDBRANCH  24  27
ENDBRANCH  17  23
BRANCH  19  37
ATOM     37  C40 UNL     1      24.564   5.286  -0.227 -0.46 +0.00    +0.184 C 
BRANCH  37  38
ATOM     38  N8  UNL     1      25.235   4.250  -1.011 -0.25 -0.00    -0.345 N 
ATOM     39  C41 UNL     1      26.425   4.521  -1.669 -0.29 +0.00    +0.251 C 
ATOM     40  O6  UNL     1      27.026   5.581  -1.538 -0.21 -0.00    -0.271 OA
ATOM     41  H6  UNL     1      24.745   3.397  -1.240 +0.09 +0.00    +0.163 HD
BRANCH  39  42
ATOM     42  C42 UNL     1      26.887   3.372  -2.595 -0.17 +0.00    +0.307 C 
ATOM     43  C44 UNL     1      25.773   2.359  -2.841 +0.48 +0.00    +0.053 C 
BRANCH  42  44
ATOM     44  N9  UNL     1      28.149   2.773  -2.087 -0.23 +0.00    +0.092 N 
ATOM     45  C43 UNL     1      29.284   2.964  -2.987 -0.07 +0.00    +0.307 C 
ATOM     46  H7  UNL     1      28.020   1.773  -1.954 -0.25 +0.00    +0.316 HD
ENDBRANCH  42  44
ENDBRANCH  39  42
ENDBRANCH  37  38
BRANCH  37  47
ATOM     47  C45 UNL     1      23.856   4.721   1.055 -0.62 -0.00    -0.022 C 
ATOM     48  C46 UNL     1      24.924   4.403   2.128 +4.25 +0.00    +0.017 C 
ATOM     49  C47 UNL     1      23.129   3.401   0.728 +6.08 +0.00    +0.017 C 
ATOM     50  C48 UNL     1      22.831   5.687   1.674 +5.30 +0.00    +0.017 C 
ENDBRANCH  37  47
ENDBRANCH  19  37
ENDBRANCH   8  11
ENDBRANCH   4   7
BRANCH   1  51
ATOM     51  C27 UNL     1      13.236   8.966   3.473 +1.08 +0.00    +0.068 C 
BRANCH  51  52
ATOM     52  C26 UNL     1      13.150   9.258   4.977 +6.19 +0.00    +0.275 C 
BRANCH  52  53
ATOM     53  N1  UNL     1      12.683   8.143   5.809 -0.36 +0.00    +0.090 N 
ATOM     54  H1  UNL     1      13.477   7.835   6.375 +0.25 +0.00    +0.316 HD
BRANCH  53  55
ATOM     55  C1  UNL     1      12.136   6.973   5.118 -0.27 +0.00    +0.240 C 
ATOM     56  C2  UNL     1      11.451   7.114   3.749 -0.33 +0.00    +0.162 C 
ATOM     57  N2  UNL     1      10.661   5.898   3.615 -0.10 -0.00    -0.335 N 
ATOM     58  C3  UNL     1      10.500   5.227   4.911 -0.24 +0.00    +0.181 C 
ATOM     59  C16 UNL     1      10.432   5.215   2.438 +0.71 +0.00    +0.244 C 
ATOM     60  C4  UNL     1      11.110   6.192   5.938 -0.33 +0.00    +0.072 C 
ATOM     61  O2  UNL     1      10.119   4.018   2.459 +4.00 -0.00    -0.271 OA
BRANCH  58  62
ATOM     62  C5  UNL     1       9.005   4.978   5.199 -0.20 +0.00    +0.241 C 
ATOM     63  N3  UNL     1       8.255   6.136   5.264 +0.31 -0.00    -0.351 N 
ATOM     64  H2  UNL     1       8.781   6.983   5.475 +0.28 +0.00    +0.163 HD
ATOM     65  O1  UNL     1       8.540   3.863   5.422 -0.24 -0.00    -0.271 OA
BRANCH  63  66
ATOM     66  C6  UNL     1       6.834   6.114   5.602 +0.76 +0.00    +0.118 C 
ATOM     67  C7  UNL     1       6.679   6.046   7.134 +0.07 +0.00    +0.030 C 
ATOM     68  C8  UNL     1       5.253   5.705   7.539 -0.06 +0.00    +0.007 C 
ATOM     69  C9  UNL     1       4.893   4.316   7.028 -0.44 +0.00    +0.039 C 
ATOM     70  C10 UNL     1       5.177   4.156   5.555 -0.28 -0.00    -0.050 A 
ATOM     71  C11 UNL     1       6.100   4.985   4.884 -0.24 -0.00    -0.029 A 
ATOM     72  C15 UNL     1       4.519   3.131   4.855 -0.25 +0.00    +0.007 A 
ATOM     73  C12 UNL     1       6.275   4.799   3.499 -0.17 +0.00    +0.010 A 
ATOM     74  C13 UNL     1       5.605   3.787   2.811 -0.13 +0.00    +0.001 A 
ATOM     75  C14 UNL     1       4.732   2.947   3.491 -0.17 +0.00    +0.001 A 
ENDBRANCH  63  66
ENDBRANCH  58  62
BRANCH  59  76
ATOM     76  C17 UNL     1      10.499   6.003   1.100 -0.20 +0.00    +0.184 C 
BRANCH  76  77
ATOM     77  N4  UNL     1       9.617   7.154   1.271 -0.12 -0.00    -0.345 N 
ATOM     78  C22 UNL     1       8.278   7.090   0.946 -0.23 +0.00    +0.251 C 
ATOM     79  O3  UNL     1       7.789   6.148   0.326 -0.14 -0.00    -0.271 OA
ATOM     80  H3  UNL     1       9.841   7.845   1.983 +0.09 +0.00    +0.163 HD
BRANCH  78  81
ATOM     81  C23 UNL     1       7.446   8.263   1.517 +0.83 +0.00    +0.307 C 
ATOM     82  C25 UNL     1       6.716   7.871   2.798 +1.34 +0.00    +0.053 C 
BRANCH  81  83
ATOM     83  N5  UNL     1       6.574   8.874   0.479 +1.83 +0.00    +0.092 N 
ATOM     84  C24 UNL     1       6.733   8.274  -0.843 +0.36 +0.00    +0.307 C 
ATOM     85  H4  UNL     1       5.603   8.754   0.768 +0.63 +0.00    +0.316 HD
ENDBRANCH  81  83
ENDBRANCH  78  81
ENDBRANCH  76  77
BRANCH  76  86
ATOM     86  C18 UNL     1      11.950   6.419   0.697 -0.43 -0.00    -0.022 C 
ATOM     87  C19 UNL     1      12.727   7.068   1.857 -0.05 +0.00    +0.017 C 
ATOM     88  C20 UNL     1      11.889   7.427  -0.471 +1.95 +0.00    +0.017 C 
ATOM     89  C21 UNL     1      12.748   5.192   0.210 +1.18 +0.00    +0.017 C 
ENDBRANCH  76  86
ENDBRANCH  59  76
ENDBRANCH  53  55
ENDBRANCH  52  53
ENDBRANCH  51  52
ENDBRANCH   1  51
TORSDOF 20
TER
