USER    Run = 1
USER    DPF = ligand_214_receptor.dpf
USER  
USER    Estimated Free Energy of Binding    =  +69.21 kcal/mol  [=(1)+(2)+(3)-(4)]
USER    
USER    (1) Final Intermolecular Energy     =  +68.02 kcal/mol
USER        vdW + Hbond + desolv Energy     =  +68.02 kcal/mol
USER        Electrostatic Energy            =   +0.00 kcal/mol
USER    (2) Final Total Internal Energy     =   -2.29 kcal/mol
USER    (3) Torsional Free Energy           =   +1.19 kcal/mol
USER    (4) Unbound System's Energy  [=(2)] =   -2.29 kcal/mol
USER    
USER    
USER    NEWDPF move ligand_214.pdbqt
USER    NEWDPF about 0.000000 0.000000 0.000000
USER    NEWDPF tran0 13.404525 9.544104 2.445838
USER    NEWDPF quaternion0 -0.235779 -0.268348 -0.337541 -0.870898
USER    NEWDPF axisangle0 -0.479749 -0.546018 -0.686808 -58.873608
USER    NEWDPF quat0 -0.479749 -0.546018 -0.686808 -58.873608
USER    NEWDPF dihe0 -24.37 163.94 -11.45 -122.86 -98.70 -17.90 -177.49 1.15 -10.11 108.38 -68.37 51.46 179.96 24.25 -132.52 -13.82 26.26 169.39 63.82 30.72 -56.60 
USER  keepresnum = 1 
USER  
REMARK  21 active torsions:
REMARK  status: ('A' for Active; 'I' for Inactive)
REMARK    1  A    between atoms: C6_6  and  S1_50 
REMARK    2  A    between atoms: C8_8  and  S1_50 
REMARK    3  A    between atoms: C12_12  and  C14_14 
REMARK       I    between atoms: C14_14  and  N1_60 
REMARK    4  A    between atoms: C15_15  and  N1_60 
REMARK    5  A    between atoms: C18_18  and  C21_21 
REMARK    6  A    between atoms: C21_21  and  C22_22 
REMARK    7  A    between atoms: C22_22  and  C23_23 
REMARK    8  A    between atoms: C23_23  and  C24_24 
REMARK    9  A    between atoms: C24_24  and  C25_25 
REMARK   10  A    between atoms: C25_25  and  N2_61 
REMARK   11  A    between atoms: C26_26  and  C27_27 
REMARK   12  A    between atoms: C26_26  and  N2_61 
REMARK   13  A    between atoms: C27_27  and  C28_28 
REMARK   14  A    between atoms: C27_27  and  O7_57 
REMARK   15  A    between atoms: C34_34  and  O5_55 
REMARK   16  A    between atoms: C37_37  and  C38_38 
REMARK   17  A    between atoms: C37_37  and  O5_55 
REMARK   18  A    between atoms: C39_39  and  N6_66 
REMARK   19  A    between atoms: C40_40  and  C42_42 
REMARK       I    between atoms: C42_42  and  N5_65 
REMARK   20  A    between atoms: C43_43  and  N6_66 
REMARK   21  A    between atoms: C45_45  and  O9_59 
USER                              x       y       z     vdW  Elec       q    Type
USER                           _______ _______ _______ _____ _____    ______ ____
ROOT
ATOM      1  C14 UNL     1       9.606   6.791  -0.895 -0.20 +0.00    +0.256 C 
ATOM      2  O3  UNL     1       9.807   7.243  -2.018 -0.24 -0.00    -0.267 OA
ATOM      3  N1  UNL     1      10.572   6.384   0.008 -0.14 -0.00    -0.323 N 
ATOM      4  H40 UNL     1      10.261   5.916   0.849 +0.07 +0.00    +0.169 HD
ENDROOT
BRANCH   1   5
ATOM      5  C12 UNL     1       8.188   6.634  -0.442 -0.25 +0.00    +0.033 A 
ATOM      6  C11 UNL     1       7.311   5.894  -1.251+10.46 +0.00    +0.017 A 
ATOM      7  C10 UNL     1       5.978   5.707  -0.874 +6.13 +0.00    +0.003 A 
ATOM      8  C9  UNL     1       5.504   6.261   0.314 -0.06 +0.00    +0.024 A 
ATOM      9  C8  UNL     1       6.367   7.022   1.107 -0.33 +0.00    +0.065 A 
ATOM     10  C13 UNL     1       7.705   7.216   0.736 -0.36 +0.00    +0.040 A 
BRANCH   9  11
ATOM     11  S1  UNL     1       5.791   7.676   2.660 +1.38 +0.00    +0.206 S 
ATOM     12  O1  UNL     1       6.792   8.620   3.121 +5.66 -0.00    -0.217 OA
ATOM     13  O2  UNL     1       4.419   8.106   2.456 +1.63 -0.00    -0.217 OA
BRANCH  11  14
ATOM     14  C6  UNL     1       5.751   6.326   3.810 +0.45 +0.00    +0.065 A 
ATOM     15  C5  UNL     1       5.160   5.126   3.425 -0.15 +0.00    +0.040 A 
ATOM     16  C4  UNL     1       5.112   4.023   4.305 -0.18 +0.00    +0.020 A 
ATOM     17  C3  UNL     1       5.618   4.168   5.620 -0.30 +0.00    +0.050 A 
ATOM     18  C39 UNL     1       4.555   2.767   3.926 -0.18 +0.00    +0.062 A 
ATOM     19  C2  UNL     1       6.193   5.393   5.994 -0.32 -0.00    -0.033 A 
ATOM     20  N4  UNL     1       5.555   3.163   6.512 +0.40 -0.00    -0.364 N 
ATOM     21  C1  UNL     1       6.737   5.568   7.388 -0.40 +0.00    +0.050 C 
ATOM     22  C7  UNL     1       6.264   6.470   5.093 +4.45 +0.00    +0.033 A 
ATOM     23  C41 UNL     1       4.994   1.990   6.139 +7.31 +0.00    +0.107 A 
ATOM     24  H4  UNL     1       5.926   3.284   7.455 -0.05 +0.00    +0.165 HD
ATOM     25  C40 UNL     1       4.506   1.732   4.873 -0.15 +0.00    +0.074 A 
BRANCH  25  26
ATOM     26  C42 UNL     1       3.919   0.412   4.545 -0.07 +0.00    +0.253 C 
ATOM     27  O8  UNL     1       3.371  -0.268   5.406 +1.87 -0.00    -0.268 OA
ATOM     28  N5  UNL     1       3.974  -0.010   3.245 -0.18 -0.00    -0.366 N 
ATOM     29  H43 UNL     1       4.131   0.624   2.473 +0.05 +0.00    +0.159 HD
ATOM     30  H44 UNL     1       3.449  -0.852   3.035 +0.06 +0.00    +0.159 HD
ENDBRANCH  25  26
BRANCH  18  31
ATOM     31  N6  UNL     1       4.153   2.531   2.575 -0.02 -0.00    -0.355 N 
ATOM     32  H45 UNL     1       3.439   1.788   2.545 +0.06 +0.00    +0.166 HD
BRANCH  31  33
ATOM     33  C43 UNL     1       5.020   2.375   1.460 -0.12 +0.00    +0.035 A 
ATOM     34  C44 UNL     1       4.563   2.126   0.159 -0.10 +0.00    +0.066 A 
ATOM     35  C45 UNL     1       5.453   1.917  -0.900 -0.09 +0.00    +0.070 A 
ATOM     36  C46 UNL     1       6.823   1.939  -0.655 -0.09 +0.00    +0.037 A 
ATOM     37  C47 UNL     1       7.297   2.172   0.637 -0.15 +0.00    +0.005 A 
ATOM     38  C48 UNL     1       6.402   2.384   1.685 -0.17 +0.00    +0.029 A 
BRANCH  35  39
ATOM     39  O9  UNL     1       4.852   1.694  -2.109 -0.03 -0.00    -0.356 OA
ATOM     40  C49 UNL     1       5.574   2.099  -3.267 -0.06 +0.00    +0.210 C 
ENDBRANCH  35  39
ENDBRANCH  31  33
ENDBRANCH  18  31
ENDBRANCH  11  14
ENDBRANCH   9  11
ENDBRANCH   1   5
BRANCH   3  41
ATOM     41  C15 UNL     1      11.970   6.535  -0.107 -0.39 +0.00    +0.035 A 
ATOM     42  C16 UNL     1      12.728   6.042  -1.167 +0.05 +0.00    +0.030 A 
ATOM     43  C17 UNL     1      14.107   6.276  -1.227 +7.05 +0.00    +0.009 A 
ATOM     44  C18 UNL     1      14.751   7.015  -0.229 +3.63 -0.00    -0.058 A 
ATOM     45  C19 UNL     1      13.994   7.493   0.845 +7.94 +0.00    +0.009 A 
ATOM     46  C20 UNL     1      12.617   7.255   0.905 +2.02 +0.00    +0.030 A 
BRANCH  44  47
ATOM     47  C21 UNL     1      16.234   7.288  -0.306 +2.16 +0.00    +0.038 C 
BRANCH  47  48
ATOM     48  C22 UNL     1      16.605   8.767  -0.135 -0.60 +0.00    +0.005 C 
BRANCH  48  49
ATOM     49  C23 UNL     1      16.813   9.227   1.314 -0.57 +0.00    +0.002 C 
BRANCH  49  50
ATOM     50  C24 UNL     1      17.664   8.303   2.191 -0.41 +0.00    +0.030 C 
BRANCH  50  51
ATOM     51  C25 UNL     1      16.973   7.020   2.671 +1.01 +0.00    +0.270 C 
BRANCH  51  52
ATOM     52  N2  UNL     1      16.960   6.804   4.115 +3.16 +0.00    +0.086 N 
ATOM     53  H41 UNL     1      17.549   7.500   4.573 +0.25 +0.00    +0.315 HD
BRANCH  52  54
ATOM     54  C26 UNL     1      15.632   6.813   4.742 +2.64 +0.00    +0.306 C 
BRANCH  54  55
ATOM     55  C27 UNL     1      14.424   7.073   3.803 -0.11 +0.00    +0.180 C 
BRANCH  55  56
ATOM     56  C28 UNL     1      13.071   6.927   4.488 -0.42 -0.00    -0.015 A 
ATOM     57  C29 UNL     1      12.617   7.736   5.557 -0.40 +0.00    +0.003 A 
ATOM     58  C30 UNL     1      13.382   8.859   6.122 +0.08 +0.00    +0.020 A 
ATOM     59  C33 UNL     1      11.353   7.475   6.130 -0.33 +0.00    +0.080 A 
ATOM     60  C31 UNL     1      12.902   9.598   7.129 +1.26 +0.00    +0.075 A 
ATOM     61  C32 UNL     1      11.576   9.322   7.718 +1.09 +0.00    +0.245 A 
ATOM     62  O4  UNL     1      11.137  10.004   8.636 +1.41 -0.00    -0.268 OA
ATOM     63  N3  UNL     1      10.880   8.276   7.184 +2.24 -0.00    -0.321 N 
ATOM     64  H42 UNL     1       9.966   8.106   7.579 +1.47 +0.00    +0.169 HD
ATOM     65  C34 UNL     1      10.563   6.422   5.660 -0.23 +0.00    +0.107 A 
ATOM     66  C35 UNL     1      10.983   5.640   4.593 -0.27 +0.00    +0.040 A 
ATOM     67  C36 UNL     1      12.231   5.887   4.022 +0.14 +0.00    +0.013 A 
BRANCH  65  68
ATOM     68  O5  UNL     1       9.302   6.209   6.231 -0.04 -0.00    -0.270 OA
BRANCH  68  69
ATOM     69  C37 UNL     1       9.046   4.885   6.613 -0.19 +0.00    +0.372 C 
ATOM     70  O6  UNL     1       8.395   4.070   5.966 -0.26 -0.00    -0.255 OA
BRANCH  69  71
ATOM     71  C38 UNL     1       9.694   4.644   7.968 -0.16 +0.00    +0.480 C 
ATOM     72  F1  UNL     1       9.243   5.516   8.914 +0.01 -0.00    -0.162 F 
ATOM     73  F2  UNL     1      11.050   4.797   7.927 -0.13 -0.00    -0.162 F 
ATOM     74  F3  UNL     1       9.467   3.395   8.460 -0.19 -0.00    -0.162 F 
ENDBRANCH  69  71
ENDBRANCH  68  69
ENDBRANCH  65  68
ENDBRANCH  55  56
BRANCH  55  75
ATOM     75  O7  UNL     1      14.529   8.370   3.206 -0.26 -0.00    -0.389 OA
ATOM     76  H39 UNL     1      13.681   8.822   3.352 -0.13 +0.00    +0.210 HD
ENDBRANCH  55  75
ENDBRANCH  54  55
ENDBRANCH  52  54
ENDBRANCH  51  52
ENDBRANCH  50  51
ENDBRANCH  49  50
ENDBRANCH  48  49
ENDBRANCH  47  48
ENDBRANCH  44  47
ENDBRANCH   3  41
TORSDOF 21
TER
