USER    Run = 1
USER    DPF = ligand_397_receptor.dpf
USER  
USER    Estimated Free Energy of Binding    =  +2.17e+005 kcal/mol  [=(1)+(2)+(3)-(4)]
USER    
USER    (1) Final Intermolecular Energy     =  +2.17e+005 kcal/mol
USER        vdW + Hbond + desolv Energy     =  +2.17e+005 kcal/mol
USER        Electrostatic Energy            =   +0.00 kcal/mol
USER    (2) Final Total Internal Energy     =   +0.00 kcal/mol
USER    (3) Torsional Free Energy           =   +1.19 kcal/mol
USER    (4) Unbound System's Energy  [=(2)] =   +0.00 kcal/mol
USER    
USER    
USER    NEWDPF move ligand_397.pdbqt
USER    NEWDPF about 0.000000 0.000000 0.000000
USER    NEWDPF tran0 16.743436 7.730854 4.459995
USER    NEWDPF quaternion0 0.336418 -0.203543 0.065834 0.917093
USER    NEWDPF axisangle0 0.843843 -0.510550 0.165131 46.990599
USER    NEWDPF quat0 0.843843 -0.510550 0.165131 46.990599
USER  keepresnum = 1 
USER  
REMARK  0 active torsions:
REMARK  status: ('A' for Active; 'I' for Inactive)
REMARK       I    between atoms: C2_2  and  C3_3 
REMARK       I    between atoms: C3_3  and  C4_4 
REMARK       I    between atoms: C3_3  and  N2_85 
REMARK       I    between atoms: C4_4  and  N1_84 
REMARK       I    between atoms: C6_6  and  C8_8 
REMARK       I    between atoms: C6_6  and  N1_84 
REMARK       I    between atoms: C10_10  and  C11_11 
REMARK       I    between atoms: C10_10  and  N2_85 
REMARK       I    between atoms: C11_11  and  C12_12 
REMARK       I    between atoms: C11_11  and  N3_86 
REMARK       I    between atoms: C12_12  and  C13_13 
REMARK       I    between atoms: C12_12  and  O4_73 
REMARK       I    between atoms: C13_13  and  C15_15 
REMARK       I    between atoms: C15_15  and  C16_16 
REMARK       I    between atoms: C20_20  and  C21_21 
REMARK       I    between atoms: C20_20  and  N3_86 
REMARK       I    between atoms: C21_21  and  C22_22 
REMARK       I    between atoms: C21_21  and  N4_87 
REMARK       I    between atoms: C26_26  and  C27_27 
REMARK       I    between atoms: C26_26  and  N4_87 
REMARK       I    between atoms: C27_27  and  C28_28 
REMARK       I    between atoms: C27_27  and  N5_88 
REMARK       I    between atoms: C28_28  and  C29_29 
REMARK       I    between atoms: C33_33  and  C34_34 
REMARK       I    between atoms: C33_33  and  N5_88 
REMARK       I    between atoms: C34_34  and  C35_35 
REMARK       I    between atoms: C34_34  and  N6_89 
REMARK       I    between atoms: C35_35  and  C36_36 
REMARK       I    between atoms: C40_40  and  C41_41 
REMARK       I    between atoms: C40_40  and  N6_89 
REMARK       I    between atoms: C41_41  and  N7_90 
REMARK       I    between atoms: C43_43  and  C44_44 
REMARK       I    between atoms: C43_43  and  N7_90 
REMARK       I    between atoms: C44_44  and  N8_91 
REMARK       I    between atoms: C46_46  and  C47_47 
REMARK       I    between atoms: C46_46  and  N8_91 
REMARK       I    between atoms: C47_47  and  C48_48 
REMARK       I    between atoms: C47_47  and  N9_92 
REMARK       I    between atoms: C48_48  and  C49_49 
REMARK       I    between atoms: C53_53  and  C54_54 
REMARK       I    between atoms: C53_53  and  N9_92 
REMARK       I    between atoms: C54_54  and  C55_55 
REMARK       I    between atoms: C54_54  and  N10_93 
REMARK       I    between atoms: C58_58  and  C59_59 
REMARK       I    between atoms: C58_58  and  N10_93 
REMARK       I    between atoms: C59_59  and  C60_60 
REMARK       I    between atoms: C59_59  and  N13_96 
REMARK       I    between atoms: C60_60  and  C62_62 
REMARK       I    between atoms: C62_62  and  O13_82 
REMARK       I    between atoms: C63_63  and  C64_64 
REMARK       I    between atoms: C63_63  and  O13_82 
REMARK       I    between atoms: C64_64  and  N11_94 
USER                              x       y       z     vdW  Elec       q    Type
USER                           _______ _______ _______ _____ _____    ______ ____
ROOT
ATOM      1  C1  UNL     1       9.790  12.086   5.597+99.99 +0.00    +0.007 C 
ATOM      2  C2  UNL     1       8.288  12.202   5.792+99.99 +0.00    +0.030 C 
ATOM      3  C3  UNL     1       7.777  11.465   7.039+99.99 +0.00    +0.176 C 
ATOM      4  C4  UNL     1       6.255  11.746   7.177+99.99 +0.00    +0.242 C 
ATOM      5  C5  UNL     1       6.712  14.009   8.218+99.99 +0.00    +0.153 C 
ATOM      6  C6  UNL     1       4.390  13.247   7.758+19.28 +0.00    +0.151 C 
ATOM      7  C7  UNL     1       3.600  12.278   8.634 +7.38 +0.00    +0.040 C 
ATOM      8  C8  UNL     1       3.888  13.430   6.310+12.46 +0.00    +0.145 C 
ATOM      9  C9  UNL     1       2.574  12.808   5.918 +0.32 +0.00    +0.093 C 
ATOM     10  C10 UNL     1       7.760   9.202   8.015+99.99 +0.00    +0.243 C 
ATOM     11  C11 UNL     1       7.690   7.669   7.741+99.99 +0.00    +0.207 C 
ATOM     12  C12 UNL     1       6.463   7.169   6.914+34.61 +0.00    +0.154 C 
ATOM     13  C13 UNL     1       6.265   7.732   5.484+99.99 +0.00    +0.016 C 
ATOM     14  C14 UNL     1       4.959   7.183   4.878+65.85 +0.00    +0.013 C 
ATOM     15  C15 UNL     1       7.452   7.417   4.543+29.39 +0.00    +0.033 C 
ATOM     16  C16 UNL     1       7.601   8.256   3.296 +4.04 -0.00    -0.031 C 
ATOM     17  C17 UNL     1       6.934   9.372   2.962+21.56 -0.00    -0.035 C 
ATOM     18  C18 UNL     1       7.170  10.132   1.695+99.99 +0.00    +0.036 C 
ATOM     19  C19 UNL     1       6.616   7.006   9.945+99.99 +0.00    +0.153 C 
ATOM     20  C20 UNL     1       8.643   5.846   9.291 +3.52 +0.00    +0.243 C 
ATOM     21  C21 UNL     1       9.961   5.773   8.470 +6.13 +0.00    +0.182 C 
ATOM     22  C22 UNL     1      10.740   4.425   8.544 -0.24 +0.00    +0.009 C 
ATOM     23  C23 UNL     1      11.354   4.084   9.903+34.85 +0.00    +0.012 C 
ATOM     24  C24 UNL     1       9.886   3.255   8.042 -0.43 +0.00    +0.012 C 
ATOM     25  C25 UNL     1      10.891   7.398  10.163+99.99 +0.00    +0.153 C 
ATOM     26  C26 UNL     1      11.571   7.494   7.730 +8.00 +0.00    +0.243 C 
ATOM     27  C27 UNL     1      12.507   8.713   8.021 -0.24 +0.00    +0.179 C 
ATOM     28  C28 UNL     1      11.689  10.006   8.228 +1.05 +0.00    +0.039 C 
ATOM     29  C29 UNL     1      12.371  11.148   9.014 +0.29 -0.00    -0.020 C 
ATOM     30  C30 UNL     1      13.633  11.684   8.342 -0.63 +0.00    +0.009 C 
ATOM     31  C31 UNL     1      12.662  10.769  10.466+25.21 +0.00    +0.009 C 
ATOM     32  C32 UNL     1      13.106   9.298   5.643 +7.57 +0.00    +0.153 C 
ATOM     33  C33 UNL     1      14.727   8.120   7.174+99.99 +0.00    +0.243 C 
ATOM     34  C34 UNL     1      15.941   8.172   6.190+99.99 +0.00    +0.179 C 
ATOM     35  C35 UNL     1      16.099   9.419   5.294+14.64 +0.00    +0.039 C 
ATOM     36  C36 UNL     1      17.547   9.712   4.843 +0.47 -0.00    -0.020 C 
ATOM     37  C37 UNL     1      17.539  10.663   3.642 -0.40 +0.00    +0.009 C 
ATOM     38  C38 UNL     1      18.383  10.334   5.965+99.99 +0.00    +0.009 C 
ATOM     39  C39 UNL     1      15.028   6.468   4.578 +6.00 +0.00    +0.153 C 
ATOM     40  C40 UNL     1      17.226   6.050   5.537+99.99 +0.00    +0.242 C 
ATOM     41  C41 UNL     1      18.352   6.334   6.561+99.99 +0.00    +0.172 C 
ATOM     42  C42 UNL     1      17.978   5.786   7.930+99.99 +0.00    +0.042 C 
ATOM     43  C43 UNL     1      20.435   6.311   5.238+99.99 +0.00    +0.240 C 
ATOM     44  C44 UNL     1      21.496   5.410   4.560+99.99 +0.00    +0.172 C 
ATOM     45  C45 UNL     1      22.140   4.387   5.489+99.99 +0.00    +0.042 C 
ATOM     46  C46 UNL     1      23.447   6.970   4.501+99.99 +0.00    +0.241 C 
ATOM     47  C47 UNL     1      24.022   8.168   3.693 +0.65 +0.00    +0.179 C 
ATOM     48  C48 UNL     1      23.409   9.494   4.202 -0.62 +0.00    +0.039 C 
ATOM     49  C49 UNL     1      23.761   9.896   5.652 +1.67 -0.00    -0.020 C 
ATOM     50  C50 UNL     1      23.057  11.211   6.002+99.99 +0.00    +0.009 C 
ATOM     51  C51 UNL     1      25.265  10.044   5.877+99.99 +0.00    +0.009 C 
ATOM     52  C52 UNL     1      22.890   8.759   1.481 -0.38 +0.00    +0.153 C 
ATOM     53  C53 UNL     1      24.795   7.117   1.614 -0.26 +0.00    +0.243 C 
ATOM     54  C54 UNL     1      24.751   6.858   0.087 -0.37 +0.00    +0.180 C 
ATOM     55  C55 UNL     1      24.034   5.538  -0.296 -0.58 +0.00    +0.009 C 
ATOM     56  C56 UNL     1      24.530   4.311   0.476 -0.58 +0.00    +0.012 C 
ATOM     57  C57 UNL     1      22.514   5.642  -0.171 +1.82 +0.00    +0.012 C 
ATOM     58  C58 UNL     1      26.786   7.904  -0.872 +0.80 +0.00    +0.252 C 
ATOM     59  C59 UNL     1      28.310   7.760  -1.130 -0.08 +0.00    +0.316 C 
ATOM     60  C60 UNL     1      28.767   6.337  -1.554 -0.25 +0.00    +0.048 C 
ATOM     61  C61 UNL     1      30.286   6.269  -1.774 -0.14 +0.00    +0.015 C 
ATOM     62  C62 UNL     1      28.043   5.908  -2.850 +3.00 +0.00    +0.175 C 
ATOM     63  C63 UNL     1      27.731   3.585  -2.407 -0.17 +0.00    +0.270 C 
ATOM     64  C64 UNL     1      27.594   2.229  -3.111 -0.20 +0.00    +0.243 C 
ATOM     65  C65 UNL     1      28.649   0.160  -3.924 -0.05 +0.00    +0.155 C 
ATOM     66  C66 UNL     1      29.741  -0.788  -3.398 +0.57 +0.00    +0.289 C 
ATOM     67  C67 UNL     1      31.188   1.155  -3.744 -0.04 +0.00    +0.289 C 
ATOM     68  C68 UNL     1      30.103   1.954  -3.002 -0.10 +0.00    +0.155 C 
ATOM     69  C69 UNL     1      28.905   7.692   1.281 -0.24 +0.00    +0.307 C 
ATOM     70  O1  UNL     1       5.435  10.932   6.735+99.99 -0.00    -0.271 OA
ATOM     71  O2  UNL     1       4.527  14.101   5.492+99.99 -0.00    -0.296 OA
ATOM     72  O3  UNL     1       7.674   9.689   9.143+35.48 -0.00    -0.271 OA
ATOM     73  O4  UNL     1       6.553   5.734   6.793 -0.21 -0.00    -0.393 OA
ATOM     74  O5  UNL     1       8.397   5.032  10.185 +5.30 -0.00    -0.271 OA
ATOM     75  O6  UNL     1      11.433   7.069   6.576 -0.22 -0.00    -0.271 OA
ATOM     76  O7  UNL     1      14.844   7.408   8.183 +3.64 -0.00    -0.271 OA
ATOM     77  O8  UNL     1      17.324   5.041   4.822+99.99 -0.00    -0.271 OA
ATOM     78  O9  UNL     1      20.329   7.511   4.976+99.99 -0.00    -0.271 OA
ATOM     79  O10 UNL     1      23.779   6.750   5.664+83.11 -0.00    -0.271 OA
ATOM     80  O11 UNL     1      25.678   6.560   2.281 -0.23 -0.00    -0.271 OA
ATOM     81  O12 UNL     1      26.193   8.959  -1.095+28.61 -0.00    -0.271 OA
ATOM     82  O13 UNL     1      28.347   4.565  -3.234 +0.04 -0.00    -0.382 OA
ATOM     83  O14 UNL     1      26.480   1.809  -3.432 -0.28 -0.00    -0.271 OA
ATOM     84  N1  UNL     1       5.836  12.951   7.735+99.99 -0.00    -0.344 N 
ATOM     85  N2  UNL     1       7.976  10.015   6.917+99.99 -0.00    -0.346 N 
ATOM     86  N3  UNL     1       7.752   6.896   9.032 +4.99 -0.00    -0.339 N 
ATOM     87  N4  UNL     1      10.841   6.934   8.776+99.99 -0.00    -0.341 N 
ATOM     88  N5  UNL     1      13.539   8.812   6.950 +0.09 -0.00    -0.341 N 
ATOM     89  N6  UNL     1      16.112   6.886   5.461 +1.15 -0.00    -0.341 N 
ATOM     90  N7  UNL     1      19.559   5.656   6.078+99.99 -0.00    -0.346 N 
ATOM     91  N8  UNL     1      22.447   6.268   3.856+99.99 -0.00    -0.346 N 
ATOM     92  N9  UNL     1      23.842   7.934   2.221 -0.11 -0.00    -0.341 N 
ATOM     93  N10 UNL     1      26.156   6.798  -0.343 -0.14 -0.00    -0.346 N 
ATOM     94  N11 UNL     1      28.749   1.492  -3.328 -0.05 -0.00    -0.347 N 
ATOM     95  N12 UNL     1      31.124  -0.298  -3.525 -0.14 +0.00    +0.086 N 
ATOM     96  N13 UNL     1      29.071   8.351  -0.005 -0.26 +0.00    +0.093 N 
ATOM     97  HB9 UNL     1       6.538   5.368   7.695 +0.11 +0.00    +0.210 HD
ATOM     98  HC0 UNL     1       7.880   9.633   5.987+99.99 +0.00    +0.163 HD
ATOM     99  HC1 UNL     1      19.427   4.667   5.896+26.97 +0.00    +0.163 HD
ATOM    100  HC2 UNL     1      22.082   6.737   3.039 +0.53 +0.00    +0.163 HD
ATOM    101  HC3 UNL     1      26.735   6.208   0.246 +0.11 +0.00    +0.163 HD
ATOM    102  HC4 UNL     1      31.589  -0.770  -4.300 +0.05 +0.00    +0.316 HD
ATOM    103  HC5 UNL     1      28.783   9.328   0.090 +0.20 +0.00    +0.316 HD
ENDROOT
TORSDOF 41
TER
