USER    Run = 1
USER    DPF = ligand_16_receptor.dpf
USER  
USER    Estimated Free Energy of Binding    =  +1.67e+007 kcal/mol  [=(1)+(2)+(3)-(4)]
USER    
USER    (1) Final Intermolecular Energy     =  +1.67e+007 kcal/mol
USER        vdW + Hbond + desolv Energy     =  +8.44e+006 kcal/mol
USER        Electrostatic Energy            =  +8.25e+006 kcal/mol
USER    (2) Final Total Internal Energy     =   +0.00 kcal/mol
USER    (3) Torsional Free Energy           =   +1.19 kcal/mol
USER    (4) Unbound System's Energy  [=(2)] =   +0.00 kcal/mol
USER    
USER    
USER    NEWDPF move ligand_16.pdbqt
USER    NEWDPF about 0.000000 0.000000 0.000000
USER    NEWDPF tran0 16.241809 7.000216 0.238049
USER    NEWDPF quaternion0 -0.901849 -0.150467 -0.263894 0.307227
USER    NEWDPF axisangle0 -0.947682 -0.158114 -0.277305 144.215586
USER    NEWDPF quat0 -0.947682 -0.158114 -0.277305 144.215586
USER  keepresnum = 1 
USER  
REMARK  0 active torsions:
REMARK  status: ('A' for Active; 'I' for Inactive)
REMARK       I    between atoms: C1_1  and  C40_40 
REMARK       I    between atoms: C1_1  and  N1_88 
REMARK       I    between atoms: C2_2  and  N1_88 
REMARK       I    between atoms: C5_5  and  C6_6 
REMARK       I    between atoms: C6_6  and  N4_92 
REMARK       I    between atoms: C7_7  and  N4_92 
REMARK       I    between atoms: C9_9  and  C10_10 
REMARK       I    between atoms: C10_10  and  N6_94 
REMARK       I    between atoms: C11_11  and  N6_94 
REMARK       I    between atoms: C13_13  and  C16_16 
REMARK       I    between atoms: C16_16  and  N8_96 
REMARK       I    between atoms: C17_17  and  N8_96 
REMARK       I    between atoms: C20_20  and  C22_22 
REMARK       I    between atoms: C22_22  and  N10_98 
REMARK       I    between atoms: C23_23  and  C24_24 
REMARK       I    between atoms: C23_23  and  N10_98 
REMARK       I    between atoms: C24_24  and  C25_25 
REMARK       I    between atoms: C25_25  and  N11_99 
REMARK       I    between atoms: C26_26  and  C27_27 
REMARK       I    between atoms: C26_26  and  N11_99 
REMARK       I    between atoms: C27_27  and  C28_28 
REMARK       I    between atoms: C28_28  and  N12_100 
REMARK       I    between atoms: C29_29  and  C30_30 
REMARK       I    between atoms: C29_29  and  N12_100 
REMARK       I    between atoms: C34_34  and  C35_35 
REMARK       I    between atoms: C35_35  and  O8_80 
REMARK       I    between atoms: C40_40  and  C41_41 
REMARK       I    between atoms: C41_41  and  C42_42 
REMARK       I    between atoms: C41_41  and  N22_111 
REMARK       I    between atoms: C42_42  and  N13_101 
REMARK       I    between atoms: C43_43  and  C44_44 
REMARK       I    between atoms: C43_43  and  N13_101 
REMARK       I    between atoms: C46_46  and  N14_102 
REMARK       I    between atoms: C47_47  and  C48_48 
REMARK       I    between atoms: C47_47  and  N14_102 
REMARK       I    between atoms: C50_50  and  N16_104 
REMARK       I    between atoms: C53_53  and  C54_54 
REMARK       I    between atoms: C53_53  and  N16_104 
REMARK       I    between atoms: C57_57  and  N18_106 
REMARK       I    between atoms: C59_59  and  C60_60 
REMARK       I    between atoms: C59_59  and  N18_106 
REMARK       I    between atoms: C66_66  and  C67_67 
REMARK       I    between atoms: C66_66  and  N22_111 
REMARK       I    between atoms: C70_70  and  N23_112 
USER                              x       y       z     vdW  Elec       q    Type
USER                           _______ _______ _______ _____ _____    ______ ____
ROOT
ATOM      1  C1  UNL     1      12.242   7.655   1.405 +7.05 +0.00    +0.225 C 
ATOM      2  C2  UNL     1      13.017   9.064  -0.418+99.99 +0.00    +0.125 A 
ATOM      3  C3  UNL     1      12.824   9.765  -1.583+99.99 +0.00    +0.140 A 
ATOM      4  C4  UNL     1      14.372  11.038  -3.083+99.99 +0.00    +0.157 C 
ATOM      5  C5  UNL     1      14.953   9.808  -0.971+99.99 +0.00    +0.178 A 
ATOM      6  C6  UNL     1      16.387  10.059  -0.918+33.81 +0.00    +0.290 C 
ATOM      7  C7  UNL     1      18.288   9.514   0.544 -0.20 +0.00    +0.053 A 
ATOM      8  C8  UNL     1      18.784   8.896   1.665 +2.10 +0.00    +0.120 A 
ATOM      9  C9  UNL     1      20.538   9.902   0.646 -0.14 +0.00    +0.105 A 
ATOM     10  C10 UNL     1      21.915  10.334   0.406 -0.22 +0.00    +0.273 C 
ATOM     11  C11 UNL     1      23.306  11.494  -1.255 +3.16 +0.00    +0.053 A 
ATOM     12  C12 UNL     1      24.581  11.525  -0.645+99.99 +0.00    +0.066 A 
ATOM     13  C13 UNL     1      25.484  12.147  -1.503+99.99 +0.00    +0.105 A 
ATOM     14  C14 UNL     1      25.255  13.186  -3.795+99.99 +0.00    +0.156 C 
ATOM     15  C15 UNL     1      23.439  12.108  -2.477+79.79 +0.00    +0.120 A 
ATOM     16  C16 UNL     1      26.912  12.421  -1.332+99.99 +0.00    +0.273 C 
ATOM     17  C17 UNL     1      28.790  11.913   0.185+99.99 +0.00    +0.053 A 
ATOM     18  C18 UNL     1      29.814  12.617  -0.396+99.99 +0.00    +0.120 A 
ATOM     19  C19 UNL     1      32.236  13.007   0.015+99.99 +0.00    +0.156 C 
ATOM     20  C20 UNL     1      30.688  11.596   1.426+99.99 +0.00    +0.104 A 
ATOM     21  C21 UNL     1      29.338  11.271   1.324+99.99 +0.00    +0.066 A 
ATOM     22  C22 UNL     1      31.679  11.193   2.412+18.97 +0.00    +0.268 C 
ATOM     23  C23 UNL     1      32.019  10.121   4.616 +3.01 +0.00    +0.125 C 
ATOM     24  C24 UNL     1      32.371  11.270   5.564 -0.10 +0.00    +0.050 C 
ATOM     25  C25 UNL     1      31.137  11.800   6.309 +1.03 +0.00    +0.273 C 
ATOM     26  C26 UNL     1      32.300  12.619   8.339 +0.42 +0.00    +0.273 C 
ATOM     27  C27 UNL     1      31.889  11.468   9.267+99.99 +0.00    +0.050 C 
ATOM     28  C28 UNL     1      30.504  11.634   9.896 +4.95 +0.00    +0.124 C 
ATOM     29  C29 UNL     1      30.880  12.961  11.945+99.99+99.99    +0.251 C 
ATOM     30  C30 UNL     1      30.773  14.299  12.590+99.99+99.99    +0.033 A 
ATOM     31  C31 UNL     1      31.706  14.633  13.581+99.99+99.99    +0.017 A 
ATOM     32  C32 UNL     1      31.648  15.874  14.216+99.99+99.99    +0.002 A 
ATOM     33  C33 UNL     1      30.651  16.786  13.868+99.99+99.99    +0.018 A 
ATOM     34  C34 UNL     1      29.705  16.456  12.890+99.99+99.99    +0.038 A 
ATOM     35  C35 UNL     1      28.657  17.454  12.564+99.99+99.99    +0.176 C 
ATOM     36  C36 UNL     1      29.763  15.208  12.253+99.99+99.99    +0.035 A 
ATOM     37  C37 UNL     1      31.743  14.139   6.553 -0.18 +0.00    +0.309 C 
ATOM     38  C38 UNL     1      19.381  10.146  -0.091 +0.17 +0.00    +0.066 A 
ATOM     39  C39 UNL     1      20.989   8.631   2.782 +0.85 +0.00    +0.156 C 
ATOM     40  C40 UNL     1      10.963   7.080   1.982 -0.26 +0.00    +0.130 C 
ATOM     41  C41 UNL     1      10.419   5.834   1.265 -0.18 +0.00    +0.111 C 
ATOM     42  C42 UNL     1      11.415   5.118   0.316 +1.41 +0.00    +0.148 C 
ATOM     43  C43 UNL     1      10.137   3.012  -0.004 +1.59 +0.00    +0.268 C 
ATOM     44  C44 UNL     1       9.412   2.273  -1.009 -0.12 +0.00    +0.104 A 
ATOM     45  C45 UNL     1       8.050   2.017  -1.036 -0.08 +0.00    +0.066 A 
ATOM     46  C46 UNL     1       7.746   1.352  -2.245 -0.11 +0.00    +0.053 A 
ATOM     47  C47 UNL     1       5.293   1.319  -2.254 -0.05 +0.00    +0.273 C 
ATOM     48  C48 UNL     1       4.164   0.728  -2.969 -0.06 +0.00    +0.105 A 
ATOM     49  C49 UNL     1       4.138  -0.343  -3.858 -0.07 +0.00    +0.066 A 
ATOM     50  C50 UNL     1       2.811  -0.545  -4.298 -0.06 +0.00    +0.053 A 
ATOM     51  C51 UNL     1       2.036   0.394  -3.662+99.99+99.99    +0.120 A 
ATOM     52  C52 UNL     1       2.378   2.251  -2.040 -0.03 +0.00    +0.156 C 
ATOM     53  C53 UNL     1       3.017  -2.435  -5.856+99.99+99.99    +0.273 C 
ATOM     54  C54 UNL     1       2.216  -3.287  -6.733+99.99+99.99    +0.105 A 
ATOM     55  C55 UNL     1       4.028  -4.968  -7.252+99.99+99.99    +0.156 C 
ATOM     56  C56 UNL     1       1.695  -5.004  -8.115+99.99+99.99    +0.120 A 
ATOM     57  C57 UNL     1       0.562  -4.241  -7.990+99.99+99.99    +0.053 A 
ATOM     58  C58 UNL     1       0.886  -3.165  -7.131+99.99+99.99    +0.066 A 
ATOM     59  C59 UNL     1      -1.799  -3.829  -8.541+99.99+99.99    +0.290 C 
ATOM     60  C60 UNL     1      -2.852  -4.438  -9.347+99.99+99.99    +0.176 A 
ATOM     61  C61 UNL     1      -4.796  -4.850 -10.336+99.99+99.99    +0.109 A 
ATOM     62  C62 UNL     1      -3.863  -5.801 -10.671+99.99+99.99    +0.107 A 
ATOM     63  C63 UNL     1      -4.719  -2.819  -8.879+99.99+99.99    +0.157 C 
ATOM     64  C64 UNL     1       8.942   1.124  -2.887 +1.45 +0.00    +0.120 A 
ATOM     65  C65 UNL     1      11.355   1.585  -2.450 +0.45 +0.00    +0.156 C 
ATOM     66  C66 UNL     1       8.864   6.933  -0.390 -0.22 +0.00    +0.252 C 
ATOM     67  C67 UNL     1       7.504   6.894  -1.004 +3.07 +0.00    +0.032 A 
ATOM     68  C68 UNL     1       6.717   5.734  -1.006+13.21 +0.00    +0.019 A 
ATOM     69  C69 UNL     1       5.452   5.738  -1.604+99.99 +0.00    +0.037 A 
ATOM     70  C70 UNL     1       4.975   6.907  -2.209+99.99 +0.00    +0.102 A 
ATOM     71  C71 UNL     1       5.760   8.068  -2.225+99.99 +0.00    +0.037 A 
ATOM     72  C72 UNL     1       7.024   8.055  -1.626 +7.29 +0.00    +0.019 A 
ATOM     73  O1  UNL     1      13.320   7.393   1.931 -0.01 -0.00    -0.273 OA
ATOM     74  O2  UNL     1      16.987  10.712  -1.769+39.46 -0.00    -0.264 OA
ATOM     75  O3  UNL     1      22.815  10.121   1.216 -0.08 -0.00    -0.266 OA
ATOM     76  O4  UNL     1      27.535  13.120  -2.127+53.46 -0.00    -0.266 OA
ATOM     77  O5  UNL     1      32.879  11.431   2.304+99.99+99.99    -0.266 OA
ATOM     78  O6  UNL     1      31.430  12.037  12.535+99.99+99.99    -0.268 OA
ATOM     79  O7  UNL     1      28.518  18.541  13.091+99.99+99.99    -0.646 OA
ATOM     80  O8  UNL     1      27.833  17.041  11.584+99.99+99.99    -0.773 OA
ATOM     81  O9  UNL     1      10.087   2.766   1.194+12.25 -0.00    -0.266 OA
ATOM     82  O10 UNL     1       5.138   2.102  -1.319 -0.05 -0.00    -0.266 OA
ATOM     83  O11 UNL     1       4.231  -2.583  -5.737+99.99+99.99    -0.266 OA
ATOM     84  O12 UNL     1      -1.965  -2.808  -7.878+99.99+99.99    -0.264 OA
ATOM     85  O13 UNL     1       9.700   7.733  -0.794 -0.27 -0.00    -0.268 OA
ATOM     86  O14 UNL     1       2.948   5.899  -2.724+99.99 -0.00    -0.532 OA
ATOM     87  O15 UNL     1       3.302   7.942  -3.438+31.38 -0.00    -0.532 OA
ATOM     88  N1  UNL     1      12.030   8.422   0.282+99.99 -0.00    -0.312 N 
ATOM     89  N2  UNL     1      14.063  10.236  -1.925+99.99 -0.00    -0.339 N 
ATOM     90  N3  UNL     1      14.326   9.096  -0.047+99.99 -0.00    -0.323 N 
ATOM     91  H3  UNL     1      14.741   8.658   0.776 -0.32 +0.00    +0.169 HD
ATOM     92  N4  UNL     1      16.958   9.470   0.193 -0.27 -0.00    -0.319 N 
ATOM     93  N5  UNL     1      20.133   9.134   1.727 +1.61 -0.00    -0.354 N 
ATOM     94  N6  UNL     1      22.106  10.982  -0.802 +0.96 -0.00    -0.320 N 
ATOM     95  N7  UNL     1      24.746  12.504  -2.622+64.38 -0.00    -0.354 N 
ATOM     96  N8  UNL     1      27.472  11.816  -0.220+30.71 -0.00    -0.320 N 
ATOM     97  N9  UNL     1      30.953  12.417   0.342+99.99 -0.00    -0.354 N 
ATOM     98  N10 UNL     1      31.174  10.533   3.512+99.99 -0.00    -0.356 N 
ATOM     99  N11 UNL     1      31.353  12.911   7.252 -0.32 +0.00    +0.084 N 
ATOM    100  N12 UNL     1      30.370  12.852  10.669 -0.09 -0.00    -0.357 N 
ATOM    101  N13 UNL     1      10.805   4.096  -0.524 +0.07 -0.00    -0.354 N 
ATOM    102  N14 UNL     1       6.528   0.955  -2.761 -0.05 -0.00    -0.320 N 
ATOM    103  N15 UNL     1       2.850   1.152  -2.858 -0.00 -0.00    -0.354 N 
ATOM    104  N16 UNL     1       2.289  -1.471  -5.182+99.99+99.99    -0.320 N 
ATOM    105  N17 UNL     1       2.689  -4.428  -7.363+99.99+99.99    -0.354 N 
ATOM    106  N18 UNL     1      -0.620  -4.545  -8.626+99.99+99.99    -0.319 N 
ATOM    107  N19 UNL     1      -4.144  -3.989  -9.496+99.99+99.99    -0.342 N 
ATOM    108  N20 UNL     1      -2.664  -5.543 -10.059+99.99+99.99    -0.346 N 
ATOM    109  H20 UNL     1      -1.804  -6.087 -10.135+99.99+99.99    +0.167 HD
ATOM    110  N21 UNL     1       9.946   1.674  -2.130 -0.05 -0.00    -0.354 N 
ATOM    111  N22 UNL     1       9.103   6.060   0.642 -0.05 -0.00    -0.350 N 
ATOM    112  N23 UNL     1       3.647   6.916  -2.836+99.99 -0.00    -0.116 N 
ATOM    113  H68 UNL     1      27.203  17.785  11.480+99.99+99.99    +0.167 HD
ATOM    114  H69 UNL     1      11.098   8.437  -0.134 +0.72 +0.00    +0.170 HD
ATOM    115  H70 UNL     1      16.314   8.958   0.795 +0.08 +0.00    +0.169 HD
ATOM    116  H71 UNL     1      21.320  11.083  -1.426 +2.41 +0.00    +0.169 HD
ATOM    117  H72 UNL     1      26.883  11.230   0.351 +1.61 +0.00    +0.169 HD
ATOM    118  H73 UNL     1      30.175  10.449   3.616+99.99 +0.00    +0.162 HD
ATOM    119  H74 UNL     1      30.130  13.686  10.150 +0.08 +0.00    +0.162 HD
ATOM    120  H75 UNL     1      10.582   4.361  -1.474 +0.07 +0.00    +0.162 HD
ATOM    121  H76 UNL     1       6.558   0.430  -3.622 +0.04 +0.00    +0.169 HD
ATOM    122  H77 UNL     1       1.291  -1.431  -5.321+99.99+99.99    +0.169 HD
ATOM    123  H78 UNL     1      -0.654  -5.371  -9.217+99.99+99.99    +0.169 HD
ATOM    124  H79 UNL     1       8.369   5.437   0.955 +0.08 +0.00    +0.163 HD
ENDROOT
TORSDOF 33
TER
