USER    Run = 1
USER    DPF = ligand_280_receptor.dpf
USER  
USER    Estimated Free Energy of Binding    =  +6.11e+003 kcal/mol  [=(1)+(2)+(3)-(4)]
USER    
USER    (1) Final Intermolecular Energy     =  +6.11e+003 kcal/mol
USER        vdW + Hbond + desolv Energy     =  +6.11e+003 kcal/mol
USER        Electrostatic Energy            =   +0.00 kcal/mol
USER    (2) Final Total Internal Energy     =   +0.00 kcal/mol
USER    (3) Torsional Free Energy           =   +1.19 kcal/mol
USER    (4) Unbound System's Energy  [=(2)] =   +0.00 kcal/mol
USER    
USER    
USER    NEWDPF move ligand_280.pdbqt
USER    NEWDPF about 0.000000 0.000000 0.000000
USER    NEWDPF tran0 13.719966 6.929124 2.950617
USER    NEWDPF quaternion0 0.282205 -0.383895 0.612563 -0.630675
USER    NEWDPF axisangle0 0.363644 -0.494680 0.789338 -101.800103
USER    NEWDPF quat0 0.363644 -0.494680 0.789338 -101.800103
USER  keepresnum = 1 
USER  
REMARK  0 active torsions:
REMARK  status: ('A' for Active; 'I' for Inactive)
REMARK       I    between atoms: C2_2  and  C3_3 
REMARK       I    between atoms: C2_2  and  O15_70 
REMARK       I    between atoms: C3_3  and  C4_4 
REMARK       I    between atoms: C3_3  and  N3_73 
REMARK       I    between atoms: C4_4  and  N1_71 
REMARK       I    between atoms: C5_5  and  C6_6 
REMARK       I    between atoms: C5_5  and  N1_71 
REMARK       I    between atoms: C6_6  and  N2_72 
REMARK       I    between atoms: C7_7  and  C8_8 
REMARK       I    between atoms: C7_7  and  N3_73 
REMARK       I    between atoms: C10_10  and  C13_13 
REMARK       I    between atoms: C15_15  and  N6_78 
REMARK       I    between atoms: C18_18  and  C19_19 
REMARK       I    between atoms: C18_18  and  N6_78 
REMARK       I    between atoms: C19_19  and  N7_79 
REMARK       I    between atoms: C21_21  and  C22_22 
REMARK       I    between atoms: C21_21  and  N7_79 
REMARK       I    between atoms: C22_22  and  N8_80 
REMARK       I    between atoms: C23_23  and  C24_24 
REMARK       I    between atoms: C23_23  and  N8_80 
REMARK       I    between atoms: C24_24  and  N9_81 
REMARK       I    between atoms: C25_25  and  C26_26 
REMARK       I    between atoms: C25_25  and  N9_81 
REMARK       I    between atoms: C30_30  and  C31_31 
REMARK       I    between atoms: C30_30  and  N10_82 
REMARK       I    between atoms: C31_31  and  N11_83 
REMARK       I    between atoms: C32_32  and  C33_33 
REMARK       I    between atoms: C32_32  and  N11_83 
REMARK       I    between atoms: C33_33  and  C34_34 
REMARK       I    between atoms: C33_33  and  N12_84 
REMARK       I    between atoms: C34_34  and  O10_65 
REMARK       I    between atoms: C35_35  and  C36_36 
REMARK       I    between atoms: C35_35  and  N12_84 
REMARK       I    between atoms: C38_38  and  C41_41 
REMARK       I    between atoms: C43_43  and  N15_89 
REMARK       I    between atoms: C46_46  and  C47_47 
REMARK       I    between atoms: C46_46  and  N15_89 
REMARK       I    between atoms: C47_47  and  C48_48 
REMARK       I    between atoms: C47_47  and  N16_90 
REMARK       I    between atoms: C48_48  and  C49_49 
REMARK       I    between atoms: C52_52  and  C53_53 
REMARK       I    between atoms: C52_52  and  N16_90 
REMARK       I    between atoms: C53_53  and  N17_91 
REMARK       I    between atoms: C54_54  and  C55_55 
REMARK       I    between atoms: C54_54  and  N17_91 
REMARK       I    between atoms: C55_55  and  N18_92 
USER                              x       y       z     vdW  Elec       q    Type
USER                           _______ _______ _______ _____ _____    ______ ____
ROOT
ATOM      1  C1  UNL     1       4.873   0.621   3.437 -0.39 +0.00    +0.042 C 
ATOM      2  C2  UNL     1       3.713   1.562   3.120 -0.19 +0.00    +0.146 C 
ATOM      3  C3  UNL     1       3.942   3.040   3.517 -0.09 +0.00    +0.205 C 
ATOM      4  C4  UNL     1       4.048   3.223   5.048 -0.18 +0.00    +0.243 C 
ATOM      5  C5  UNL     1       4.526   4.814   6.856 -0.32 +0.00    +0.225 C 
ATOM      6  C6  UNL     1       5.827   4.248   7.439 +0.16 +0.00    +0.233 C 
ATOM      7  C7  UNL     1       5.141   4.924   2.424 -0.10 +0.00    +0.253 C 
ATOM      8  C8  UNL     1       6.389   5.390   1.778 -0.16 +0.00    +0.047 A 
ATOM      9  C9  UNL     1       7.291   4.515   1.192 -0.08 +0.00    +0.105 A 
ATOM     10  C10 UNL     1       8.799   6.212   0.682 -0.20 +0.00    +0.059 A 
ATOM     11  C11 UNL     1       7.903   7.160   1.181 -0.34 +0.00    +0.033 A 
ATOM     12  C12 UNL     1       6.693   6.747   1.740 -0.32 +0.00    +0.021 A 
ATOM     13  C13 UNL     1      10.144   6.589   0.188 -0.26 +0.00    +0.059 A 
ATOM     14  C14 UNL     1      11.811   8.204   0.078+99.99 +0.00    +0.117 A 
ATOM     15  C15 UNL     1      12.672   7.390  -0.654 +1.23 +0.00    +0.050 A 
ATOM     16  C16 UNL     1      12.219   6.111  -0.954 -0.38 +0.00    +0.033 A 
ATOM     17  C17 UNL     1      10.951   5.707  -0.529 -0.28 +0.00    +0.034 A 
ATOM     18  C18 UNL     1      14.889   7.312  -1.826+99.99 +0.00    +0.244 C 
ATOM     19  C19 UNL     1      16.059   8.273  -2.184+95.42 +0.00    +0.172 C 
ATOM     20  C20 UNL     1      17.032   7.587  -3.144 -0.60 +0.00    +0.042 C 
ATOM     21  C21 UNL     1      16.307   9.759  -0.198 +0.87 +0.00    +0.236 C 
ATOM     22  C22 UNL     1      17.316  10.406   0.768 -0.38 +0.00    +0.225 C 
ATOM     23  C23 UNL     1      19.587   9.644   0.137 +0.53 +0.00    +0.235 C 
ATOM     24  C24 UNL     1      20.906   9.086   0.678 +6.73 +0.00    +0.225 C 
ATOM     25  C25 UNL     1      21.193  10.168   2.887 -0.13 +0.00    +0.241 C 
ATOM     26  C26 UNL     1      22.240  10.861   3.784 +0.87 +0.00    +0.179 C 
ATOM     27  C27 UNL     1      21.619  11.472   5.042+99.99 +0.00    +0.037 C 
ATOM     28  C28 UNL     1      21.696  10.345   6.067+99.99 +0.00    +0.022 C 
ATOM     29  C29 UNL     1      23.014   9.666   5.734 +0.29 +0.00    +0.127 C 
ATOM     30  C30 UNL     1      24.176   9.337   3.503 -0.47 +0.00    +0.238 C 
ATOM     31  C31 UNL     1      25.108   8.292   4.124 -0.25 +0.00    +0.225 C 
ATOM     32  C32 UNL     1      24.833   6.147   2.917+36.95 +0.00    +0.243 C 
ATOM     33  C33 UNL     1      23.921   4.911   2.819+99.99 +0.00    +0.200 C 
ATOM     34  C34 UNL     1      24.166   4.122   1.524 +0.53 +0.00    +0.199 C 
ATOM     35  C35 UNL     1      21.489   4.493   3.184+33.16 +0.00    +0.253 C 
ATOM     36  C36 UNL     1      20.124   5.063   3.203+99.99 +0.00    +0.047 A 
ATOM     37  C37 UNL     1      19.044   4.247   2.900+99.99 +0.00    +0.105 A 
ATOM     38  C38 UNL     1      17.503   5.975   3.201+16.12 +0.00    +0.059 A 
ATOM     39  C39 UNL     1      18.543   6.843   3.540 +3.79 +0.00    +0.033 A 
ATOM     40  C40 UNL     1      19.862   6.386   3.544+42.20 +0.00    +0.021 A 
ATOM     41  C41 UNL     1      16.088   6.416   3.207+99.99 +0.00    +0.059 A 
ATOM     42  C42 UNL     1      14.577   8.179   3.429 -0.37 +0.00    +0.117 A 
ATOM     43  C43 UNL     1      13.468   7.342   3.391 -0.38 +0.00    +0.050 A 
ATOM     44  C44 UNL     1      13.716   5.983   3.218+11.00 +0.00    +0.033 A 
ATOM     45  C45 UNL     1      15.028   5.515   3.121+99.99 +0.00    +0.034 A 
ATOM     46  C46 UNL     1      11.670   9.060   3.641 +1.21 +0.00    +0.245 C 
ATOM     47  C47 UNL     1      10.123   9.189   3.752 +0.40 +0.00    +0.177 C 
ATOM     48  C48 UNL     1       9.733  10.534   4.401+99.99 +0.00    +0.038 C 
ATOM     49  C49 UNL     1       8.221  10.779   4.580+99.99 -0.00    -0.020 C 
ATOM     50  C50 UNL     1       7.476  10.817   3.247+99.99 +0.00    +0.009 C 
ATOM     51  C51 UNL     1       7.999  12.096   5.331+99.99 +0.00    +0.009 C 
ATOM     52  C52 UNL     1       9.565   7.703   5.677+22.96 +0.00    +0.236 C 
ATOM     53  C53 UNL     1       8.891   6.388   6.089 +4.28 +0.00    +0.225 C 
ATOM     54  C54 UNL     1       9.453   4.766   4.359 -0.19 +0.00    +0.245 C 
ATOM     55  C55 UNL     1       9.126   3.323   3.949 -0.13 +0.00    +0.368 C 
ATOM     56  O1  UNL     1       3.743   2.344   5.855 -0.41 -0.00    -0.271 OA
ATOM     57  O2  UNL     1       6.823   3.967   6.771 -0.36 -0.00    -0.272 OA
ATOM     58  O3  UNL     1       4.219   5.703   2.640 -0.18 -0.00    -0.268 OA
ATOM     59  O4  UNL     1      14.823   6.172  -2.285+56.01 -0.00    -0.271 OA
ATOM     60  O5  UNL     1      15.146  10.162  -0.293 +5.25 -0.00    -0.272 OA
ATOM     61  O6  UNL     1      19.434   9.953  -1.043+40.67 -0.00    -0.272 OA
ATOM     62  O7  UNL     1      20.116   9.742   3.299 +0.09 -0.00    -0.271 OA
ATOM     63  O8  UNL     1      24.225   9.619   2.303 -0.32 -0.00    -0.272 OA
ATOM     64  O9  UNL     1      25.804   6.343   2.197 -0.11 -0.00    -0.271 OA
ATOM     65  O10 UNL     1      23.737   2.762   1.635+95.61 -0.00    -0.398 OA
ATOM     66  O11 UNL     1      21.669   3.290   3.332 -0.46 -0.00    -0.268 OA
ATOM     67  O12 UNL     1      12.383  10.056   3.514+31.28 -0.00    -0.271 OA
ATOM     68  O13 UNL     1      10.081   8.438   6.516 +2.85 -0.00    -0.272 OA
ATOM     69  O14 UNL     1      10.544   5.281   4.112 -0.17 -0.00    -0.272 OA
ATOM     70  O15 UNL     1       2.521   1.041   3.714 -0.06 -0.00    -0.393 OA
ATOM     71  N1  UNL     1       4.420   4.487   5.452 -0.08 -0.00    -0.350 N 
ATOM     72  N2  UNL     1       5.853   4.133   8.800+99.99 -0.00    -0.369 N 
ATOM     73  N3  UNL     1       5.117   3.612   2.845 -0.01 -0.00    -0.341 N 
ATOM     74  N4  UNL     1       8.485   4.889   0.667 -0.01 -0.00    -0.363 N 
ATOM     75  H4  UNL     1       9.127   4.200   0.274 +0.05 +0.00    +0.165 HD
ATOM     76  N5  UNL     1      10.571   7.843   0.500 +1.31 -0.00    -0.362 N 
ATOM     77  H5  UNL     1       9.983   8.487   1.029 +0.32 +0.00    +0.165 HD
ATOM     78  N6  UNL     1      13.915   7.913  -1.049+31.20 -0.00    -0.324 N 
ATOM     79  N7  UNL     1      16.794   8.765  -1.015 -0.16 -0.00    -0.347 N 
ATOM     80  N8  UNL     1      18.550   9.679   1.040 -0.13 -0.00    -0.351 N 
ATOM     81  N9  UNL     1      21.605   9.980   1.584 -0.17 -0.00    -0.351 N 
ATOM     82  N10 UNL     1      23.171   9.850   4.299 -0.33 -0.00    -0.337 N 
ATOM     83  N11 UNL     1      24.499   6.983   3.968+57.60 -0.00    -0.350 N 
ATOM     84  N12 UNL     1      22.523   5.373   2.951+99.99 -0.00    -0.342 N 
ATOM     85  N13 UNL     1      17.753   4.674   2.886 +5.28 -0.00    -0.363 N 
ATOM     86  H13 UNL     1      16.993   4.037   2.647 +1.72 +0.00    +0.165 HD
ATOM     87  N14 UNL     1      15.867   7.752   3.344 -0.22 -0.00    -0.362 N 
ATOM     88  H14 UNL     1      16.644   8.413   3.381 +0.11 +0.00    +0.165 HD
ATOM     89  N15 UNL     1      12.128   7.756   3.535 -0.20 -0.00    -0.324 N 
ATOM     90  N16 UNL     1       9.481   8.016   4.342 +0.11 -0.00    -0.346 N 
ATOM     91  N17 UNL     1       8.477   5.457   5.044 -0.07 -0.00    -0.351 N 
ATOM     92  N18 UNL     1       7.721   2.919   4.205 -0.25 +0.00    +0.087 N 
ATOM     93  H54 UNL     1      22.930   2.737   2.194 +0.23 +0.00    +0.209 HD
ATOM     94  H55 UNL     1       2.648   1.071   4.686 +0.08 +0.00    +0.210 HD
ATOM     95  H56 UNL     1       4.394   5.232   4.760 +0.07 +0.00    +0.163 HD
ATOM     96  H57 UNL     1       6.662   3.673   9.199+49.13 +0.00    +0.159 HD
ATOM     97  H58 UNL     1       4.992   4.062   9.329+18.75 +0.00    +0.159 HD
ATOM     98  H59 UNL     1       6.021   3.233   3.135 +0.07 +0.00    +0.163 HD
ATOM     99  H60 UNL     1      14.128   8.865  -0.737 -0.32 +0.00    +0.169 HD
ATOM    100  H61 UNL     1      17.803   8.807  -1.124 +0.11 +0.00    +0.163 HD
ATOM    101  H62 UNL     1      18.822   9.614   2.023 +0.12 +0.00    +0.163 HD
ATOM    102  H63 UNL     1      22.617  10.047   1.447 +0.14 +0.00    +0.163 HD
ATOM    103  H64 UNL     1      23.646   6.774   4.474+99.99 +0.00    +0.163 HD
ATOM    104  H65 UNL     1      22.302   6.264   2.522 +0.56 +0.00    +0.163 HD
ATOM    105  H66 UNL     1      11.431   7.014   3.591 +0.10 +0.00    +0.169 HD
ATOM    106  H67 UNL     1       9.210   7.257   3.726 +0.09 +0.00    +0.163 HD
ATOM    107  H68 UNL     1       7.691   4.871   5.319 +0.09 +0.00    +0.163 HD
ATOM    108  H69 UNL     1       7.553   2.982   5.223 -0.31 +0.00    +0.313 HD
ATOM    109  H70 UNL     1       7.684   1.910   4.036 -0.19 +0.00    +0.313 HD
ENDROOT
TORSDOF 33
TER
