USER    Run = 1
USER    DPF = ligand_229_receptor.dpf
USER  
USER    Estimated Free Energy of Binding    =  +1.70e+007 kcal/mol  [=(1)+(2)+(3)-(4)]
USER    
USER    (1) Final Intermolecular Energy     =  +1.70e+007 kcal/mol
USER        vdW + Hbond + desolv Energy     =  +8.51e+006 kcal/mol
USER        Electrostatic Energy            =  +8.45e+006 kcal/mol
USER    (2) Final Total Internal Energy     =   +0.00 kcal/mol
USER    (3) Torsional Free Energy           =   +1.19 kcal/mol
USER    (4) Unbound System's Energy  [=(2)] =   +0.00 kcal/mol
USER    
USER    
USER    NEWDPF move ligand_229.pdbqt
USER    NEWDPF about 0.000000 0.000000 0.000000
USER    NEWDPF tran0 16.432979 7.554372 2.803020
USER    NEWDPF quaternion0 -0.838119 0.054822 0.249489 0.481982
USER    NEWDPF axisangle0 -0.956559 0.062569 0.284745 122.370116
USER    NEWDPF quat0 -0.956559 0.062569 0.284745 122.370116
USER  keepresnum = 1 
USER  
REMARK  0 active torsions:
REMARK  status: ('A' for Active; 'I' for Inactive)
REMARK       I    between atoms: C1_1  and  C2_2 
REMARK       I    between atoms: C1_1  and  C54_54 
REMARK       I    between atoms: C2_2  and  C3_3 
REMARK       I    between atoms: C3_3  and  C4_4 
REMARK       I    between atoms: C4_4  and  C5_5 
REMARK       I    between atoms: C5_5  and  N1_72 
REMARK       I    between atoms: C6_6  and  C7_7 
REMARK       I    between atoms: C6_6  and  C11_11 
REMARK       I    between atoms: C6_6  and  N1_72 
REMARK       I    between atoms: C7_7  and  C8_8 
REMARK       I    between atoms: C8_8  and  C9_9 
REMARK       I    between atoms: C9_9  and  C10_10 
REMARK       I    between atoms: C10_10  and  N2_73 
REMARK       I    between atoms: C11_11  and  N3_74 
REMARK       I    between atoms: C12_12  and  C13_13 
REMARK       I    between atoms: C12_12  and  N3_74 
REMARK       I    between atoms: C13_13  and  C14_14 
REMARK       I    between atoms: C14_14  and  C15_15 
REMARK       I    between atoms: C15_15  and  C16_16 
REMARK       I    between atoms: C16_16  and  C17_17 
REMARK       I    between atoms: C17_17  and  C18_18 
REMARK       I    between atoms: C18_18  and  C19_19 
REMARK       I    between atoms: C19_19  and  N4_75 
REMARK       I    between atoms: C20_20  and  C21_21 
REMARK       I    between atoms: C20_20  and  C25_25 
REMARK       I    between atoms: C20_20  and  N4_75 
REMARK       I    between atoms: C21_21  and  C22_22 
REMARK       I    between atoms: C22_22  and  C23_23 
REMARK       I    between atoms: C23_23  and  C24_24 
REMARK       I    between atoms: C24_24  and  N5_76 
REMARK       I    between atoms: C25_25  and  N6_77 
REMARK       I    between atoms: C26_26  and  C27_27 
REMARK       I    between atoms: C26_26  and  N6_77 
REMARK       I    between atoms: C27_27  and  C28_28 
REMARK       I    between atoms: C28_28  and  C29_29 
REMARK       I    between atoms: C29_29  and  C30_30 
REMARK       I    between atoms: C30_30  and  C31_31 
REMARK       I    between atoms: C31_31  and  C32_32 
REMARK       I    between atoms: C32_32  and  C33_33 
REMARK       I    between atoms: C33_33  and  N7_78 
REMARK       I    between atoms: C34_34  and  C35_35 
REMARK       I    between atoms: C34_34  and  C39_39 
REMARK       I    between atoms: C34_34  and  N7_78 
REMARK       I    between atoms: C35_35  and  C36_36 
REMARK       I    between atoms: C36_36  and  C37_37 
REMARK       I    between atoms: C37_37  and  C38_38 
REMARK       I    between atoms: C38_38  and  N8_79 
REMARK       I    between atoms: C39_39  and  N9_80 
REMARK       I    between atoms: C40_40  and  C41_41 
REMARK       I    between atoms: C40_40  and  N9_80 
REMARK       I    between atoms: C41_41  and  C42_42 
REMARK       I    between atoms: C42_42  and  C43_43 
REMARK       I    between atoms: C43_43  and  C44_44 
REMARK       I    between atoms: C44_44  and  C45_45 
REMARK       I    between atoms: C45_45  and  C46_46 
REMARK       I    between atoms: C46_46  and  C47_47 
REMARK       I    between atoms: C47_47  and  N10_81 
REMARK       I    between atoms: C48_48  and  C49_49 
REMARK       I    between atoms: C48_48  and  C53_53 
REMARK       I    between atoms: C48_48  and  N10_81 
REMARK       I    between atoms: C49_49  and  C50_50 
REMARK       I    between atoms: C50_50  and  C51_51 
REMARK       I    between atoms: C51_51  and  C52_52 
REMARK       I    between atoms: C52_52  and  N11_82 
REMARK       I    between atoms: C53_53  and  N12_83 
REMARK       I    between atoms: C54_54  and  C55_55 
REMARK       I    between atoms: C55_55  and  C56_56 
REMARK       I    between atoms: C56_56  and  N13_84 
REMARK       I    between atoms: C57_57  and  C58_58 
REMARK       I    between atoms: C57_57  and  N13_84 
REMARK       I    between atoms: C58_58  and  C59_59 
REMARK       I    between atoms: C58_58  and  N15_86 
REMARK       I    between atoms: C59_59  and  C60_60 
REMARK       I    between atoms: C60_60  and  C61_61 
REMARK       I    between atoms: C61_61  and  C62_62 
REMARK       I    between atoms: C62_62  and  N14_85 
USER                              x       y       z     vdW  Elec       q    Type
USER                           _______ _______ _______ _____ _____    ______ ____
ROOT
ATOM      1  C1  UNL     1       4.139  14.042   9.535+99.99 +0.00    +0.000 C 
ATOM      2  C2  UNL     1       4.602  12.776   8.812+85.77 +0.00    +0.000 C 
ATOM      3  C3  UNL     1       5.925  13.012   8.074+99.99 +0.00    +0.009 C 
ATOM      4  C4  UNL     1       6.401  11.769   7.324+99.99 +0.00    +0.103 C 
ATOM      5  C5  UNL     1       6.945  10.684   8.234+99.99 +0.00    +0.218 C 
ATOM      6  C6  UNL     1       7.849   8.373   8.212+99.99 +0.00    +0.176 C 
ATOM      7  C7  UNL     1       6.847   7.272   8.586 +5.69 +0.00    +0.035 C 
ATOM      8  C8  UNL     1       5.883   7.701   9.697+99.99 +0.00    +0.004 C 
ATOM      9  C9  UNL     1       5.000   6.558  10.209+99.99 +0.00    +0.030 C 
ATOM     10  C10 UNL     1       4.005   6.053   9.165+99.99 +0.00    +0.267 C 
ATOM     11  C11 UNL     1       8.890   7.827   7.211+99.99 +0.00    +0.240 C 
ATOM     12  C12 UNL     1      10.877   6.354   6.986 -0.06 +0.00    +0.122 C 
ATOM     13  C13 UNL     1      12.241   6.955   7.327 -0.39 +0.00    +0.020 C 
ATOM     14  C14 UNL     1      12.430   8.414   6.897 -0.51 +0.00    +0.002 C 
ATOM     15  C15 UNL     1      12.362   8.677   5.389 +1.21 +0.00    +0.000 C 
ATOM     16  C16 UNL     1      13.341   7.874   4.526 -0.51 +0.00    +0.000 C 
ATOM     17  C17 UNL     1      14.810   8.144   4.866 -0.31 +0.00    +0.009 C 
ATOM     18  C18 UNL     1      15.770   7.386   3.948 -0.12 +0.00    +0.103 C 
ATOM     19  C19 UNL     1      15.696   7.825   2.500 +1.42 +0.00    +0.218 C 
ATOM     20  C20 UNL     1      15.989   9.730   0.946 -0.20 +0.00    +0.176 C 
ATOM     21  C21 UNL     1      15.674  11.231   0.983 -0.49 +0.00    +0.035 C 
ATOM     22  C22 UNL     1      14.236  11.510   1.438 +2.78 +0.00    +0.004 C 
ATOM     23  C23 UNL     1      13.883  13.002   1.484+99.99 +0.00    +0.030 C 
ATOM     24  C24 UNL     1      13.366  13.579   0.162+99.99 +0.00    +0.267 C 
ATOM     25  C25 UNL     1      17.391   9.468   0.352 -0.37 +0.00    +0.240 C 
ATOM     26  C26 UNL     1      18.856   7.669  -0.517+99.99 +0.00    +0.122 C 
ATOM     27  C27 UNL     1      19.094   8.049  -1.978+15.74 +0.00    +0.020 C 
ATOM     28  C28 UNL     1      20.380   7.458  -2.561 +4.24 +0.00    +0.002 C 
ATOM     29  C29 UNL     1      21.671   7.823  -1.819+14.35 +0.00    +0.000 C 
ATOM     30  C30 UNL     1      21.915   9.331  -1.734+99.99 +0.00    +0.000 C 
ATOM     31  C31 UNL     1      23.295   9.706  -1.178 +2.18 +0.00    +0.009 C 
ATOM     32  C32 UNL     1      23.460   9.465   0.324 -0.32 +0.00    +0.103 C 
ATOM     33  C33 UNL     1      23.742   8.027   0.706 -0.35 +0.00    +0.218 C 
ATOM     34  C34 UNL     1      25.304   6.127   0.400 -0.36 +0.00    +0.176 C 
ATOM     35  C35 UNL     1      24.570   5.182  -0.566 -0.57 +0.00    +0.035 C 
ATOM     36  C36 UNL     1      24.833   3.698  -0.295 -0.22 +0.00    +0.004 C 
ATOM     37  C37 UNL     1      23.967   2.808  -1.194+99.99 +0.00    +0.030 C 
ATOM     38  C38 UNL     1      24.162   1.312  -0.931+99.99 +0.00    +0.267 C 
ATOM     39  C39 UNL     1      26.829   6.080   0.181 -0.24 +0.00    +0.240 C 
ATOM     40  C40 UNL     1      28.900   4.856   0.748 +0.04 +0.00    +0.122 C 
ATOM     41  C41 UNL     1      29.141   3.888  -0.410 -0.26 +0.00    +0.020 C 
ATOM     42  C42 UNL     1      30.626   3.559  -0.564 -0.15 +0.00    +0.002 C 
ATOM     43  C43 UNL     1      30.935   2.702  -1.796 -0.13 +0.00    +0.000 C 
ATOM     44  C44 UNL     1      30.342   1.292  -1.723 -0.12 +0.00    +0.000 C 
ATOM     45  C45 UNL     1      30.646   0.441  -2.960 -0.16 +0.00    +0.009 C 
ATOM     46  C46 UNL     1      32.126   0.092  -3.111 -0.03 +0.00    +0.103 C 
ATOM     47  C47 UNL     1      32.373  -0.849  -4.275 -0.06 +0.00    +0.218 C 
ATOM     48  C48 UNL     1      34.151  -2.109  -5.470+99.99+99.99    +0.176 C 
ATOM     49  C49 UNL     1      35.617  -1.836  -5.845+99.99+99.99    +0.035 C 
ATOM     50  C50 UNL     1      35.809  -0.462  -6.493+99.99+99.99    +0.004 C 
ATOM     51  C51 UNL     1      37.276  -0.133  -6.797+99.99+99.99    +0.030 C 
ATOM     52  C52 UNL     1      37.991  -1.082  -7.762+99.99+99.99    +0.267 C 
ATOM     53  C53 UNL     1      33.963  -3.576  -5.015+99.99+99.99    +0.238 C 
ATOM     54  C54 UNL     1       2.822  13.807  10.279+99.99 +0.00    +0.002 C 
ATOM     55  C55 UNL     1       2.356  15.077  10.998+99.99+99.99    +0.020 C 
ATOM     56  C56 UNL     1       1.074  14.858  11.798+99.99+99.99    +0.122 C 
ATOM     57  C57 UNL     1      -0.807  15.503  10.307+99.99+99.99    +0.250 C 
ATOM     58  C58 UNL     1      -1.907  14.891   9.404+99.99+99.99    +0.308 C 
ATOM     59  C59 UNL     1      -3.045  15.884   9.112+99.99+99.99    +0.045 C 
ATOM     60  C60 UNL     1      -3.892  16.300  10.325+99.99+99.99    +0.004 C 
ATOM     61  C61 UNL     1      -5.183  15.484  10.461+99.99+99.99    +0.030 C 
ATOM     62  C62 UNL     1      -5.984  15.819  11.723+99.99+99.99    +0.267 C 
ATOM     63  O1  UNL     1       7.155  10.833   9.432+99.99 -0.00    -0.274 OA
ATOM     64  O2  UNL     1       8.870   8.135   6.021+99.99 -0.00    -0.271 OA
ATOM     65  O3  UNL     1      15.456   7.043   1.586+99.99 -0.00    -0.274 OA
ATOM     66  O4  UNL     1      18.270  10.324   0.293 -0.33 -0.00    -0.271 OA
ATOM     67  O5  UNL     1      23.008   7.390   1.456 -0.20 -0.00    -0.274 OA
ATOM     68  O6  UNL     1      27.396   6.827  -0.617 -0.21 -0.00    -0.271 OA
ATOM     69  O7  UNL     1      31.491  -1.290  -5.006+99.99+99.99    -0.274 OA
ATOM     70  O8  UNL     1      34.822  -4.447  -5.110+99.99+99.99    -0.271 OA
ATOM     71  O9  UNL     1      -0.593  16.708  10.394+99.99+99.99    -0.271 OA
ATOM     72  N1  UNL     1       7.190   9.505   7.569+99.99 -0.00    -0.348 N 
ATOM     73  N2  UNL     1       3.162   5.009   9.739+99.99 +0.00    +0.078 N 
ATOM     74  N3  UNL     1       9.810   6.959   7.760+41.01 -0.00    -0.359 N 
ATOM     75  N4  UNL     1      15.959   9.159   2.294 -0.20 -0.00    -0.348 N 
ATOM     76  N5  UNL     1      14.373  13.588  -0.887+12.39 +0.00    +0.078 N 
ATOM     77  N6  UNL     1      17.581   8.157  -0.041 +2.21 -0.00    -0.359 N 
ATOM     78  N7  UNL     1      24.890   7.506   0.170 -0.14 -0.00    -0.348 N 
ATOM     79  N8  UNL     1      25.490   0.835  -1.296+58.37 +0.00    +0.078 N 
ATOM     80  N9  UNL     1      27.487   5.120   0.919 +0.46 -0.00    -0.359 N 
ATOM     81  N10 UNL     1      33.699  -1.186  -4.424+99.99+99.99    -0.348 N 
ATOM     82  N11 UNL     1      37.356  -1.115  -9.073+99.99+99.99    +0.078 N 
ATOM     83  N12 UNL     1      32.709  -3.896  -4.569+99.99+99.99    -0.368 N 
ATOM     84  N13 UNL     1      -0.059  14.546  10.957+99.99+99.99    -0.359 N 
ATOM     85  N14 UNL     1      -6.477  17.190  11.744+99.99+99.99    +0.078 N 
ATOM     86  N15 UNL     1      -2.374  13.602   9.965+99.99+99.99    +0.092 N 
ATOM     87  HA2 UNL     1       7.215   9.509   6.553+99.99 +0.00    +0.163 HD
ATOM     88  HA3 UNL     1       2.638   5.386  10.528 +4.39 +0.00    +0.312 HD
ATOM     89  HA4 UNL     1       2.468   4.719   9.052 +0.13 +0.00    +0.312 HD
ATOM     90  HA5 UNL     1       9.788   6.783   8.756+81.65 +0.00    +0.162 HD
ATOM     91  HA6 UNL     1      16.487   9.649   3.005 +0.13 +0.00    +0.163 HD
ATOM     92  HA7 UNL     1      15.178  14.138  -0.590 +2.31 +0.00    +0.312 HD
ATOM     93  HA8 UNL     1      14.001  14.052  -1.714 +0.45 +0.00    +0.312 HD
ATOM     94  HA9 UNL     1      16.856   7.483   0.208 -0.07 +0.00    +0.162 HD
ATOM     95  HB0 UNL     1      25.491   8.072  -0.422 +0.11 +0.00    +0.163 HD
ATOM     96  HB1 UNL     1      26.203   1.323  -0.760+99.99 +0.00    +0.312 HD
ATOM     97  HB2 UNL     1      25.673   1.050  -2.276 +0.09 +0.00    +0.312 HD
ATOM     98  HB3 UNL     1      26.960   4.529   1.549 +0.29 +0.00    +0.162 HD
ATOM     99  HB4 UNL     1      34.316  -1.046  -3.633+99.99+99.99    +0.163 HD
ATOM    100  HB5 UNL     1      36.434  -1.541  -9.002+99.99+99.99    +0.312 HD
ATOM    101  HB6 UNL     1      37.894  -1.723  -9.691+99.99+99.99    +0.312 HD
ATOM    102  HB7 UNL     1      32.505  -4.873  -4.416+99.99+99.99    +0.159 HD
ATOM    103  HB8 UNL     1      31.930  -3.273  -4.782+99.99+99.99    +0.159 HD
ATOM    104  HB9 UNL     1      -0.338  13.582  10.796+99.99+99.99    +0.162 HD
ATOM    105  HC0 UNL     1      -6.972  17.395  10.878+99.99+99.99    +0.312 HD
ATOM    106  HC1 UNL     1      -5.694  17.842  11.783+99.99+99.99    +0.312 HD
ATOM    107  HC2 UNL     1      -2.793  13.780  10.878+99.99+99.99    +0.313 HD
ATOM    108  HC3 UNL     1      -3.128  13.245   9.376+99.99+99.99    +0.313 HD
ENDROOT
TORSDOF 67
TER
