USER    Run = 1
USER    DPF = ligand_324_receptor.dpf
USER  
USER    Estimated Free Energy of Binding    =  +2.01e+006 kcal/mol  [=(1)+(2)+(3)-(4)]
USER    
USER    (1) Final Intermolecular Energy     =  +2.01e+006 kcal/mol
USER        vdW + Hbond + desolv Energy     =  +1.35e+006 kcal/mol
USER        Electrostatic Energy            =  +6.59e+005 kcal/mol
USER    (2) Final Total Internal Energy     =   +0.00 kcal/mol
USER    (3) Torsional Free Energy           =   +1.19 kcal/mol
USER    (4) Unbound System's Energy  [=(2)] =   +0.00 kcal/mol
USER    
USER    
USER    NEWDPF move ligand_324.pdbqt
USER    NEWDPF about 0.000000 0.000000 0.000000
USER    NEWDPF tran0 16.704901 6.938402 2.114061
USER    NEWDPF quaternion0 0.780106 -0.075740 0.063649 0.617776
USER    NEWDPF axisangle0 0.992054 -0.096318 0.080942 103.692158
USER    NEWDPF quat0 0.992054 -0.096318 0.080942 103.692158
USER  keepresnum = 1 
USER  
REMARK  0 active torsions:
REMARK  status: ('A' for Active; 'I' for Inactive)
REMARK       I    between atoms: C5_5  and  C8_8 
REMARK       I    between atoms: C8_8  and  C9_9 
REMARK       I    between atoms: C9_9  and  C10_10 
REMARK       I    between atoms: C10_10  and  C11_11 
REMARK       I    between atoms: C11_11  and  N1_97 
REMARK       I    between atoms: C12_12  and  C13_13 
REMARK       I    between atoms: C12_12  and  N1_97 
REMARK       I    between atoms: C13_13  and  N2_98 
REMARK       I    between atoms: C14_14  and  C15_15 
REMARK       I    between atoms: C14_14  and  N2_98 
REMARK       I    between atoms: C15_15  and  C16_16 
REMARK       I    between atoms: C15_15  and  N13_110 
REMARK       I    between atoms: C16_16  and  C17_17 
REMARK       I    between atoms: C17_17  and  C18_18 
REMARK       I    between atoms: C18_18  and  C19_19 
REMARK       I    between atoms: C19_19  and  N3_99 
REMARK       I    between atoms: C20_20  and  C21_21 
REMARK       I    between atoms: C20_20  and  N3_99 
REMARK       I    between atoms: C24_24  and  C27_27 
REMARK       I    between atoms: C27_27  and  N4_100 
REMARK       I    between atoms: C28_28  and  C29_29 
REMARK       I    between atoms: C28_28  and  N4_100 
REMARK       I    between atoms: C29_29  and  C30_30 
REMARK       I    between atoms: C30_30  and  C31_31 
REMARK       I    between atoms: C31_31  and  C32_32 
REMARK       I    between atoms: C31_31  and  N11_108 
REMARK       I    between atoms: C32_32  and  N5_101 
REMARK       I    between atoms: C33_33  and  C34_34 
REMARK       I    between atoms: C33_33  and  C38_38 
REMARK       I    between atoms: C33_33  and  N5_101 
REMARK       I    between atoms: C34_34  and  C35_35 
REMARK       I    between atoms: C35_35  and  C36_36 
REMARK       I    between atoms: C36_36  and  N6_102 
REMARK       I    between atoms: C37_37  and  N6_102 
REMARK       I    between atoms: C37_37  and  N8_105 
REMARK       I    between atoms: C38_38  and  N9_106 
REMARK       I    between atoms: C39_39  and  C40_40 
REMARK       I    between atoms: C39_39  and  C51_51 
REMARK       I    between atoms: C39_39  and  N9_106 
REMARK       I    between atoms: C40_40  and  C41_41 
REMARK       I    between atoms: C51_51  and  N10_107 
REMARK       I    between atoms: C52_52  and  C53_53 
REMARK       I    between atoms: C52_52  and  N10_107 
REMARK       I    between atoms: C55_55  and  C56_56 
REMARK       I    between atoms: C55_55  and  N11_108 
REMARK       I    between atoms: C56_56  and  C57_57 
REMARK       I    between atoms: C56_56  and  N12_109 
REMARK       I    between atoms: C57_57  and  C58_58 
REMARK       I    between atoms: C61_61  and  O10_89 
REMARK       I    between atoms: C64_64  and  C65_65 
REMARK       I    between atoms: C64_64  and  N13_110 
REMARK       I    between atoms: C65_65  and  N14_111 
REMARK       I    between atoms: C74_74  and  O12_91 
REMARK       I    between atoms: C74_74  and  N17_114 
REMARK       I    between atoms: C75_75  and  O12_91 
REMARK       I    between atoms: C76_76  and  C77_77 
REMARK       I    between atoms: C76_76  and  N16_113 
REMARK       I    between atoms: C77_77  and  O15_94 
REMARK       I    between atoms: C78_78  and  C79_79 
REMARK       I    between atoms: C78_78  and  N15_112 
REMARK       I    between atoms: C79_79  and  O17_96 
USER                              x       y       z     vdW  Elec       q    Type
USER                           _______ _______ _______ _____ _____    ______ ____
ROOT
ATOM      1  C1  UNL     1       0.970   1.070   9.503+99.99+99.99    +0.048 C 
ATOM      2  C2  UNL     1       2.400   0.639   9.638 +2.53 -0.00    -0.062 A 
ATOM      3  C3  UNL     1       2.936  -0.324   8.777+99.99 +0.00    +0.007 A 
ATOM      4  C4  UNL     1       4.277  -0.704   8.883+99.99 +0.00    +0.007 A 
ATOM      5  C5  UNL     1       5.108  -0.117   9.844+99.99 -0.00    -0.058 A 
ATOM      6  C6  UNL     1       4.573   0.855  10.698+99.99 +0.00    +0.007 A 
ATOM      7  C7  UNL     1       3.233   1.235  10.592+99.99 +0.00    +0.007 A 
ATOM      8  C8  UNL     1       6.559  -0.519   9.952+99.99 +0.00    +0.039 C 
ATOM      9  C9  UNL     1       7.537   0.579   9.525+17.53 +0.00    +0.014 C 
ATOM     10  C10 UNL     1       7.414   0.945   8.046+99.99 +0.00    +0.103 C 
ATOM     11  C11 UNL     1       8.458   1.958   7.621+21.93 +0.00    +0.217 C 
ATOM     12  C12 UNL     1       9.219   3.315   5.705 -0.35 +0.00    +0.142 C 
ATOM     13  C13 UNL     1       8.905   4.749   6.153 -0.32 +0.00    +0.142 C 
ATOM     14  C14 UNL     1       9.733   6.116   4.270 -0.18 +0.00    +0.240 C 
ATOM     15  C15 UNL     1      10.811   7.122   3.818 -0.31 +0.00    +0.176 C 
ATOM     16  C16 UNL     1      12.241   6.564   3.911 -0.38 +0.00    +0.035 C 
ATOM     17  C17 UNL     1      12.484   5.182   3.290+47.83 +0.00    +0.004 C 
ATOM     18  C18 UNL     1      12.282   5.056   1.776+56.56 +0.00    +0.020 C 
ATOM     19  C19 UNL     1      13.151   5.983   0.925 +3.62 +0.00    +0.123 C 
ATOM     20  C20 UNL     1      15.262   4.743   0.608+99.99 +0.00    +0.251 C 
ATOM     21  C21 UNL     1      16.704   4.638   0.970+99.99 +0.00    +0.032 A 
ATOM     22  C22 UNL     1      17.298   3.369   0.967+99.99 +0.00    +0.018 A 
ATOM     23  C23 UNL     1      18.649   3.224   1.293+99.99 +0.00    +0.018 A 
ATOM     24  C24 UNL     1      19.418   4.345   1.625+99.99 +0.00    +0.032 A 
ATOM     25  C25 UNL     1      18.834   5.618   1.599+99.99 +0.00    +0.018 A 
ATOM     26  C26 UNL     1      17.480   5.764   1.273+49.33 +0.00    +0.018 A 
ATOM     27  C27 UNL     1      20.857   4.143   1.953+99.99 +0.00    +0.251 C 
ATOM     28  C28 UNL     1      22.802   4.933   3.247+99.99 +0.00    +0.123 C 
ATOM     29  C29 UNL     1      23.825   5.272   2.161+21.46 +0.00    +0.022 C 
ATOM     30  C30 UNL     1      23.788   6.752   1.753 +0.48 +0.00    +0.037 C 
ATOM     31  C31 UNL     1      24.751   7.066   0.590 -0.36 +0.00    +0.178 C 
ATOM     32  C32 UNL     1      26.100   7.700   1.024 -0.30 +0.00    +0.241 C 
ATOM     33  C33 UNL     1      28.103   7.473   2.481 +0.33 +0.00    +0.176 C 
ATOM     34  C34 UNL     1      28.330   6.985   3.921+99.99 +0.00    +0.036 C 
ATOM     35  C35 UNL     1      27.311   7.491   4.950+99.99 +0.00    +0.022 C 
ATOM     36  C36 UNL     1      27.238   9.011   5.116+99.99 +0.00    +0.122 C 
ATOM     37  C37 UNL     1      28.665  10.827   5.986+87.74 +0.00    +0.143 C 
ATOM     38  C38 UNL     1      29.256   6.970   1.573 -0.19 +0.00    +0.241 C 
ATOM     39  C39 UNL     1      29.887   6.398  -0.768 -0.11 +0.00    +0.180 C 
ATOM     40  C40 UNL     1      29.079   5.746  -1.905 -0.19 +0.00    +0.073 C 
ATOM     41  C41 UNL     1      27.974   4.799  -1.468 -0.22 -0.00    -0.055 A 
ATOM     42  C42 UNL     1      28.044   4.041  -0.288 -0.29 +0.00    +0.019 A 
ATOM     43  C43 UNL     1      26.975   3.230   0.130+40.60 -0.00    -0.025 A 
ATOM     44  C44 UNL     1      27.025   2.521   1.342+99.99 +0.00    +0.012 A 
ATOM     45  C45 UNL     1      25.942   1.744   1.756+99.99 +0.00    +0.001 A 
ATOM     46  C46 UNL     1      24.803   1.662   0.964+99.99 +0.00    +0.001 A 
ATOM     47  C47 UNL     1      24.745   2.346  -0.251+45.64 +0.00    +0.012 A 
ATOM     48  C48 UNL     1      25.823   3.136  -0.680+99.99 -0.00    -0.026 A 
ATOM     49  C49 UNL     1      25.781   3.837  -1.892 -0.40 +0.00    +0.013 A 
ATOM     50  C50 UNL     1      26.843   4.657  -2.281 +0.06 +0.00    +0.008 A 
ATOM     51  C51 UNL     1      30.904   7.425  -1.305 -0.08 +0.00    +0.241 C 
ATOM     52  C52 UNL     1      32.741   8.927  -0.634+99.99+99.99    +0.192 C 
ATOM     53  C53 UNL     1      32.357  10.248  -1.266 -0.16 +0.00    +0.250 C 
ATOM     54  C54 UNL     1      24.032   7.191  -1.788 -0.43 +0.00    +0.153 C 
ATOM     55  C55 UNL     1      23.538   9.117  -0.381 -0.11 +0.00    +0.253 C 
ATOM     56  C56 UNL     1      23.619   9.885   0.959 -0.01 +0.00    +0.313 C 
ATOM     57  C57 UNL     1      24.225  11.276   0.684+22.05 +0.00    +0.083 C 
ATOM     58  C58 UNL     1      24.766  11.939   1.930+78.43 -0.00    -0.054 A 
ATOM     59  C59 UNL     1      23.905  12.606   2.815+99.99 +0.00    +0.028 A 
ATOM     60  C60 UNL     1      24.403  13.191   3.984+22.94 +0.00    +0.040 A 
ATOM     61  C61 UNL     1      25.765  13.105   4.274+99.99 +0.00    +0.082 A 
ATOM     62  C62 UNL     1      26.631  12.464   3.391+99.99 +0.00    +0.038 A 
ATOM     63  C63 UNL     1      26.134  11.877   2.226+99.99 +0.00    +0.010 A 
ATOM     64  C64 UNL     1      10.796   8.844   2.029+99.99 +0.00    +0.246 C 
ATOM     65  C65 UNL     1      10.216   9.175   0.647+99.99 +0.00    +0.374 C 
ATOM     66  C66 UNL     1       8.737   8.295  -1.075 +0.15 +0.00    +0.303 C 
ATOM     67  C67 UNL     1       8.458   9.608  -1.873+99.99 +0.00    +0.303 C 
ATOM     68  C68 UNL     1       6.263   8.961  -2.802+99.99 +0.00    +0.303 C 
ATOM     69  C69 UNL     1       5.057   9.942  -2.897+99.99 +0.00    +0.303 C 
ATOM     70  C70 UNL     1       5.190  10.655  -0.498+99.99 +0.00    +0.303 C 
ATOM     71  C71 UNL     1       4.542   9.420   0.170+99.99 +0.00    +0.305 C 
ATOM     72  C72 UNL     1       6.493   8.183   1.099 +0.08 +0.00    +0.305 C 
ATOM     73  C73 UNL     1       7.826   8.993   1.136+75.70 +0.00    +0.303 C 
ATOM     74  C74 UNL     1       5.273   9.835   2.479+99.99 +0.00    +0.449 C 
ATOM     75  C75 UNL     1       5.786  10.016   4.740+99.99 +0.00    +0.399 C 
ATOM     76  C76 UNL     1       3.486  11.571  -1.964+35.77 +0.00    +0.381 C 
ATOM     77  C77 UNL     1       3.231  12.246  -3.302+99.99 +0.00    +0.169 C 
ATOM     78  C78 UNL     1       8.267   8.731  -4.159+99.99 +0.00    +0.381 C 
ATOM     79  C79 UNL     1       9.548   9.389  -4.647+99.99+99.99    +0.169 C 
ATOM     80  O1  UNL     1       9.329   2.401   8.361 -0.31 -0.00    -0.274 OA
ATOM     81  O2  UNL     1       8.859   5.700   3.510 -0.13 -0.00    -0.271 OA
ATOM     82  O3  UNL     1      14.750   3.898  -0.116+99.99 -0.00    -0.268 OA
ATOM     83  O4  UNL     1      21.461   3.174   1.507 +3.71 -0.00    -0.268 OA
ATOM     84  O5  UNL     1      26.561   8.724   0.524 -0.25 -0.00    -0.271 OA
ATOM     85  O6  UNL     1      30.363   6.645   1.998 -0.29 -0.00    -0.271 OA
ATOM     86  O7  UNL     1      31.171   7.555  -2.497 -0.08 -0.00    -0.271 OA
ATOM     87  O8  UNL     1      33.111  11.219  -1.294+99.99+99.99    -0.305 OA
ATOM     88  O9  UNL     1      22.921   9.633  -1.320 +2.28 -0.00    -0.271 OA
ATOM     89  O10 UNL     1      26.268  13.635   5.431+99.99 -0.00    -0.359 OA
ATOM     90  O11 UNL     1      11.523   9.616   2.647+99.99 -0.00    -0.272 OA
ATOM     91  O12 UNL     1       5.731   9.192   3.670+99.99 -0.00    -0.298 OA
ATOM     92  O13 UNL     1       5.505  11.203   4.760+99.99 -0.00    -0.276 OA
ATOM     93  O14 UNL     1       2.725  11.726  -4.286+99.99 -0.00    -0.649 OA
ATOM     94  O15 UNL     1       3.650  13.527  -3.345+11.88 -0.00    -0.775 OA
ATOM     95  O16 UNL     1      10.672   9.181  -4.215 -0.05 -0.00    -0.649 OA
ATOM     96  O17 UNL     1       9.347  10.293  -5.628+99.99+99.99    -0.775 OA
ATOM     97  N1  UNL     1       8.332   2.336   6.301+15.82 -0.00    -0.360 N 
ATOM     98  N2  UNL     1       9.820   5.723   5.587 -0.07 -0.00    -0.358 N 
ATOM     99  N3  UNL     1      14.570   5.801   1.156+99.99 -0.00    -0.357 N 
ATOM    100  N4  UNL     1      21.433   5.078   2.792+99.99 -0.00    -0.357 N 
ATOM    101  N5  UNL     1      26.800   7.005   1.988 +0.08 -0.00    -0.346 N 
ATOM    102  N6  UNL     1      28.506   9.546   5.586+99.99 -0.00    -0.367 N 
ATOM    103  N7  UNL     1      27.779  11.647   6.414+99.99 -0.00    -0.376 N 
ATOM    104  H7  UNL     1      27.939  12.626   6.650 +1.51 +0.00    +0.158 HD
ATOM    105  N8  UNL     1      29.946  11.227   5.884+37.32 -0.00    -0.274 NA
ATOM    106  N9  UNL     1      29.003   7.017   0.224 -0.09 -0.00    -0.346 N 
ATOM    107  N10 UNL     1      31.573   8.127  -0.320 -0.03 -0.00    -0.353 N 
ATOM    108  N11 UNL     1      24.100   7.848  -0.490 -0.21 -0.00    -0.341 N 
ATOM    109  N12 UNL     1      22.240   9.983   1.510 -0.31 +0.00    +0.092 N 
ATOM    110  N13 UNL     1      10.485   7.583   2.479 -0.10 -0.00    -0.346 N 
ATOM    111  N14 UNL     1       8.968   8.404   0.386 +3.26 +0.00    +0.100 N 
ATOM    112  N15 UNL     1       7.608   9.510  -3.084+99.99 +0.00    +0.101 N 
ATOM    113  N16 UNL     1       4.849  10.999  -1.883+78.90 +0.00    +0.101 N 
ATOM    114  N17 UNL     1       5.221   8.887   1.370+93.57 +0.00    +0.115 N 
ATOM    115  I1  UNL     1      23.055  14.139   5.269+99.99 -0.00    -0.042 I 
ATOM    116  H92 UNL     1      27.045  13.095   5.711+99.99 +0.00    +0.217 HD
ATOM    117  H93 UNL     1       3.496  13.799  -4.272 +0.73 +0.00    +0.167 HD
ATOM    118  H94 UNL     1      10.235  10.672  -5.791+99.99+99.99    +0.167 HD
ATOM    119  H95 UNL     1       7.532   2.019   5.766+99.99 +0.00    +0.162 HD
ATOM    120  H96 UNL     1      10.583   6.049   6.167 +0.11 +0.00    +0.162 HD
ATOM    121  H97 UNL     1      14.998   6.359   1.882+99.99 +0.00    +0.162 HD
ATOM    122  H98 UNL     1      20.832   5.710   3.303 +2.27 +0.00    +0.162 HD
ATOM    123  H99 UNL     1      26.645   6.003   2.020 +0.23 +0.00    +0.163 HD
ATOM    124  HA0 UNL     1      29.293   9.261   5.012 +3.32 +0.00    +0.162 HD
ATOM    125  HA1 UNL     1      26.881  11.154   6.479+99.99 +0.00    +0.158 HD
ATOM    126  HA2 UNL     1      30.592  10.587   6.330 +3.65 +0.00    +0.127 HD
ATOM    127  HA3 UNL     1      30.047  12.147   6.304 +0.17 +0.00    +0.127 HD
ATOM    128  HA4 UNL     1      28.268   7.643  -0.101 +0.09 +0.00    +0.163 HD
ATOM    129  HA5 UNL     1      31.490   7.758   0.627 +0.06 +0.00    +0.162 HD
ATOM    130  HA6 UNL     1      21.692  10.532   0.840 +0.27 +0.00    +0.313 HD
ATOM    131  HA7 UNL     1      21.814   9.058   1.487 +0.24 +0.00    +0.313 HD
ATOM    132  HA8 UNL     1       9.728   7.111   1.982 +0.09 +0.00    +0.163 HD
ENDROOT
TORSDOF 50
TER
