USER    Run = 1
USER    DPF = ligand_350_receptor.dpf
USER  
USER    Estimated Free Energy of Binding    = +242.62 kcal/mol  [=(1)+(2)+(3)-(4)]
USER    
USER    (1) Final Intermolecular Energy     = +241.43 kcal/mol
USER        vdW + Hbond + desolv Energy     = +241.43 kcal/mol
USER        Electrostatic Energy            =   +0.00 kcal/mol
USER    (2) Final Total Internal Energy     = +523.64 kcal/mol
USER    (3) Torsional Free Energy           =   +1.19 kcal/mol
USER    (4) Unbound System's Energy  [=(2)] = +523.64 kcal/mol
USER    
USER    
USER    NEWDPF move ligand_350.pdbqt
USER    NEWDPF about 0.000000 0.000000 0.000000
USER    NEWDPF tran0 2.860367 8.838824 0.780539
USER    NEWDPF quaternion0 0.327322 0.563462 -0.649180 -0.392348
USER    NEWDPF axisangle0 0.355855 0.612581 -0.705771 -133.798611
USER    NEWDPF quat0 0.355855 0.612581 -0.705771 -133.798611
USER    NEWDPF dihe0 -123.22 -179.84 127.97 173.66 16.52 152.45 -173.52 37.85 180.00 114.65 106.71 -180.00 -57.29 -28.03 -150.32 19.14 3.55 -67.42 134.01 75.81 -158.52 102.58 -20.56 43.03 67.24 
USER  keepresnum = 1 
USER  
REMARK  25 active torsions:
REMARK  status: ('A' for Active; 'I' for Inactive)
REMARK    1  A    between atoms: C4_4  and  C5_5 
REMARK       I    between atoms: C5_5  and  N3_54 
REMARK    2  A    between atoms: C6_6  and  N3_54 
REMARK    3  A    between atoms: C8_8  and  C10_10 
REMARK       I    between atoms: C10_10  and  N5_56 
REMARK    4  A    between atoms: C11_11  and  C12_12 
REMARK    5  A    between atoms: C11_11  and  N5_56 
REMARK    6  A    between atoms: C12_12  and  C13_13 
REMARK    7  A    between atoms: C13_13  and  C14_14 
REMARK       I    between atoms: C14_14  and  N6_57 
REMARK    8  A    between atoms: C15_15  and  N6_57 
REMARK    9  A    between atoms: C17_17  and  C19_19 
REMARK       I    between atoms: C19_19  and  N8_59 
REMARK   10  A    between atoms: C20_20  and  N8_59 
REMARK   11  A    between atoms: C22_22  and  C24_24 
REMARK       I    between atoms: C24_24  and  N10_61 
REMARK   12  A    between atoms: C25_25  and  C26_26 
REMARK   13  A    between atoms: C25_25  and  N10_61 
REMARK   14  A    between atoms: C26_26  and  C27_27 
REMARK       I    between atoms: C27_27  and  N11_62 
REMARK   15  A    between atoms: C28_28  and  N11_62 
REMARK   16  A    between atoms: C30_30  and  C32_32 
REMARK       I    between atoms: C32_32  and  N13_64 
REMARK   17  A    between atoms: C33_33  and  N13_64 
REMARK   18  A    between atoms: C35_35  and  C37_37 
REMARK       I    between atoms: C37_37  and  N15_66 
REMARK   19  A    between atoms: C38_38  and  C39_39 
REMARK   20  A    between atoms: C38_38  and  N15_66 
REMARK   21  A    between atoms: C39_39  and  C40_40 
REMARK       I    between atoms: C40_40  and  N16_67 
REMARK   22  A    between atoms: C41_41  and  C42_42 
REMARK   23  A    between atoms: C41_41  and  N16_67 
REMARK   24  A    between atoms: C42_42  and  C43_43 
REMARK   25  A    between atoms: C43_43  and  N17_68 
USER                              x       y       z     vdW  Elec       q    Type
USER                           _______ _______ _______ _____ _____    ______ ____
ROOT
ATOM      1  C20 UNL     1       6.212   4.284   1.765 -0.10 +0.00    +0.053 A 
ATOM      2  C21 UNL     1       4.967   3.836   2.140 -0.08 +0.00    +0.120 A 
ATOM      3  C22 UNL     1       5.647   2.521   0.438 -0.07 +0.00    +0.104 A 
ATOM      4  C23 UNL     1       6.647   3.445   0.716 -0.07 +0.00    +0.066 A 
ATOM      5  C48 UNL     1       3.464   1.942   1.566 -0.11 +0.00    +0.156 C 
ATOM      6  N9  UNL     1       4.645   2.751   1.360 -0.01 -0.00    -0.354 N 
ENDROOT
BRANCH   3   7
ATOM      7  C24 UNL     1       5.689   1.497  -0.584 -0.08 +0.00    +0.268 C 
ATOM      8  N10 UNL     1       5.542   1.967  -1.871 -0.01 -0.00    -0.355 N 
ATOM      9  H61 UNL     1       5.708   2.956  -2.024 +0.04 +0.00    +0.162 HD
ATOM     10  O5  UNL     1       5.904   0.312  -0.347 +0.21 -0.00    -0.266 OA
BRANCH   8  11
ATOM     11  C25 UNL     1       5.739   1.102  -3.018 -0.09 +0.00    +0.132 C 
BRANCH  11  12
ATOM     12  C26 UNL     1       7.136   1.226  -3.617 -0.01 +0.00    +0.123 C 
BRANCH  12  13
ATOM     13  C27 UNL     1       8.192   1.480  -2.557 -0.04 +0.00    +0.223 C 
ATOM     14  N11 UNL     1       7.730   1.161  -1.292 -0.02 -0.00    -0.326 N 
ATOM     15  H62 UNL     1       6.770   0.859  -1.184 +0.05 +0.00    +0.169 HD
ATOM     16  O6  UNL     1       9.310   1.909  -2.833 +0.33 -0.00    -0.273 OA
BRANCH  14  17
ATOM     17  C28 UNL     1       8.470   1.266  -0.130 -0.18 +0.00    +0.052 A 
ATOM     18  C29 UNL     1       9.748   0.780  -0.014 -0.25 +0.00    +0.120 A 
ATOM     19  N12 UNL     1      10.197   1.048   1.255 -0.18 -0.00    -0.354 N 
ATOM     20  C30 UNL     1       9.219   1.709   1.983 +0.52 +0.00    +0.105 A 
ATOM     21  C47 UNL     1      11.508   0.669   1.743 +0.98 +0.00    +0.156 C 
ATOM     22  C31 UNL     1       8.140   1.852   1.113 -0.21 +0.00    +0.066 A 
BRANCH  20  23
ATOM     23  C32 UNL     1       9.373   2.147   3.371+18.80 +0.00    +0.273 C 
ATOM     24  N13 UNL     1       8.188   2.519   3.980 +0.20 -0.00    -0.320 N 
ATOM     25  H63 UNL     1       7.332   2.428   3.455 +0.02 +0.00    +0.169 HD
ATOM     26  O7  UNL     1      10.470   2.163   3.924 +1.14 -0.00    -0.266 OA
BRANCH  24  27
ATOM     27  C33 UNL     1       8.046   2.982   5.275 +1.56 +0.00    +0.053 A 
ATOM     28  C34 UNL     1       8.420   2.373   6.448+19.85 +0.00    +0.120 A 
ATOM     29  N14 UNL     1       8.061   3.186   7.494 -0.16 -0.00    -0.354 N 
ATOM     30  C35 UNL     1       7.522   4.362   7.013 -0.41 +0.00    +0.104 A 
ATOM     31  C46 UNL     1       8.164   2.787   8.882 +0.39 +0.00    +0.156 C 
ATOM     32  C36 UNL     1       7.460   4.220   5.633 -0.30 +0.00    +0.066 A 
BRANCH  30  33
ATOM     33  C37 UNL     1       7.054   5.499   7.776 -0.06 +0.00    +0.268 C 
ATOM     34  N15 UNL     1       7.055   6.695   7.086 +9.66 -0.00    -0.355 N 
ATOM     35  H64 UNL     1       7.089   6.626   6.077 +0.23 +0.00    +0.162 HD
ATOM     36  O8  UNL     1       6.635   5.413   8.927+37.91 -0.00    -0.266 OA
BRANCH  34  37
ATOM     37  C38 UNL     1       6.433   7.882   7.650+36.88 +0.00    +0.132 C 
BRANCH  37  38
ATOM     38  C39 UNL     1       5.144   8.278   6.936+12.79 +0.00    +0.122 C 
BRANCH  38  39
ATOM     39  C40 UNL     1       4.137   7.154   7.001 -0.19 +0.00    +0.219 C 
ATOM     40  N16 UNL     1       3.571   6.839   5.788 -0.05 -0.00    -0.361 N 
ATOM     41  H65 UNL     1       3.728   7.479   5.004 +0.07 +0.00    +0.162 HD
ATOM     42  O9  UNL     1       3.852   6.597   8.056 +0.42 -0.00    -0.274 OA
BRANCH  40  43
ATOM     43  C41 UNL     1       2.509   5.864   5.661 -0.13 +0.00    +0.124 C 
BRANCH  43  44
ATOM     44  C42 UNL     1       3.024   4.544   5.089 -0.15 +0.00    +0.050 C 
BRANCH  44  45
ATOM     45  C43 UNL     1       3.775   4.782   3.773 -0.09 +0.00    +0.273 C 
BRANCH  45  46
ATOM     46  N17 UNL     1       3.868   6.174   3.306 -0.20 +0.00    +0.080 N 
ATOM     47  C44 UNL     1       4.745   6.322   2.148 -0.05 +0.00    +0.309 C 
ATOM     48  C45 UNL     1       2.563   6.779   3.057 +1.09 +0.00    +0.309 C 
ENDBRANCH  45  46
ENDBRANCH  44  45
ENDBRANCH  43  44
ENDBRANCH  40  43
ENDBRANCH  38  39
ENDBRANCH  37  38
ENDBRANCH  34  37
ENDBRANCH  30  33
ENDBRANCH  24  27
ENDBRANCH  20  23
ENDBRANCH  14  17
ENDBRANCH  12  13
ENDBRANCH  11  12
ENDBRANCH   8  11
ENDBRANCH   3   7
BRANCH   1  49
ATOM     49  N8  UNL     1       6.831   5.357   2.376 -0.04 -0.00    -0.320 N 
ATOM     50  C19 UNL     1       7.488   6.384   1.724 -0.17 +0.00    +0.273 C 
ATOM     51  O4  UNL     1       7.570   6.482   0.502 -0.18 -0.00    -0.266 OA
ATOM     52  H60 UNL     1       6.767   5.388   3.383 +0.08 +0.00    +0.169 HD
BRANCH  50  53
ATOM     53  C17 UNL     1       8.080   7.380   2.618 -0.31 +0.00    +0.105 A 
ATOM     54  C18 UNL     1       9.311   7.381   3.266 -0.33 +0.00    +0.066 A 
ATOM     55  C15 UNL     1       9.433   8.568   4.025 +0.28 +0.00    +0.052 A 
ATOM     56  C16 UNL     1       8.279   9.286   3.827+30.03 +0.00    +0.120 A 
ATOM     57  N7  UNL     1       7.470   8.572   2.977 +1.05 -0.00    -0.354 N 
ATOM     58  C49 UNL     1       6.162   9.021   2.545+10.73 +0.00    +0.156 C 
BRANCH  55  59
ATOM     59  N6  UNL     1      10.464   9.011   4.830 +0.10 -0.00    -0.326 N 
ATOM     60  C14 UNL     1      10.827   8.438   6.038 -0.01 +0.00    +0.222 C 
ATOM     61  O3  UNL     1      10.301   7.461   6.561 +0.01 -0.00    -0.273 OA
ATOM     62  H59 UNL     1      10.961   9.830   4.507 +0.55 +0.00    +0.169 HD
BRANCH  60  63
ATOM     63  C13 UNL     1      12.024   9.146   6.654 +3.18 +0.00    +0.105 C 
BRANCH  63  64
ATOM     64  C12 UNL     1      12.556   8.420   7.889 -0.37 +0.00    +0.029 C 
BRANCH  64  65
ATOM     65  C11 UNL     1      12.159   6.946   7.929 +0.33 +0.00    +0.123 C 
BRANCH  65  66
ATOM     66  N5  UNL     1      11.988   6.355   6.618 -0.10 -0.00    -0.356 N 
ATOM     67  C10 UNL     1      10.738   6.077   6.105 -0.19 +0.00    +0.268 C 
ATOM     68  O2  UNL     1       9.700   6.357   6.692 -0.10 -0.00    -0.266 OA
ATOM     69  H58 UNL     1      12.779   5.903   6.184 +0.12 +0.00    +0.162 HD
BRANCH  67  70
ATOM     70  C8  UNL     1      10.779   5.374   4.843 -0.24 +0.00    +0.104 A 
ATOM     71  C9  UNL     1      10.204   5.778   3.646 -0.22 +0.00    +0.066 A 
ATOM     72  C6  UNL     1      10.458   4.787   2.670 +3.11 +0.00    +0.053 A 
ATOM     73  C7  UNL     1      11.219   3.815   3.275+54.22 +0.00    +0.120 A 
ATOM     74  N4  UNL     1      11.439   4.191   4.578 +0.06 -0.00    -0.354 N 
ATOM     75  C50 UNL     1      12.308   3.479   5.490 +0.34 +0.00    +0.156 C 
BRANCH  72  76
ATOM     76  N3  UNL     1      10.076   4.720   1.349 +1.17 -0.00    -0.319 N 
ATOM     77  C5  UNL     1       9.984   5.784   0.472 -0.13 +0.00    +0.290 C 
ATOM     78  O1  UNL     1      10.210   6.958   0.748 -0.23 -0.00    -0.264 OA
ATOM     79  H57 UNL     1       9.839   3.812   0.958 -0.43 +0.00    +0.169 HD
BRANCH  77  80
ATOM     80  C4  UNL     1       9.568   5.344  -0.855 -0.11 +0.00    +0.176 A 
ATOM     81  N1  UNL     1       9.699   6.040  -2.034 -0.06 -0.00    -0.342 N 
ATOM     82  C1  UNL     1      10.283   7.349  -2.193 -0.30 +0.00    +0.157 C 
ATOM     83  C2  UNL     1       9.182   5.270  -3.040 -0.16 +0.00    +0.109 A 
ATOM     84  C3  UNL     1       8.752   4.119  -2.426 -0.12 +0.00    +0.107 A 
ATOM     85  N2  UNL     1       8.990   4.169  -1.077 -0.02 -0.00    -0.346 N 
ATOM     86  H2  UNL     1       8.770   3.451  -0.386 +0.07 +0.00    +0.167 HD
ENDBRANCH  77  80
ENDBRANCH  72  76
ENDBRANCH  67  70
ENDBRANCH  65  66
ENDBRANCH  64  65
ENDBRANCH  63  64
ENDBRANCH  60  63
ENDBRANCH  55  59
ENDBRANCH  50  53
ENDBRANCH   1  49
TORSDOF 25
TER
