USER    Run = 1
USER    DPF = ligand_56_receptor.dpf
USER  
USER    Estimated Free Energy of Binding    =   -9.63 kcal/mol  [=(1)+(2)+(3)-(4)]
USER    Estimated Inhibition Constant, Ki   =   87.64 nM (nanomolar)  [Temperature = 298.15 K]
USER    
USER    (1) Final Intermolecular Energy     =  -10.82 kcal/mol
USER        vdW + Hbond + desolv Energy     =  -10.82 kcal/mol
USER        Electrostatic Energy            =   +0.00 kcal/mol
USER    (2) Final Total Internal Energy     =   -1.61 kcal/mol
USER    (3) Torsional Free Energy           =   +1.19 kcal/mol
USER    (4) Unbound System's Energy  [=(2)] =   -1.61 kcal/mol
USER    
USER    
USER    NEWDPF move ligand_56.pdbqt
USER    NEWDPF about 0.000000 0.000000 0.000000
USER    NEWDPF tran0 16.719166 8.466149 5.472442
USER    NEWDPF quaternion0 0.033087 -0.833728 -0.209334 -0.509884
USER    NEWDPF axisangle0 0.038462 -0.969177 -0.243343 -118.687763
USER    NEWDPF quat0 0.038462 -0.969177 -0.243343 -118.687763
USER    NEWDPF dihe0 105.31 -132.83 61.09 -23.39 -149.46 -29.92 -93.74 163.21 158.85 179.10 -169.26 -174.63 
USER  keepresnum = 1 
USER  
REMARK  12 active torsions:
REMARK  status: ('A' for Active; 'I' for Inactive)
REMARK    1  A    between atoms: C3_3  and  C23_23 
REMARK    2  A    between atoms: C5_5  and  C8_8 
REMARK       I    between atoms: C8_8  and  N1_33 
REMARK    3  A    between atoms: C9_9  and  N1_33 
REMARK    4  A    between atoms: C11_11  and  C22_22 
REMARK    5  A    between atoms: C12_12  and  C15_15 
REMARK    6  A    between atoms: C15_15  and  N2_34 
REMARK    7  A    between atoms: C20_20  and  C21_21 
REMARK    8  A    between atoms: C20_20  and  N3_35 
REMARK    9  A    between atoms: C21_21  and  O2_32 
REMARK   10  A    between atoms: C24_24  and  C25_25 
REMARK   11  A    between atoms: C27_27  and  C30_30 
REMARK   12  A    between atoms: C28_28  and  N5_38 
USER                              x       y       z     vdW  Elec       q    Type
USER                           _______ _______ _______ _____ _____    ______ ____
ROOT
ATOM      1  C8  UNL     1      13.558   7.730   4.629 -0.34 +0.00    +0.256 C 
ATOM      2  O1  UNL     1      12.935   8.517   3.928 -0.30 -0.00    -0.267 OA
ATOM      3  N1  UNL     1      14.908   7.435   4.553 -0.28 -0.00    -0.323 N 
ATOM      4  H28 UNL     1      15.240   6.663   5.114 +0.10 +0.00    +0.169 HD
ENDROOT
BRANCH   1   5
ATOM      5  C5  UNL     1      12.808   6.962   5.660 -0.39 +0.00    +0.033 A 
ATOM      6  C4  UNL     1      11.550   6.407   5.391 -0.31 +0.00    +0.038 A 
ATOM      7  C3  UNL     1      10.874   5.685   6.383 -0.32 +0.00    +0.025 A 
ATOM      8  C2  UNL     1      11.454   5.508   7.653 -0.35 -0.00    -0.043 A 
ATOM      9  C1  UNL     1      10.755   4.736   8.740 -0.11 +0.00    +0.049 C 
ATOM     10  C7  UNL     1      12.723   6.051   7.903 -0.49 +0.00    +0.009 A 
ATOM     11  C6  UNL     1      13.398   6.768   6.912 -0.46 +0.00    +0.017 A 
BRANCH   7  12
ATOM     12  C23 UNL     1       9.591   5.130   6.065 -0.34 -0.00    -0.061 C 
ATOM     13  C24 UNL     1       8.516   4.665   5.798 -0.36 -0.00    -0.060 C 
BRANCH  13  14
ATOM     14  C25 UNL     1       7.238   4.117   5.475 -0.30 +0.00    +0.034 A 
ATOM     15  C26 UNL     1       7.053   3.366   4.319 -0.20 +0.00    +0.038 A 
ATOM     16  C27 UNL     1       5.783   2.850   4.038 -0.20 +0.00    +0.018 A 
ATOM     17  C28 UNL     1       4.726   3.106   4.923 -0.22 +0.00    +0.089 A 
ATOM     18  N4  UNL     1       4.908   3.822   6.053 -0.18 -0.00    -0.355 N 
ATOM     19  C29 UNL     1       6.144   4.316   6.302 -0.35 +0.00    +0.110 A 
ATOM     20  H4  UNL     1       4.137   3.985   6.701 +0.07 +0.00    +0.166 HD
BRANCH  16  21
ATOM     21  C30 UNL     1       5.622   2.077   2.791 -0.25 +0.00    +0.095 C 
ATOM     22  N6  UNL     1       4.626   1.279   2.575 -0.09 -0.00    -0.407 N 
ATOM     23  H31 UNL     1       4.717   0.857   1.641 +0.04 +0.00    +0.155 HD
ATOM     24  H6  UNL     1       3.865   1.096   3.230 +0.06 +0.00    +0.155 HD
ENDBRANCH  16  21
BRANCH  17  25
ATOM     25  N5  UNL     1       3.450   2.549   4.745 -0.11 -0.00    -0.288 NA
ATOM     26  H29 UNL     1       2.844   2.944   5.471 +0.05 +0.00    +0.125 HD
ATOM     27  H30 UNL     1       3.056   2.934   3.890 +0.04 +0.00    +0.125 HD
ENDBRANCH  17  25
ENDBRANCH  13  14
ENDBRANCH   7  12
ENDBRANCH   1   5
BRANCH   3  28
ATOM     28  C9  UNL     1      15.865   8.034   3.708 -0.49 +0.00    +0.035 A 
ATOM     29  C10 UNL     1      15.505   9.231   3.077 -0.39 +0.00    +0.046 A 
ATOM     30  C11 UNL     1      16.389   9.914   2.211 -0.43 +0.00    +0.058 A 
ATOM     31  C12 UNL     1      17.660   9.356   1.959 -0.45 -0.00    -0.015 A 
ATOM     32  C13 UNL     1      18.015   8.156   2.599 -0.28 +0.00    +0.012 A 
ATOM     33  C14 UNL     1      17.127   7.503   3.460 -0.42 +0.00    +0.030 A 
BRANCH  30  34
ATOM     34  C22 UNL     1      15.914  11.202   1.566 -0.21 +0.00    +0.418 C 
ATOM     35  F1  UNL     1      16.614  12.297   1.968 -0.17 -0.00    -0.166 F 
ATOM     36  F2  UNL     1      14.594  11.475   1.765 -0.03 -0.00    -0.166 F 
ATOM     37  F3  UNL     1      16.057  11.173   0.204 -0.09 -0.00    -0.166 F 
ENDBRANCH  30  34
BRANCH  31  38
ATOM     38  C15 UNL     1      18.663  10.003   1.021 -0.25 +0.00    +0.311 C 
BRANCH  38  39
ATOM     39  N2  UNL     1      19.742  10.691   1.734 -0.42 +0.00    +0.096 N 
ATOM     40  C16 UNL     1      20.480  11.654   0.894 -0.17 +0.00    +0.303 C 
ATOM     41  C17 UNL     1      21.511  11.018  -0.072 -0.07 +0.00    +0.302 C 
ATOM     42  N3  UNL     1      22.400   9.995   0.528 -0.42 +0.00    +0.093 N 
ATOM     43  C18 UNL     1      22.160   9.893   1.980 -0.07 +0.00    +0.302 C 
ATOM     44  C19 UNL     1      20.671   9.718   2.359 -0.24 +0.00    +0.303 C 
BRANCH  42  45
ATOM     45  C20 UNL     1      22.285   8.714  -0.194 -0.10 +0.00    +0.298 C 
BRANCH  45  46
ATOM     46  C21 UNL     1      23.578   7.880  -0.263 -0.41 +0.00    +0.194 C 
BRANCH  46  47
ATOM     47  O2  UNL     1      23.303   6.479  -0.260 -0.28 -0.00    -0.399 OA
ATOM     48  H27 UNL     1      24.130   6.020  -0.484 +0.16 +0.00    +0.209 HD
ENDBRANCH  46  47
ENDBRANCH  45  46
ENDBRANCH  42  45
ENDBRANCH  38  39
ENDBRANCH  31  38
ENDBRANCH   3  28
TORSDOF 12
TER
