USER    Run = 1
USER    DPF = ligand_271_receptor.dpf
USER  
USER    Estimated Free Energy of Binding    =  +1.81e+003 kcal/mol  [=(1)+(2)+(3)-(4)]
USER    
USER    (1) Final Intermolecular Energy     =  +1.81e+003 kcal/mol
USER        vdW + Hbond + desolv Energy     =  +1.81e+003 kcal/mol
USER        Electrostatic Energy            =   +0.00 kcal/mol
USER    (2) Final Total Internal Energy     =   +8.55 kcal/mol
USER    (3) Torsional Free Energy           =   +1.19 kcal/mol
USER    (4) Unbound System's Energy  [=(2)] =   +8.55 kcal/mol
USER    
USER    
USER    NEWDPF move ligand_271.pdbqt
USER    NEWDPF about 0.000000 0.000000 0.000000
USER    NEWDPF tran0 18.772477 7.943501 2.498949
USER    NEWDPF quaternion0 -0.377548 -0.241539 -0.049301 -0.892572
USER    NEWDPF axisangle0 -0.837314 -0.535678 -0.109338 -53.603389
USER    NEWDPF quat0 -0.837314 -0.535678 -0.109338 -53.603389
USER    NEWDPF dihe0 -143.61 179.77 54.01 -145.70 179.98 180.00 143.41 65.29 -180.00 -14.94 -48.83 -18.42 -116.31 -93.01 59.03 -55.51 -16.16 180.00 83.27 
USER  keepresnum = 1 
USER  
REMARK  19 active torsions:
REMARK  status: ('A' for Active; 'I' for Inactive)
REMARK    1  A    between atoms: C2_2  and  O1_63 
REMARK    2  A    between atoms: C3_3  and  C56_56 
REMARK    3  A    between atoms: C7_7  and  N1_71 
REMARK    4  A    between atoms: C8_8  and  N2_73 
REMARK    5  A    between atoms: C9_9  and  O7_69 
REMARK    6  A    between atoms: C10_10  and  C18_18 
REMARK       I    between atoms: C18_18  and  N3_75 
REMARK    7  A    between atoms: C19_19  and  N3_75 
REMARK    8  A    between atoms: C22_22  and  C25_25 
REMARK    9  A    between atoms: C28_28  and  N4_76 
REMARK   10  A    between atoms: C31_31  and  C32_32 
REMARK       I    between atoms: C31_31  and  N4_76 
REMARK   11  A    between atoms: C40_40  and  N5_77 
REMARK   12  A    between atoms: C41_41  and  O4_66 
REMARK   13  A    between atoms: C42_42  and  N6_79 
REMARK   14  A    between atoms: C46_46  and  C49_49 
REMARK   15  A    between atoms: C47_47  and  O5_67 
REMARK   16  A    between atoms: C49_49  and  O6_68 
REMARK   17  A    between atoms: C50_50  and  N7_81 
REMARK   18  A    between atoms: C56_56  and  O8_70 
REMARK   19  A    between atoms: C57_57  and  N8_83 
USER                              x       y       z     vdW  Elec       q    Type
USER                           _______ _______ _______ _____ _____    ______ ____
ROOT
ATOM      1  C19 UNL     1      15.765   7.563   1.547+35.43 +0.00    +0.035 A 
ATOM      2  C20 UNL     1      16.092   8.636   2.383 -0.46 +0.00    +0.030 A 
ATOM      3  C21 UNL     1      17.426   8.914   2.702 -0.51 +0.00    +0.014 A 
ATOM      4  C22 UNL     1      18.469   8.127   2.196 +2.95 -0.00    -0.026 A 
ATOM      5  C23 UNL     1      18.130   7.052   1.362+59.29 +0.00    +0.014 A 
ATOM      6  C24 UNL     1      16.794   6.771   1.043+31.35 +0.00    +0.030 A 
ENDROOT
BRANCH   4   7
ATOM      7  C25 UNL     1      19.873   8.418   2.528 +7.61 -0.00    -0.026 A 
ATOM      8  C26 UNL     1      20.358   9.735   2.534 -0.38 +0.00    +0.014 A 
ATOM      9  C27 UNL     1      21.693  10.018   2.850 -0.37 +0.00    +0.030 A 
ATOM     10  C28 UNL     1      22.579   8.990   3.166 -0.40 +0.00    +0.035 A 
ATOM     11  C29 UNL     1      22.108   7.674   3.161 +4.62 +0.00    +0.030 A 
ATOM     12  C30 UNL     1      20.773   7.392   2.848+99.99 +0.00    +0.014 A 
BRANCH  10  13
ATOM     13  N4  UNL     1      23.935   9.185   3.492 -0.29 -0.00    -0.323 N 
ATOM     14  C31 UNL     1      24.713  10.306   3.283 -0.37 +0.00    +0.259 C 
ATOM     15  O3  UNL     1      24.335  11.352   2.764 +7.71 -0.00    -0.267 OA
ATOM     16  H46 UNL     1      24.408   8.401   3.937 +0.12 +0.00    +0.169 HD
BRANCH  14  17
ATOM     17  C32 UNL     1      26.142  10.215   3.740+10.91 +0.00    +0.068 A 
ATOM     18  C33 UNL     1      26.564  11.137   4.711+99.99 +0.00    +0.032 A 
ATOM     19  C34 UNL     1      27.876  11.139   5.215+99.99 -0.00    -0.022 A 
ATOM     20  C35 UNL     1      28.263  12.070   6.193+99.26 +0.00    +0.012 A 
ATOM     21  C39 UNL     1      28.812  10.193   4.736+99.99 +0.00    +0.005 A 
ATOM     22  C36 UNL     1      29.560  12.075   6.704 +6.64 +0.00    +0.001 A 
ATOM     23  C37 UNL     1      30.488  11.149   6.246+12.12 +0.00    +0.001 A 
ATOM     24  C38 UNL     1      30.118  10.217   5.274+99.99 +0.00    +0.014 A 
ATOM     25  C40 UNL     1      28.405   9.270   3.743+44.49 +0.00    +0.093 A 
ATOM     26  C41 UNL     1      27.074   9.285   3.267 +0.77 +0.00    +0.110 A 
BRANCH  25  27
ATOM     27  N5  UNL     1      29.304   8.293   3.252 +0.35 -0.00    -0.297 N 
ATOM     28  N6  UNL     1      28.722   7.191   3.133 +3.10 -0.00    -0.297 N 
ATOM     29  H6  UNL     1      27.766   7.001   3.429 -0.00 +0.00    +0.187 HD
ATOM     30  H5  UNL     1      30.285   8.462   3.029 -0.08 +0.00    +0.187 HD
BRANCH  28  31
ATOM     31  C42 UNL     1      29.583   6.251   2.529 +7.07 +0.00    +0.082 A 
ATOM     32  C43 UNL     1      30.898   6.131   3.004 +2.68 +0.00    +0.034 A 
ATOM     33  C44 UNL     1      31.786   5.222   2.426 -0.21 +0.00    +0.003 A 
ATOM     34  C45 UNL     1      31.363   4.419   1.369 -0.21 +0.00    +0.019 A 
ATOM     35  C46 UNL     1      30.046   4.507   0.894 -0.21 +0.00    +0.050 A 
ATOM     36  C47 UNL     1      29.150   5.408   1.487 +3.31 +0.00    +0.110 A 
BRANCH  35  37
ATOM     37  C49 UNL     1      29.628   3.621  -0.208 -0.19 +0.00    +0.153 C 
ATOM     38  N7  UNL     1      30.335   3.380  -1.263 -0.01 -0.00    -0.336 N 
ATOM     39  H7  UNL     1      31.245   3.825  -1.376 +0.05 +0.00    +0.168 HD
BRANCH  37  40
ATOM     40  O6  UNL     1      28.406   3.104   0.035 -0.36 -0.00    -0.345 OA
ATOM     41  H42 UNL     1      27.831   3.765   0.451 +0.11 +0.00    +0.219 HD
ENDBRANCH  37  40
BRANCH  38  42
ATOM     42  C50 UNL     1      29.858   2.512  -2.248 -0.13 +0.00    +0.034 A 
ATOM     43  C51 UNL     1      30.625   1.419  -2.660 -0.13 +0.00    +0.029 A 
ATOM     44  C52 UNL     1      30.148   0.556  -3.649 -0.12 +0.00    +0.002 A 
ATOM     45  C53 UNL     1      28.897   0.777  -4.222 -0.13 +0.00    +0.000 A 
ATOM     46  C54 UNL     1      28.118   1.855  -3.803 -0.22 +0.00    +0.002 A 
ATOM     47  C55 UNL     1      28.597   2.716  -2.814 -0.19 +0.00    +0.029 A 
ENDBRANCH  38  42
ENDBRANCH  35  37
BRANCH  36  48
ATOM     48  O5  UNL     1      27.880   5.544   0.978 +0.26 -0.00    -0.353 OA
ATOM     49  C48 UNL     1      27.895   6.312  -0.228 -0.21 +0.00    +0.210 C 
ENDBRANCH  36  48
ENDBRANCH  28  31
ENDBRANCH  25  27
BRANCH  26  50
ATOM     50  O4  UNL     1      26.719   8.350   2.316 -0.31 -0.00    -0.357 OA
ATOM     51  H41 UNL     1      27.021   7.490   2.673 +0.11 +0.00    +0.217 HD
ENDBRANCH  26  50
ENDBRANCH  14  17
ENDBRANCH  10  13
ENDBRANCH   4   7
BRANCH   1  52
ATOM     52  N3  UNL     1      14.396   7.347   1.279+18.63 -0.00    -0.323 N 
ATOM     53  C18 UNL     1      13.320   8.019   1.829+56.76 +0.00    +0.259 C 
ATOM     54  O2  UNL     1      13.355   8.862   2.721 +6.50 -0.00    -0.267 OA
ATOM     55  H45 UNL     1      14.193   6.555   0.684 +1.94 +0.00    +0.169 HD
BRANCH  53  56
ATOM     56  C10 UNL     1      11.977   7.620   1.321 +5.31 +0.00    +0.068 A 
ATOM     57  C9  UNL     1      11.248   6.627   1.989 -0.28 +0.00    +0.110 A 
ATOM     58  C8  UNL     1       9.996   6.206   1.503 -0.21 +0.00    +0.093 A 
ATOM     59  C17 UNL     1       9.436   6.835   0.357 -0.29 +0.00    +0.005 A 
ATOM     60  C12 UNL     1      10.160   7.865  -0.292 +0.76 -0.00    -0.022 A 
ATOM     61  C16 UNL     1       8.171   6.484  -0.167 -0.26 +0.00    +0.014 A 
ATOM     62  C11 UNL     1      11.420   8.246   0.198+99.99 +0.00    +0.032 A 
ATOM     63  C13 UNL     1       9.613   8.501  -1.418 +0.11 +0.00    +0.012 A 
ATOM     64  C14 UNL     1       8.364   8.132  -1.915 +0.16 +0.00    +0.001 A 
ATOM     65  C15 UNL     1       7.642   7.124  -1.289 +3.13 +0.00    +0.001 A 
BRANCH  57  66
ATOM     66  O7  UNL     1      11.730   6.029   3.134 -0.16 -0.00    -0.357 OA
ATOM     67  H43 UNL     1      11.637   5.055   3.036 -0.29 +0.00    +0.217 HD
ENDBRANCH  57  66
BRANCH  58  68
ATOM     68  N2  UNL     1       9.284   5.197   2.189 -0.06 -0.00    -0.297 N 
ATOM     69  N1  UNL     1       8.154   5.049   1.669 -0.03 -0.00    -0.297 N 
ATOM     70  H1  UNL     1       7.803   5.579   0.871 +0.08 +0.00    +0.187 HD
ATOM     71  H2  UNL     1       9.638   4.669   2.986 -0.01 +0.00    +0.187 HD
BRANCH  69  72
ATOM     72  C7  UNL     1       7.440   4.044   2.348 -0.12 +0.00    +0.082 A 
ATOM     73  C2  UNL     1       6.634   4.346   3.462 -0.13 +0.00    +0.110 A 
ATOM     74  C3  UNL     1       5.956   3.315   4.132 -0.20 +0.00    +0.050 A 
ATOM     75  C4  UNL     1       6.065   1.991   3.678 -0.17 +0.00    +0.019 A 
ATOM     76  C5  UNL     1       6.832   1.695   2.554 -0.27 +0.00    +0.003 A 
ATOM     77  C6  UNL     1       7.509   2.717   1.891 -0.19 +0.00    +0.034 A 
BRANCH  73  78
ATOM     78  O1  UNL     1       6.597   5.624   3.971 -0.09 -0.00    -0.353 OA
ATOM     79  C1  UNL     1       7.338   5.714   5.189 -0.06 +0.00    +0.210 C 
ENDBRANCH  73  78
BRANCH  74  80
ATOM     80  C56 UNL     1       5.123   3.550   5.326 -0.25 +0.00    +0.153 C 
ATOM     81  N8  UNL     1       4.910   2.648   6.229 +0.31 -0.00    -0.336 N 
ATOM     82  H8  UNL     1       5.344   1.729   6.142 -0.47 +0.00    +0.168 HD
BRANCH  80  83
ATOM     83  O8  UNL     1       4.559   4.773   5.316 -0.10 -0.00    -0.345 OA
ATOM     84  H44 UNL     1       4.808   5.260   4.516 +0.09 +0.00    +0.219 HD
ENDBRANCH  80  83
BRANCH  81  85
ATOM     85  C57 UNL     1       4.088   2.930   7.325 +5.09 +0.00    +0.034 A 
ATOM     86  C58 UNL     1       3.889   4.250   7.737 -0.06 +0.00    +0.029 A 
ATOM     87  C59 UNL     1       3.064   4.533   8.825+10.20 +0.00    +0.002 A 
ATOM     88  C60 UNL     1       2.440   3.494   9.515+21.05 +0.00    +0.000 A 
ATOM     89  C61 UNL     1       2.648   2.172   9.120+12.24 +0.00    +0.002 A 
ATOM     90  C62 UNL     1       3.473   1.892   8.030 +9.64 +0.00    +0.029 A 
ENDBRANCH  81  85
ENDBRANCH  74  80
ENDBRANCH  69  72
ENDBRANCH  58  68
ENDBRANCH  53  56
ENDBRANCH   1  52
TORSDOF 19
TER
