USER    Run = 1
USER    DPF = ligand_512_receptor.dpf
USER  
USER    Estimated Free Energy of Binding    =  +8.50e+005 kcal/mol  [=(1)+(2)+(3)-(4)]
USER    
USER    (1) Final Intermolecular Energy     =  +8.50e+005 kcal/mol
USER        vdW + Hbond + desolv Energy     =  +6.29e+005 kcal/mol
USER        Electrostatic Energy            =  +2.21e+005 kcal/mol
USER    (2) Final Total Internal Energy     =   +0.00 kcal/mol
USER    (3) Torsional Free Energy           =   +1.19 kcal/mol
USER    (4) Unbound System's Energy  [=(2)] =   +0.00 kcal/mol
USER    
USER    
USER    NEWDPF move ligand_512.pdbqt
USER    NEWDPF about 0.000000 0.000000 0.000000
USER    NEWDPF tran0 16.707458 5.577754 1.656009
USER    NEWDPF quaternion0 0.108762 0.028110 -0.125852 0.985668
USER    NEWDPF axisangle0 0.644722 0.166634 -0.746034 19.423932
USER    NEWDPF quat0 0.644722 0.166634 -0.746034 19.423932
USER  keepresnum = 1 
USER  
REMARK  0 active torsions:
REMARK  status: ('A' for Active; 'I' for Inactive)
REMARK       I    between atoms: C2_2  and  C3_3 
REMARK       I    between atoms: C2_2  and  N13_81 
REMARK       I    between atoms: C3_3  and  N1_67 
REMARK       I    between atoms: C4_4  and  C5_5 
REMARK       I    between atoms: C4_4  and  C9_9 
REMARK       I    between atoms: C4_4  and  N1_67 
REMARK       I    between atoms: C5_5  and  C6_6 
REMARK       I    between atoms: C9_9  and  N4_71 
REMARK       I    between atoms: C10_10  and  C11_11 
REMARK       I    between atoms: C10_10  and  C15_15 
REMARK       I    between atoms: C10_10  and  N4_71 
REMARK       I    between atoms: C11_11  and  C12_12 
REMARK       I    between atoms: C12_12  and  C13_13 
REMARK       I    between atoms: C13_13  and  C14_14 
REMARK       I    between atoms: C14_14  and  N5_72 
REMARK       I    between atoms: C15_15  and  C16_16 
REMARK       I    between atoms: C16_16  and  C17_17 
REMARK       I    between atoms: C17_17  and  C18_18 
REMARK       I    between atoms: C18_18  and  C23_23 
REMARK       I    between atoms: C19_19  and  C20_20 
REMARK       I    between atoms: C20_20  and  C21_21 
REMARK       I    between atoms: C21_21  and  N6_73 
REMARK       I    between atoms: C22_22  and  N7_75 
REMARK       I    between atoms: C22_22  and  N8_76 
REMARK       I    between atoms: C23_23  and  N9_77 
REMARK       I    between atoms: C24_24  and  C25_25 
REMARK       I    between atoms: C24_24  and  C29_29 
REMARK       I    between atoms: C24_24  and  N9_77 
REMARK       I    between atoms: C25_25  and  C26_26 
REMARK       I    between atoms: C26_26  and  C27_27 
REMARK       I    between atoms: C27_27  and  C28_28 
REMARK       I    between atoms: C28_28  and  N10_78 
REMARK       I    between atoms: C29_29  and  N11_79 
REMARK       I    between atoms: C30_30  and  C31_31 
REMARK       I    between atoms: C30_30  and  N11_79 
REMARK       I    between atoms: C31_31  and  C32_32 
REMARK       I    between atoms: C32_32  and  C33_33 
REMARK       I    between atoms: C33_33  and  N12_80 
REMARK       I    between atoms: C34_34  and  C35_35 
REMARK       I    between atoms: C34_34  and  N13_81 
REMARK       I    between atoms: C35_35  and  C36_36 
REMARK       I    between atoms: C35_35  and  N15_83 
REMARK       I    between atoms: C36_36  and  C37_37 
REMARK       I    between atoms: C37_37  and  C38_38 
REMARK       I    between atoms: C38_38  and  N14_82 
REMARK       I    between atoms: C39_39  and  C40_40 
REMARK       I    between atoms: C39_39  and  N15_83 
REMARK       I    between atoms: C40_40  and  N16_84 
REMARK       I    between atoms: C41_41  and  C42_42 
REMARK       I    between atoms: C41_41  and  N16_84 
REMARK       I    between atoms: C42_42  and  C43_43 
REMARK       I    between atoms: C42_42  and  N18_86 
REMARK       I    between atoms: C43_43  and  C44_44 
REMARK       I    between atoms: C43_43  and  O9_63 
REMARK       I    between atoms: C44_44  and  N17_85 
REMARK       I    between atoms: C45_45  and  C46_46 
REMARK       I    between atoms: C45_45  and  N18_86 
REMARK       I    between atoms: C46_46  and  C47_47 
REMARK       I    between atoms: C46_46  and  N20_88 
REMARK       I    between atoms: C47_47  and  C48_48 
REMARK       I    between atoms: C47_47  and  O11_65 
REMARK       I    between atoms: C48_48  and  N19_87 
REMARK       I    between atoms: C49_49  and  C50_50 
REMARK       I    between atoms: C49_49  and  N20_88 
REMARK       I    between atoms: C50_50  and  C51_51 
REMARK       I    between atoms: C50_50  and  N22_90 
REMARK       I    between atoms: C51_51  and  C52_52 
REMARK       I    between atoms: C52_52  and  C53_53 
REMARK       I    between atoms: C53_53  and  C54_54 
REMARK       I    between atoms: C54_54  and  N21_89 
USER                              x       y       z     vdW  Elec       q    Type
USER                           _______ _______ _______ _____ _____    ______ ____
ROOT
ATOM      1  C1  UNL     1      21.238   1.726   1.809+99.99 +0.00    +0.042 C 
ATOM      2  C2  UNL     1      20.839   2.814   0.820+47.83 +0.00    +0.172 C 
ATOM      3  C3  UNL     1      19.759   2.271  -0.137+19.83 +0.00    +0.240 C 
ATOM      4  C4  UNL     1      17.328   1.833  -0.459+99.99 +0.00    +0.182 C 
ATOM      5  C5  UNL     1      17.299   0.300  -0.624+99.99 +0.00    +0.093 C 
ATOM      6  C6  UNL     1      17.371  -0.104  -2.058+99.99 +0.00    +0.028 A 
ATOM      7  C7  UNL     1      16.463  -0.686  -2.915+99.99 +0.00    +0.114 A 
ATOM      8  C8  UNL     1      18.230  -0.376  -4.075+99.99 +0.00    +0.180 A 
ATOM      9  C9  UNL     1      16.028   2.325   0.208+99.99 +0.00    +0.241 C 
ATOM     10  C10 UNL     1      13.567   2.541  -0.093+99.99 +0.00    +0.154 C 
ATOM     11  C11 UNL     1      13.317   4.044  -0.278+99.99 +0.00    +0.033 C 
ATOM     12  C12 UNL     1      13.515   4.538  -1.717+99.99 +0.00    +0.004 C 
ATOM     13  C13 UNL     1      13.242   6.040  -1.880 +2.65 +0.00    +0.030 C 
ATOM     14  C14 UNL     1      11.790   6.465  -1.647 -0.25 +0.00    +0.267 C 
ATOM     15  C15 UNL     1      12.536   1.679  -0.835 +3.91 +0.00    +0.149 C 
ATOM     16  C16 UNL     1      11.116   1.689  -0.313 +0.19 +0.00    +0.085 C 
ATOM     17  C17 UNL     1      10.171   2.228  -1.381 -0.26 +0.00    +0.051 C 
ATOM     18  C18 UNL     1       8.827   2.579  -0.814 -0.16 +0.00    +0.006 C 
ATOM     19  C19 UNL     1       7.749   1.781  -0.697 -0.14 -0.00    -0.013 C 
ATOM     20  C20 UNL     1       7.632   0.339  -1.117 -0.20 +0.00    +0.047 C 
ATOM     21  C21 UNL     1       6.325   0.054  -1.869 -0.06 +0.00    +0.125 C 
ATOM     22  C22 UNL     1       4.031  -0.115  -1.372 +2.19 +0.00    +0.121 C 
ATOM     23  C23 UNL     1       8.705   3.953  -0.258 -0.06 +0.00    +0.248 C 
ATOM     24  C24 UNL     1       7.268   5.964  -0.292 +0.01 +0.00    +0.177 C 
ATOM     25  C25 UNL     1       6.935   6.992  -1.384+99.99 +0.00    +0.035 C 
ATOM     26  C26 UNL     1       7.090   8.451  -0.929 +0.52 +0.00    +0.004 C 
ATOM     27  C27 UNL     1       6.089   8.933   0.122+17.42 +0.00    +0.030 C 
ATOM     28  C28 UNL     1       4.672   9.086  -0.431+99.99 +0.00    +0.267 C 
ATOM     29  C29 UNL     1       6.042   5.528   0.548 -0.16 +0.00    +0.240 C 
ATOM     30  C30 UNL     1       5.344   4.060   2.414 -0.10 +0.00    +0.122 C 
ATOM     31  C31 UNL     1       5.872   2.792   3.079 -0.24 +0.00    +0.021 C 
ATOM     32  C32 UNL     1       4.807   2.040   3.882 -0.30 +0.00    +0.031 C 
ATOM     33  C33 UNL     1       3.664   1.443   3.056 -0.15 +0.00    +0.267 C 
ATOM     34  C34 UNL     1      21.294   4.993   1.911+99.99 +0.00    +0.241 C 
ATOM     35  C35 UNL     1      20.673   6.127   2.760+99.99 +0.00    +0.176 C 
ATOM     36  C36 UNL     1      20.220   5.586   4.130+18.23 +0.00    +0.036 C 
ATOM     37  C37 UNL     1      18.745   5.852   4.463+99.99 +0.00    +0.032 C 
ATOM     38  C38 UNL     1      17.722   5.372   3.431+63.98 +0.00    +0.267 C 
ATOM     39  C39 UNL     1      21.218   8.508   3.174 +0.47 +0.00    +0.236 C 
ATOM     40  C40 UNL     1      22.325   9.568   3.255 -0.36 +0.00    +0.225 C 
ATOM     41  C41 UNL     1      24.161   9.207   1.628 -0.32 +0.00    +0.243 C 
ATOM     42  C42 UNL     1      25.486   8.456   1.379 -0.35 +0.00    +0.207 C 
ATOM     43  C43 UNL     1      25.178   7.007   0.949 -0.34 +0.00    +0.177 C 
ATOM     44  C44 UNL     1      24.245   6.869  -0.275 -0.32 +0.00    +0.300 C 
ATOM     45  C45 UNL     1      27.023   9.517   3.023 +1.01 +0.00    +0.243 C 
ATOM     46  C46 UNL     1      27.550   9.402   4.466+99.99 +0.00    +0.207 C 
ATOM     47  C47 UNL     1      26.354   9.483   5.444+99.99 +0.00    +0.177 C 
ATOM     48  C48 UNL     1      26.757   9.598   6.932+99.99 +0.00    +0.300 C 
ATOM     49  C49 UNL     1      29.712  10.253   5.329+99.99 +0.00    +0.251 C 
ATOM     50  C50 UNL     1      30.672  11.461   5.288+99.99 +0.00    +0.308 C 
ATOM     51  C51 UNL     1      30.298  12.491   6.362 +5.97 +0.00    +0.045 C 
ATOM     52  C52 UNL     1      30.571  11.980   7.781 +6.16 +0.00    +0.004 C 
ATOM     53  C53 UNL     1      30.205  13.036   8.829 -0.38 +0.00    +0.030 C 
ATOM     54  C54 UNL     1      30.450  12.563  10.263 -0.16 +0.00    +0.267 C 
ATOM     55  O1  UNL     1      20.049   1.724  -1.202+23.07 -0.00    -0.271 OA
ATOM     56  O2  UNL     1      16.012   2.845   1.324+99.99 -0.00    -0.271 OA
ATOM     57  O3  UNL     1      12.853   0.995  -1.814 -0.19 -0.00    -0.296 OA
ATOM     58  O4  UNL     1       9.340   4.298   0.731 -0.08 -0.00    -0.268 OA
ATOM     59  O5  UNL     1       4.892   5.890   0.314 -0.15 -0.00    -0.271 OA
ATOM     60  O6  UNL     1      22.485   4.964   1.602 +2.63 -0.00    -0.271 OA
ATOM     61  O7  UNL     1      20.041   8.792   3.388 -0.30 -0.00    -0.272 OA
ATOM     62  O8  UNL     1      23.540   9.750   0.716 -0.27 -0.00    -0.271 OA
ATOM     63  O9  UNL     1      24.630   6.312   2.093 +0.31 -0.00    -0.391 OA
ATOM     64  O10 UNL     1      27.216  10.505   2.317+99.99 -0.00    -0.271 OA
ATOM     65  O11 UNL     1      25.511   8.313   5.283+16.80 -0.00    -0.391 OA
ATOM     66  O12 UNL     1      29.955   9.220   5.948+99.99 -0.00    -0.271 OA
ATOM     67  N1  UNL     1      18.470   2.282   0.343+76.50 -0.00    -0.346 N 
ATOM     68  N2  UNL     1      17.007  -0.847  -4.162+99.99 -0.00    -0.360 N 
ATOM     69  H2  UNL     1      16.557  -1.248  -4.985+99.99+99.99    +0.166 HD
ATOM     70  N3  UNL     1      18.502   0.081  -2.819+99.99 -0.00    -0.354 N 
ATOM     71  N4  UNL     1      14.895   2.139  -0.542 +7.23 -0.00    -0.348 N 
ATOM     72  N5  UNL     1      10.881   5.803  -2.575 -0.23 +0.00    +0.078 N 
ATOM     73  N6  UNL     1       5.195   0.212  -0.950 +0.15 -0.00    -0.371 N 
ATOM     74  H6  UNL     1       5.331   0.571  -0.006 +0.03 +0.00    +0.161 HD
ATOM     75  N7  UNL     1       3.650  -0.576  -2.585 +0.47 -0.00    -0.279 NA
ATOM     76  N8  UNL     1       2.950  -0.027  -0.565 +0.50 -0.00    -0.279 NA
ATOM     77  N9  UNL     1       7.783   4.736  -0.907 -0.02 -0.00    -0.344 N 
ATOM     78  N10 UNL     1       3.767   9.515   0.633+99.99 +0.00    +0.078 N 
ATOM     79  N11 UNL     1       6.358   4.661   1.577 -0.01 -0.00    -0.359 N 
ATOM     80  N12 UNL     1       4.106   0.420   2.114 -0.16 +0.00    +0.078 N 
ATOM     81  N13 UNL     1      20.402   4.010   1.536+99.99 -0.00    -0.346 N 
ATOM     82  N14 UNL     1      17.925   3.968   3.051 +3.88 +0.00    +0.078 N 
ATOM     83  N15 UNL     1      21.629   7.220   2.917+21.73 -0.00    -0.346 N 
ATOM     84  N16 UNL     1      23.643   9.077   2.900 -0.21 -0.00    -0.350 N 
ATOM     85  N17 UNL     1      24.645   7.619  -1.461 -0.22 +0.00    +0.080 N 
ATOM     86  N18 UNL     1      26.294   8.430   2.604 -0.29 -0.00    -0.343 N 
ATOM     87  N19 UNL     1      27.466   8.423   7.441+99.99 +0.00    +0.080 N 
ATOM     88  N20 UNL     1      28.526  10.465   4.663+99.99 -0.00    -0.343 N 
ATOM     89  N21 UNL     1      31.869  12.355  10.526 -0.14 +0.00    +0.078 N 
ATOM     90  N22 UNL     1      30.572  12.103   3.954+99.99 +0.00    +0.092 N 
ATOM     91  H71 UNL     1      24.088   5.560   1.757 +0.17 +0.00    +0.210 HD
ATOM     92  H72 UNL     1      25.080   8.155   6.146+46.34 +0.00    +0.210 HD
ATOM     93  H73 UNL     1      18.260   2.766   1.212 +0.99 +0.00    +0.163 HD
ATOM     94  H74 UNL     1      19.364   0.521  -2.505+99.99 +0.00    +0.166 HD
ATOM     95  H75 UNL     1      14.946   1.701  -1.461 +0.82 +0.00    +0.163 HD
ATOM     96  H76 UNL     1      11.105   6.087  -3.529 +0.18 +0.00    +0.312 HD
ATOM     97  H77 UNL     1       9.931   6.125  -2.397 +0.17 +0.00    +0.312 HD
ATOM     98  H78 UNL     1       2.738  -0.223  -2.852 +0.01 +0.00    +0.126 HD
ATOM     99  H79 UNL     1       4.326  -0.422  -3.323 +0.02 +0.00    +0.126 HD
ATOM    100  H80 UNL     1       3.229   0.140   0.408 +0.01 +0.00    +0.126 HD
ATOM    101  H81 UNL     1       2.375  -0.860  -0.598 +0.15 +0.00    +0.126 HD
ATOM    102  H82 UNL     1       7.190   4.279  -1.591 -0.07 +0.00    +0.163 HD
ATOM    103  H83 UNL     1       3.721   8.773   1.333+99.99 +0.00    +0.312 HD
ATOM    104  H84 UNL     1       2.823   9.583   0.252+99.99 +0.00    +0.312 HD
ATOM    105  H85 UNL     1       7.341   4.544   1.815 +0.07 +0.00    +0.162 HD
ATOM    106  H86 UNL     1       4.634  -0.297   2.614 +0.16 +0.00    +0.312 HD
ATOM    107  H87 UNL     1       4.780   0.816   1.447 +0.11 +0.00    +0.312 HD
ATOM    108  H88 UNL     1      19.497   4.002   2.013+99.99 +0.00    +0.163 HD
ATOM    109  H89 UNL     1      17.060   3.683   2.551 +0.99 +0.00    +0.312 HD
ATOM    110  H90 UNL     1      17.875   3.408   3.908 +0.21 +0.00    +0.312 HD
ATOM    111  H91 UNL     1      22.597   7.059   2.644 +0.19 +0.00    +0.163 HD
ATOM    112  H92 UNL     1      24.170   8.547   3.589 +0.12 +0.00    +0.163 HD
ATOM    113  H93 UNL     1      25.648   7.558  -1.619 +0.24 +0.00    +0.312 HD
ATOM    114  H94 UNL     1      24.419   8.610  -1.331 +0.26 +0.00    +0.312 HD
ATOM    115  H95 UNL     1      26.029   7.734   3.300 +0.06 +0.00    +0.163 HD
ATOM    116  H96 UNL     1      27.144   7.579   6.967 +6.02 +0.00    +0.312 HD
ATOM    117  H97 UNL     1      28.456   8.502   7.165+99.99 +0.00    +0.312 HD
ATOM    118  H98 UNL     1      28.543  11.234   3.989+99.99 +0.00    +0.163 HD
ATOM    119  H99 UNL     1      32.369  13.237  10.427 +0.08 +0.00    +0.312 HD
ATOM    120  HA0 UNL     1      31.993  12.063  11.495+99.99+99.99    +0.312 HD
ATOM    121  HA1 UNL     1      30.901  11.439   3.249+81.15 +0.00    +0.313 HD
ATOM    122  HA2 UNL     1      31.226  12.885   3.917 +0.27 +0.00    +0.313 HD
ENDROOT
TORSDOF 59
TER
