USER    Run = 1
USER    DPF = ligand_392_receptor.dpf
USER  
USER    Estimated Free Energy of Binding    =  +3.08e+004 kcal/mol  [=(1)+(2)+(3)-(4)]
USER    
USER    (1) Final Intermolecular Energy     =  +3.08e+004 kcal/mol
USER        vdW + Hbond + desolv Energy     =  +3.08e+004 kcal/mol
USER        Electrostatic Energy            =   +0.00 kcal/mol
USER    (2) Final Total Internal Energy     =   +0.00 kcal/mol
USER    (3) Torsional Free Energy           =   +1.19 kcal/mol
USER    (4) Unbound System's Energy  [=(2)] =   +0.00 kcal/mol
USER    
USER    
USER    NEWDPF move ligand_392.pdbqt
USER    NEWDPF about 0.000000 0.000000 0.000000
USER    NEWDPF tran0 12.035390 5.812894 3.210660
USER    NEWDPF quaternion0 0.729667 -0.302440 0.585382 0.182873
USER    NEWDPF axisangle0 0.742183 -0.307628 0.595423 158.925692
USER    NEWDPF quat0 0.742183 -0.307628 0.595423 158.925692
USER  keepresnum = 1 
USER  
REMARK  0 active torsions:
REMARK  status: ('A' for Active; 'I' for Inactive)
REMARK       I    between atoms: C2_2  and  C3_3 
REMARK       I    between atoms: C2_2  and  C7_7 
REMARK       I    between atoms: C3_3  and  C4_4 
REMARK       I    between atoms: C4_4  and  C5_5 
REMARK       I    between atoms: C5_5  and  N1_58 
REMARK       I    between atoms: C6_6  and  N2_60 
REMARK       I    between atoms: C6_6  and  N3_61 
REMARK       I    between atoms: C7_7  and  N4_62 
REMARK       I    between atoms: C8_8  and  C9_9 
REMARK       I    between atoms: C8_8  and  C13_13 
REMARK       I    between atoms: C8_8  and  N4_62 
REMARK       I    between atoms: C9_9  and  C10_10 
REMARK       I    between atoms: C10_10  and  C11_11 
REMARK       I    between atoms: C11_11  and  N5_63 
REMARK       I    between atoms: C12_12  and  N6_65 
REMARK       I    between atoms: C12_12  and  N7_66 
REMARK       I    between atoms: C13_13  and  N8_67 
REMARK       I    between atoms: C17_17  and  C18_18 
REMARK       I    between atoms: C18_18  and  N9_68 
REMARK       I    between atoms: C19_19  and  C20_20 
REMARK       I    between atoms: C19_19  and  C22_22 
REMARK       I    between atoms: C19_19  and  N9_68 
REMARK       I    between atoms: C20_20  and  O4_89 
REMARK       I    between atoms: C22_22  and  N10_69 
REMARK       I    between atoms: C23_23  and  C24_24 
REMARK       I    between atoms: C23_23  and  C28_28 
REMARK       I    between atoms: C23_23  and  N10_69 
REMARK       I    between atoms: C24_24  and  C25_25 
REMARK       I    between atoms: C25_25  and  C26_26 
REMARK       I    between atoms: C26_26  and  N11_70 
REMARK       I    between atoms: C27_27  and  N12_72 
REMARK       I    between atoms: C27_27  and  N13_73 
REMARK       I    between atoms: C28_28  and  N14_74 
REMARK       I    between atoms: C29_29  and  C30_30 
REMARK       I    between atoms: C29_29  and  C32_32 
REMARK       I    between atoms: C29_29  and  N14_74 
REMARK       I    between atoms: C30_30  and  O7_92 
REMARK       I    between atoms: C32_32  and  N15_75 
REMARK       I    between atoms: C33_33  and  C34_34 
REMARK       I    between atoms: C33_33  and  C38_38 
REMARK       I    between atoms: C33_33  and  N15_75 
REMARK       I    between atoms: C34_34  and  C35_35 
REMARK       I    between atoms: C35_35  and  C36_36 
REMARK       I    between atoms: C36_36  and  C37_37 
REMARK       I    between atoms: C37_37  and  N16_76 
REMARK       I    between atoms: C38_38  and  N17_77 
REMARK       I    between atoms: C39_39  and  C41_41 
REMARK       I    between atoms: C39_39  and  N17_77 
REMARK       I    between atoms: C41_41  and  N18_78 
REMARK       I    between atoms: C42_42  and  C43_43 
REMARK       I    between atoms: C42_42  and  C46_46 
REMARK       I    between atoms: C42_42  and  N18_78 
REMARK       I    between atoms: C46_46  and  N19_79 
REMARK       I    between atoms: C47_47  and  C48_48 
REMARK       I    between atoms: C47_47  and  C52_52 
REMARK       I    between atoms: C47_47  and  N19_79 
REMARK       I    between atoms: C48_48  and  C49_49 
REMARK       I    between atoms: C49_49  and  C50_50 
REMARK       I    between atoms: C50_50  and  N20_80 
REMARK       I    between atoms: C51_51  and  N21_82 
REMARK       I    between atoms: C51_51  and  N22_83 
REMARK       I    between atoms: C52_52  and  N23_84 
REMARK       I    between atoms: C53_53  and  C54_54 
REMARK       I    between atoms: C53_53  and  C57_57 
REMARK       I    between atoms: C53_53  and  N23_84 
REMARK       I    between atoms: C57_57  and  N24_85 
USER                              x       y       z     vdW  Elec       q    Type
USER                           _______ _______ _______ _____ _____    ______ ____
ROOT
ATOM      1  C1  UNL     1       9.377  -0.458  -0.976 -0.33 +0.00    +0.020 C 
ATOM      2  C2  UNL     1      10.433   0.516  -0.451 -0.36 +0.00    +0.074 C 
ATOM      3  C3  UNL     1      11.831  -0.121  -0.480 +1.78 +0.00    +0.015 C 
ATOM      4  C4  UNL     1      12.392  -0.344  -1.893 +0.79 +0.00    +0.020 C 
ATOM      5  C5  UNL     1      13.920  -0.266  -1.909+16.46 +0.00    +0.121 C 
ATOM      6  C6  UNL     1      15.523   1.358  -1.315+23.63 +0.00    +0.121 C 
ATOM      7  C7  UNL     1      10.348   1.858  -1.190 -0.18 +0.00    +0.222 C 
ATOM      8  C8  UNL     1      11.406   4.054  -1.573 +5.27 +0.00    +0.176 C 
ATOM      9  C9  UNL     1      10.354   5.051  -1.040 -0.24 +0.00    +0.036 C 
ATOM     10  C10 UNL     1      10.543   5.400   0.441 -0.10 +0.00    +0.022 C 
ATOM     11  C11 UNL     1       9.619   6.531   0.889 -0.25 +0.00    +0.121 C 
ATOM     12  C12 UNL     1      10.521   7.883   2.628 +0.23 +0.00    +0.121 C 
ATOM     13  C13 UNL     1      12.828   4.651  -1.434+99.99 +0.00    +0.243 C 
ATOM     14  C14 UNL     1      12.517   6.107  -3.488 +0.12 +0.00    +0.127 C 
ATOM     15  C15 UNL     1      13.630   6.804  -4.253+12.57 +0.00    +0.022 C 
ATOM     16  C16 UNL     1      14.412   7.513  -3.155+99.99 +0.00    +0.036 C 
ATOM     17  C17 UNL     1      14.327   6.555  -1.963+11.30 +0.00    +0.173 C 
ATOM     18  C18 UNL     1      14.036   7.299  -0.642 +0.91 +0.00    +0.221 C 
ATOM     19  C19 UNL     1      14.195   7.155   1.796+63.66 +0.00    +0.183 C 
ATOM     20  C20 UNL     1      14.663   6.190   2.916+99.99 +0.00    +0.141 C 
ATOM     21  C21 UNL     1      16.133   6.265   3.304+99.99 +0.00    +0.041 C 
ATOM     22  C22 UNL     1      14.652   8.605   2.067+12.62 +0.00    +0.238 C 
ATOM     23  C23 UNL     1      16.670  10.128   1.968 -0.41 +0.00    +0.176 C 
ATOM     24  C24 UNL     1      16.023  11.369   1.345 -0.56 +0.00    +0.036 C 
ATOM     25  C25 UNL     1      16.369  11.569  -0.140 +6.07 +0.00    +0.022 C 
ATOM     26  C26 UNL     1      15.842  10.484  -1.080+99.99 +0.00    +0.121 C 
ATOM     27  C27 UNL     1      17.688   9.127  -1.712 +1.77 +0.00    +0.121 C 
ATOM     28  C28 UNL     1      16.981  10.306   3.476 -0.33 +0.00    +0.241 C 
ATOM     29  C29 UNL     1      16.040  10.112   5.758+28.47 +0.00    +0.205 C 
ATOM     30  C30 UNL     1      16.281  11.429   6.516+12.66 +0.00    +0.146 C 
ATOM     31  C31 UNL     1      15.072  12.352   6.570+99.99 +0.00    +0.042 C 
ATOM     32  C32 UNL     1      14.826   9.279   6.228+88.95 +0.00    +0.243 C 
ATOM     33  C33 UNL     1      13.622   8.324   8.180 -0.02 +0.00    +0.176 C 
ATOM     34  C34 UNL     1      12.175   8.623   7.748 +0.02 +0.00    +0.035 C 
ATOM     35  C35 UNL     1      11.722  10.081   7.885 +2.99 +0.00    +0.004 C 
ATOM     36  C36 UNL     1      11.844  10.626   9.310 +9.77 +0.00    +0.030 C 
ATOM     37  C37 UNL     1      11.154  11.980   9.503+99.99 +0.00    +0.267 C 
ATOM     38  C38 UNL     1      14.106   6.858   7.960 -0.24 +0.00    +0.241 C 
ATOM     39  C39 UNL     1      13.479   4.527   7.398 -0.53 +0.00    +0.172 C 
ATOM     40  C40 UNL     1      13.695   3.711   8.666 +1.68 +0.00    +0.042 C 
ATOM     41  C41 UNL     1      12.310   3.976   6.564 -0.32 +0.00    +0.240 C 
ATOM     42  C42 UNL     1      11.207   4.247   4.338 +0.18 +0.00    +0.180 C 
ATOM     43  C43 UNL     1      11.116   2.851   3.676 +7.09 +0.00    +0.009 C 
ATOM     44  C44 UNL     1      12.345   2.602   2.788+99.99 +0.00    +0.012 C 
ATOM     45  C45 UNL     1      10.953   1.669   4.633+12.63 +0.00    +0.012 C 
ATOM     46  C46 UNL     1       9.944   4.882   4.989 -0.21 +0.00    +0.241 C 
ATOM     47  C47 UNL     1       7.514   4.687   5.443 -0.26 +0.00    +0.176 C 
ATOM     48  C48 UNL     1       6.317   4.457   4.505 -0.26 +0.00    +0.036 C 
ATOM     49  C49 UNL     1       6.041   2.979   4.202 -0.19 +0.00    +0.022 C 
ATOM     50  C50 UNL     1       4.829   2.813   3.286 -0.16 +0.00    +0.121 C 
ATOM     51  C51 UNL     1       3.670   1.021   2.303 -0.20 +0.00    +0.121 C 
ATOM     52  C52 UNL     1       7.250   4.098   6.854 -0.35 +0.00    +0.241 C 
ATOM     53  C53 UNL     1       8.404   3.341   8.954 +0.22 +0.00    +0.179 C 
ATOM     54  C54 UNL     1       8.528   4.615   9.832+12.65 +0.00    +0.009 C 
ATOM     55  C55 UNL     1       9.766   5.438   9.461 +6.78 +0.00    +0.012 C 
ATOM     56  C56 UNL     1       7.291   5.515   9.824+99.99 +0.00    +0.012 C 
ATOM     57  C57 UNL     1       7.364   2.334   9.508+31.40 +0.00    +0.238 C 
ATOM     58  N1  UNL     1      14.300   1.108  -1.587+44.42 -0.00    -0.372 N 
ATOM     59  H1  UNL     1      13.603   1.853  -1.581 +0.49 +0.00    +0.161 HD
ATOM     60  N2  UNL     1      16.594   0.535  -1.299+26.43 -0.00    -0.279 NA
ATOM     61  N3  UNL     1      15.892   2.607  -0.957+22.57 -0.00    -0.279 NA
ATOM     62  N4  UNL     1      11.335   2.768  -0.883 +0.17 -0.00    -0.347 N 
ATOM     63  N5  UNL     1       9.901   6.818   2.290 -0.11 -0.00    -0.372 N 
ATOM     64  H5  UNL     1       9.599   6.161   3.009 +0.09 +0.00    +0.161 HD
ATOM     65  N6  UNL     1      11.042   8.881   1.878+99.99 -0.00    -0.279 NA
ATOM     66  N7  UNL     1      10.777   8.123   3.932 -0.28 -0.00    -0.279 NA
ATOM     67  N8  UNL     1      13.151   5.723  -2.238 +4.29 -0.00    -0.337 N 
ATOM     68  N9  UNL     1      14.644   6.717   0.466+99.99 -0.00    -0.245 NA
ATOM     69  N10 UNL     1      15.956   8.875   1.703 -0.20 -0.00    -0.346 N 
ATOM     70  N11 UNL     1      16.642   9.257  -0.989 +0.64 -0.00    -0.372 N 
ATOM     71  H11 UNL     1      16.364   8.511  -0.351 +0.09 +0.00    +0.161 HD
ATOM     72  N12 UNL     1      18.251   9.971  -2.603+99.99 -0.00    -0.279 NA
ATOM     73  N13 UNL     1      18.429   8.001  -1.623 +5.92 -0.00    -0.279 NA
ATOM     74  N14 UNL     1      15.897  10.321   4.318 +3.88 -0.00    -0.344 N 
ATOM     75  N15 UNL     1      14.613   9.218   7.583+99.99 -0.00    -0.346 N 
ATOM     76  N16 UNL     1      11.772  13.034   8.708+99.99 +0.00    +0.078 N 
ATOM     77  N17 UNL     1      13.138   5.915   7.712 -0.22 -0.00    -0.346 N 
ATOM     78  N18 UNL     1      12.329   4.411   5.256 +0.09 -0.00    -0.346 N 
ATOM     79  N19 UNL     1       8.755   4.215   4.832 -0.12 -0.00    -0.346 N 
ATOM     80  N20 UNL     1       4.654   1.387   3.032 -0.12 -0.00    -0.372 N 
ATOM     81  H20 UNL     1       5.298   0.701   3.425 +0.05 +0.00    +0.161 HD
ATOM     82  N21 UNL     1       3.460  -0.292   2.064 +0.41 -0.00    -0.279 NA
ATOM     83  N22 UNL     1       2.722   1.759   1.685 -0.03 -0.00    -0.279 NA
ATOM     84  N23 UNL     1       8.349   3.589   7.509 -0.30 -0.00    -0.346 N 
ATOM     85  N24 UNL     1       6.889   1.413   8.615+99.99 -0.00    -0.368 N 
ATOM     86  O1  UNL     1       9.430   2.130  -1.962 -0.33 -0.00    -0.273 OA
ATOM     87  O2  UNL     1      13.619   4.261  -0.564+99.99 -0.00    -0.271 OA
ATOM     88  O3  UNL     1      13.235   8.228  -0.546+10.50 -0.00    -0.278 OA
ATOM     89  O4  UNL     1      13.872   6.313   4.104 -0.08 -0.00    -0.394 OA
ATOM     90  O5  UNL     1      13.960   9.401   2.700 +7.44 -0.00    -0.272 OA
ATOM     91  O6  UNL     1      18.129  10.465   3.891 -0.07 -0.00    -0.271 OA
ATOM     92  O7  UNL     1      16.708  11.154   7.859+13.04 -0.00    -0.393 OA
ATOM     93  O8  UNL     1      14.148   8.622   5.434 -0.20 -0.00    -0.271 OA
ATOM     94  O9  UNL     1      15.297   6.553   8.057 -0.37 -0.00    -0.271 OA
ATOM     95  O10 UNL     1      11.372   3.340   7.043 -0.32 -0.00    -0.271 OA
ATOM     96  O11 UNL     1      10.012   5.934   5.635 -0.17 -0.00    -0.271 OA
ATOM     97  O12 UNL     1       6.136   4.123   7.373 -0.47 -0.00    -0.271 OA
ATOM     98  O13 UNL     1       7.073   2.232  10.699+32.80 -0.00    -0.271 OA
ATOM     99  H78 UNL     1      17.434   0.997  -1.626+99.99 +0.00    +0.126 HD
ATOM    100  H79 UNL     1      16.451  -0.338  -1.792 +0.06 +0.00    +0.126 HD
ATOM    101  H80 UNL     1      15.053   3.174  -0.805+21.04 +0.00    +0.126 HD
ATOM    102  H81 UNL     1      16.451   2.599  -0.112+99.99 +0.00    +0.126 HD
ATOM    103  H82 UNL     1      12.216   2.424  -0.512 -0.41 +0.00    +0.163 HD
ATOM    104  H83 UNL     1      11.246   8.633   0.916 +6.69 +0.00    +0.126 HD
ATOM    105  H84 UNL     1      11.886   9.273   2.298 +3.79 +0.00    +0.126 HD
ATOM    106  H85 UNL     1      10.592   9.077   4.209 +0.01 +0.00    +0.126 HD
ATOM    107  H86 UNL     1      10.297   7.463   4.545 +0.07 +0.00    +0.126 HD
ATOM    108  H87 UNL     1      14.717   5.708   0.350+36.41 +0.00    +0.131 HD
ATOM    109  H88 UNL     1      16.212   8.444   0.814 +0.03 +0.00    +0.163 HD
ATOM    110  H89 UNL     1      18.644   9.496  -3.407+45.11 +0.00    +0.126 HD
ATOM    111  H90 UNL     1      17.677  10.753  -2.889 +0.41 +0.00    +0.126 HD
ATOM    112  H91 UNL     1      18.159   7.449  -0.817 +7.68 +0.00    +0.126 HD
ATOM    113  H92 UNL     1      19.424   8.197  -1.596 +0.22 +0.00    +0.126 HD
ATOM    114  H93 UNL     1      14.992  10.063   3.914 +0.10 +0.00    +0.163 HD
ATOM    115  H94 UNL     1      15.304   9.653   8.192+13.50 +0.00    +0.163 HD
ATOM    116  H95 UNL     1      11.644  12.839   7.715+12.00 +0.00    +0.312 HD
ATOM    117  H96 UNL     1      11.289  13.915   8.884+99.99 +0.00    +0.312 HD
ATOM    118  H97 UNL     1      12.214   6.219   7.423 +0.13 +0.00    +0.163 HD
ATOM    119  H98 UNL     1      12.987   5.157   5.009 +0.11 +0.00    +0.163 HD
ATOM    120  H99 UNL     1       8.765   3.268   4.487 +0.03 +0.00    +0.163 HD
ATOM    121  HA0 UNL     1       2.493  -0.554   2.211 +0.03 +0.00    +0.126 HD
ATOM    122  HA1 UNL     1       4.070  -0.845   2.658 +0.06 +0.00    +0.126 HD
ATOM    123  HA2 UNL     1       2.481   1.382   0.776 +0.03 +0.00    +0.126 HD
ATOM    124  HA3 UNL     1       2.943   2.744   1.616 +0.03 +0.00    +0.126 HD
ATOM    125  HA4 UNL     1       9.258   3.734   7.075 +0.11 +0.00    +0.163 HD
ATOM    126  HA5 UNL     1       6.124   0.852   8.966+99.99 +0.00    +0.159 HD
ATOM    127  HA6 UNL     1       6.791   1.732   7.659 +7.44 +0.00    +0.159 HD
ATOM    128  HA7 UNL     1      13.924   7.248   4.423 +0.14 +0.00    +0.210 HD
ATOM    129  HA8 UNL     1      17.665  10.963   7.813 +1.58 +0.00    +0.210 HD
ENDROOT
TORSDOF 47
TER
