USER    Run = 1
USER    DPF = ligand_171_receptor.dpf
USER  
USER    Estimated Free Energy of Binding    =   -5.73 kcal/mol  [=(1)+(2)+(3)-(4)]
USER    Estimated Inhibition Constant, Ki   =   63.17 uM (micromolar)  [Temperature = 298.15 K]
USER    
USER    (1) Final Intermolecular Energy     =   -6.92 kcal/mol
USER        vdW + Hbond + desolv Energy     =   -6.92 kcal/mol
USER        Electrostatic Energy            =   +0.00 kcal/mol
USER    (2) Final Total Internal Energy     =   -1.24 kcal/mol
USER    (3) Torsional Free Energy           =   +1.19 kcal/mol
USER    (4) Unbound System's Energy  [=(2)] =   -1.24 kcal/mol
USER    
USER    
USER    NEWDPF move ligand_171.pdbqt
USER    NEWDPF about 0.000000 0.000000 0.000000
USER    NEWDPF tran0 9.978880 3.252155 2.356143
USER    NEWDPF quaternion0 -0.328393 -0.222344 -0.025689 -0.917639
USER    NEWDPF axisangle0 -0.826323 -0.559475 -0.064641 -46.833355
USER    NEWDPF quat0 -0.826323 -0.559475 -0.064641 -46.833355
USER    NEWDPF dihe0 40.73 -53.23 -26.94 -100.84 -6.62 -16.05 139.46 -37.80 -140.83 
USER  keepresnum = 1 
USER  
REMARK  9 active torsions:
REMARK  status: ('A' for Active; 'I' for Inactive)
REMARK       I    between atoms: C2_2  and  N1_33 
REMARK       I    between atoms: C2_2  and  N2_34 
REMARK    1  A    between atoms: C9_9  and  N3_35 
REMARK    2  A    between atoms: C12_12  and  N3_35 
REMARK    3  A    between atoms: C14_14  and  N5_38 
REMARK    4  A    between atoms: C17_17  and  C18_18 
REMARK       I    between atoms: C17_17  and  N5_38 
REMARK    5  A    between atoms: C21_21  and  O3_42 
REMARK    6  A    between atoms: C24_24  and  O3_42 
REMARK    7  A    between atoms: C31_31  and  C32_32 
REMARK    8  A    between atoms: C31_31  and  N6_39 
REMARK    9  A    between atoms: C32_32  and  O4_43 
USER                              x       y       z     vdW  Elec       q    Type
USER                           _______ _______ _______ _____ _____    ______ ____
ROOT
ATOM      1  C12 UNL     1      13.295   7.347   5.059 -0.42 +0.00    +0.039 A 
ATOM      2  C13 UNL     1      12.392   6.509   4.388 -0.31 +0.00    +0.078 A 
ATOM      3  C14 UNL     1      11.029   6.700   4.566 -0.26 +0.00    +0.109 A 
ATOM      4  C15 UNL     1      11.404   8.460   6.007 -0.07 +0.00    +0.092 A 
ATOM      5  C16 UNL     1      12.776   8.344   5.887 -0.23 +0.00    +0.046 A 
ATOM      6  N4  UNL     1      10.525   7.667   5.362 -0.10 -0.00    -0.352 N 
ATOM      7  H4  UNL     1       9.518   7.792   5.471 +0.25 +0.00    +0.166 HD
ENDROOT
BRANCH   3   8
ATOM      8  N5  UNL     1      10.037   5.939   3.946 -0.10 -0.00    -0.309 N 
ATOM      9  C17 UNL     1       8.862   6.368   3.377 -0.17 +0.00    +0.257 C 
ATOM     10  O2  UNL     1       8.485   7.527   3.268 -0.28 -0.00    -0.267 OA
ATOM     11  H35 UNL     1      10.304   4.967   3.884 +0.06 +0.00    +0.170 HD
BRANCH   9  12
ATOM     12  C18 UNL     1       8.000   5.288   2.817 -0.16 +0.00    +0.032 A 
ATOM     13  C19 UNL     1       8.410   3.951   2.779 -0.20 +0.00    +0.020 A 
ATOM     14  C20 UNL     1       7.559   2.977   2.247 -0.20 +0.00    +0.038 A 
ATOM     15  C21 UNL     1       6.295   3.319   1.754 -0.09 +0.00    +0.069 A 
ATOM     16  C22 UNL     1       5.878   4.648   1.813 -0.12 +0.00    +0.038 A 
ATOM     17  C23 UNL     1       6.726   5.627   2.346 -0.17 +0.00    +0.020 A 
BRANCH  15  18
ATOM     18  O3  UNL     1       5.575   2.262   1.273 -0.06 -0.00    -0.346 OA
BRANCH  18  19
ATOM     19  C24 UNL     1       4.259   2.488   0.741 -0.09 +0.00    +0.133 C 
ATOM     20  C25 UNL     1       3.707   1.200   0.102 -0.15 +0.00    +0.068 C 
ATOM     21  C26 UNL     1       4.169   0.987  -1.351 -0.09 +0.00    +0.226 C 
ATOM     22  C27 UNL     1       5.694   0.956  -1.490 -0.15 +0.00    +0.038 C 
ATOM     23  N6  UNL     1       3.748   2.186  -2.105 -0.05 +0.00    +0.100 N 
ATOM     24  C28 UNL     1       6.086   2.414  -1.728 -0.10 +0.00    +0.038 C 
ATOM     25  C29 UNL     1       4.760   3.178  -1.697 -0.07 +0.00    +0.226 C 
ATOM     26  C30 UNL     1       4.369   3.637  -0.278 -0.14 +0.00    +0.068 C 
BRANCH  23  27
ATOM     27  C31 UNL     1       3.686   1.932  -3.557 -0.00 +0.00    +0.299 C 
BRANCH  27  28
ATOM     28  C32 UNL     1       2.627   2.775  -4.295 -0.02 +0.00    +0.194 C 
BRANCH  28  29
ATOM     29  O4  UNL     1       2.445   4.057  -3.698 -0.05 -0.00    -0.399 OA
ATOM     30  H36 UNL     1       3.007   4.686  -4.180 -0.23 +0.00    +0.209 HD
ENDBRANCH  28  29
ENDBRANCH  27  28
ENDBRANCH  23  27
ENDBRANCH  18  19
ENDBRANCH  15  18
ENDBRANCH   9  12
ENDBRANCH   3   8
BRANCH   1  31
ATOM     31  N3  UNL     1      14.703   7.197   4.919 -0.24 -0.00    -0.351 N 
ATOM     32  C11 UNL     1      15.316   6.640   6.132 +1.01 +0.00    +0.156 C 
BRANCH  31  33
ATOM     33  C9  UNL     1      15.521   8.006   4.085 -0.48 +0.00    +0.035 A 
ATOM     34  C8  UNL     1      16.671   8.665   4.534 -0.08 +0.00    +0.032 A 
ATOM     35  C7  UNL     1      17.475   9.446   3.687 -0.47 +0.00    +0.033 A 
ATOM     36  C6  UNL     1      17.116   9.568   2.334 -0.44 +0.00    +0.053 A 
ATOM     37  C5  UNL     1      15.984   8.918   1.842 -0.41 -0.00    -0.005 A 
ATOM     38  N2  UNL     1      17.722  10.257   1.272 -0.24 -0.00    -0.274 N 
ATOM     39  C4  UNL     1      15.879   9.225   0.466 -0.22 +0.00    +0.031 A 
ATOM     40  C10 UNL     1      15.199   8.138   2.720 -0.15 +0.00    +0.043 A 
ATOM     41  C3  UNL     1      16.929  10.051   0.147 -0.30 +0.00    +0.103 A 
ATOM     42  C2  UNL     1      18.913  11.029   1.355 -0.33 +0.00    +0.326 C 
ATOM     43  N1  UNL     1      19.408  11.412   0.124 -0.30 -0.00    -0.347 N 
ATOM     44  O1  UNL     1      19.428  11.281   2.435 -0.35 -0.00    -0.246 OA
ATOM     45  C1  UNL     1      20.663  12.116   0.045 -0.27 +0.00    +0.151 C 
ATOM     46  H34 UNL     1      19.102  10.930  -0.709 +0.15 +0.00    +0.163 HD
ENDBRANCH  31  33
ENDBRANCH   1  31
TORSDOF 9
TER
