USER    Run = 1
USER    DPF = ligand_277_receptor.dpf
USER  
USER    Estimated Free Energy of Binding    =  +70.13 kcal/mol  [=(1)+(2)+(3)-(4)]
USER    
USER    (1) Final Intermolecular Energy     =  +68.94 kcal/mol
USER        vdW + Hbond + desolv Energy     =  +68.94 kcal/mol
USER        Electrostatic Energy            =   +0.00 kcal/mol
USER    (2) Final Total Internal Energy     =   -2.82 kcal/mol
USER    (3) Torsional Free Energy           =   +1.19 kcal/mol
USER    (4) Unbound System's Energy  [=(2)] =   -2.82 kcal/mol
USER    
USER    
USER    NEWDPF move ligand_277.pdbqt
USER    NEWDPF about 0.000000 0.000000 0.000000
USER    NEWDPF tran0 17.505692 7.465650 2.142921
USER    NEWDPF quaternion0 -0.223018 0.012560 0.974551 -0.018853
USER    NEWDPF axisangle0 -0.223057 0.012562 0.974724 -177.839525
USER    NEWDPF quat0 -0.223057 0.012562 0.974724 -177.839525
USER    NEWDPF dihe0 180.00 -10.91 -17.93 -136.37 180.00 179.88 -180.00 -95.84 -121.20 -21.43 55.56 76.92 -126.83 42.60 118.15 -123.03 -5.44 -90.42 135.79 11.77 -180.00 112.91 
USER  keepresnum = 1 
USER  
REMARK  22 active torsions:
REMARK  status: ('A' for Active; 'I' for Inactive)
REMARK    1  A    between atoms: C2_2  and  C4_4 
REMARK    2  A    between atoms: C2_2  and  O7_57 
REMARK    3  A    between atoms: C4_4  and  C5_5 
REMARK    4  A    between atoms: C5_5  and  N1_49 
REMARK    5  A    between atoms: C6_6  and  C7_7 
REMARK       I    between atoms: C6_6  and  N1_49 
REMARK    6  A    between atoms: C9_9  and  C14_14 
REMARK    7  A    between atoms: C10_10  and  C13_13 
REMARK    8  A    between atoms: C13_13  and  O3_53 
REMARK    9  A    between atoms: C33_33  and  O6_56 
REMARK   10  A    between atoms: C35_35  and  C36_36 
REMARK   11  A    between atoms: C35_35  and  O7_57 
REMARK   12  A    between atoms: C36_36  and  C37_37 
REMARK   13  A    between atoms: C37_37  and  O8_58 
REMARK   14  A    between atoms: C40_40  and  C41_41 
REMARK   15  A    between atoms: C40_40  and  O8_58 
REMARK   16  A    between atoms: C41_41  and  C42_42 
REMARK       I    between atoms: C42_42  and  N2_50 
REMARK   17  A    between atoms: C43_43  and  N2_50 
REMARK   18  A    between atoms: C44_44  and  O14_64 
REMARK   19  A    between atoms: C45_45  and  O13_63 
REMARK   20  A    between atoms: C46_46  and  C48_48 
REMARK   21  A    between atoms: C47_47  and  O11_61 
REMARK   22  A    between atoms: C48_48  and  O12_62 
USER                              x       y       z     vdW  Elec       q    Type
USER                           _______ _______ _______ _____ _____    ______ ____
ROOT
ATOM      1  C6  UNL     1      21.452   9.689   2.034 -0.30 +0.00    +0.251 C 
ATOM      2  N1  UNL     1      20.592   8.669   2.382 +1.68 -0.00    -0.357 N 
ATOM      3  O1  UNL     1      21.092  10.715   1.467 -0.27 -0.00    -0.268 OA
ATOM      4  H45 UNL     1      20.963   7.770   2.659 +0.61 +0.00    +0.162 HD
ENDROOT
BRANCH   1   5
ATOM      5  C7  UNL     1      22.893   9.480   2.346 -0.41 +0.00    +0.032 A 
ATOM      6  C8  UNL     1      23.745   8.781   1.482 -0.43 +0.00    +0.030 A 
ATOM      7  C9  UNL     1      25.105   8.597   1.804 -0.47 -0.00    -0.006 A 
ATOM      8  C10 UNL     1      25.595   9.115   3.018 -0.58 +0.00    +0.048 A 
ATOM      9  C11 UNL     1      24.731   9.782   3.898 +0.23 +0.00    +0.020 A 
ATOM     10  C12 UNL     1      23.387   9.965   3.561 -0.55 +0.00    +0.018 A 
BRANCH   7  11
ATOM     11  C14 UNL     1      25.931   7.789   0.861 -0.41 +0.00    +0.001 A 
ATOM     12  C15 UNL     1      27.085   8.300   0.349 -0.33 +0.00    +0.011 A 
ATOM     13  C16 UNL     1      27.577   9.638   0.736 +4.77 +0.00    +0.016 A 
ATOM     14  C24 UNL     1      27.898   7.512  -0.611 -0.25 +0.00    +0.098 A 
ATOM     15  C17 UNL     1      28.694  10.153   0.198+21.18 +0.00    +0.013 A 
ATOM     16  C18 UNL     1      29.451   9.387  -0.778 +7.86 -0.00    -0.019 A 
ATOM     17  C19 UNL     1      30.560   9.913  -1.329 +0.38 +0.00    +0.067 A 
ATOM     18  C23 UNL     1      29.027   8.025  -1.162 -0.11 +0.00    +0.009 A 
ATOM     19  C20 UNL     1      31.369   9.156  -2.313 -0.15 +0.00    +0.172 A 
ATOM     20  C21 UNL     1      30.929   7.788  -2.668 -0.17 +0.00    +0.056 A 
ATOM     21  O4  UNL     1      32.373   9.647  -2.816 -0.19 -0.00    -0.288 OA
ATOM     22  C22 UNL     1      29.826   7.265  -2.118 -0.22 +0.00    +0.019 A 
ATOM     23  O5  UNL     1      27.492   6.230  -0.956 -0.17 -0.00    -0.307 OA
ATOM     24  C25 UNL     1      26.328   5.701  -0.453 -0.32 +0.00    +0.098 A 
ATOM     25  C26 UNL     1      25.527   6.426   0.432 -0.39 +0.00    +0.011 A 
ATOM     26  C30 UNL     1      25.983   4.394  -0.879 -0.44 +0.00    +0.009 A 
ATOM     27  C27 UNL     1      24.346   5.827   0.894 -0.49 +0.00    +0.016 A 
ATOM     28  C28 UNL     1      23.984   4.540   0.488 -0.53 +0.00    +0.013 A 
ATOM     29  C29 UNL     1      24.790   3.812  -0.395 -0.25 -0.00    -0.021 A 
ATOM     30  C34 UNL     1      24.422   2.516  -0.799+16.71 +0.00    +0.049 A 
ATOM     31  C33 UNL     1      25.230   1.803  -1.679 +8.84 +0.00    +0.066 A 
ATOM     32  C32 UNL     1      26.403   2.354  -2.167 +0.41 +0.00    +0.037 A 
ATOM     33  C31 UNL     1      26.777   3.638  -1.771 -0.33 +0.00    +0.018 A 
BRANCH  31  34
ATOM     34  O6  UNL     1      24.901   0.545  -2.089 +1.48 -0.00    -0.361 OA
ATOM     35  H48 UNL     1      25.586   0.225  -2.699 -0.00 +0.00    +0.217 HD
ENDBRANCH  31  34
ENDBRANCH   7  11
BRANCH   8  36
ATOM     36  C13 UNL     1      26.992   8.947   3.470 +2.56 +0.00    +0.177 C 
ATOM     37  O2  UNL     1      27.724   9.844   3.842 +3.85 -0.00    -0.646 OA
BRANCH  36  38
ATOM     38  O3  UNL     1      27.422   7.683   3.335 +0.73 -0.00    -0.773 OA
ATOM     39  H47 UNL     1      28.390   7.735   3.476 -0.44 +0.00    +0.167 HD
ENDBRANCH  36  38
ENDBRANCH   8  36
ENDBRANCH   1   5
BRANCH   2  40
ATOM     40  C5  UNL     1      19.178   8.726   2.055 +4.51 +0.00    +0.126 C 
BRANCH  40  41
ATOM     41  C4  UNL     1      18.343   9.179   3.255 -0.51 +0.00    +0.057 C 
BRANCH  41  42
ATOM     42  C2  UNL     1      16.811   9.062   3.037 -0.54 +0.00    +0.055 C 
ATOM     43  C1  UNL     1      16.527   9.514   1.595 -0.52 +0.00    +0.045 C 
ATOM     44  C3  UNL     1      16.066   9.966   4.028 +0.49 +0.00    +0.045 C 
BRANCH  42  45
ATOM     45  O7  UNL     1      16.518   7.663   3.167 -0.75 -0.00    -0.381 OA
BRANCH  45  46
ATOM     46  C35 UNL     1      16.744   6.980   4.399 +3.60 +0.00    +0.171 C 
BRANCH  46  47
ATOM     47  C36 UNL     1      15.793   7.404   5.515 +3.26 +0.00    +0.063 C 
BRANCH  47  48
ATOM     48  C37 UNL     1      14.298   7.483   5.122 -0.48 +0.00    +0.055 C 
ATOM     49  C38 UNL     1      13.402   7.864   6.311 -0.40 +0.00    +0.045 C 
ATOM     50  C39 UNL     1      13.805   6.142   4.554 +0.38 +0.00    +0.045 C 
BRANCH  48  51
ATOM     51  O8  UNL     1      14.096   8.413   4.039 -0.25 -0.00    -0.380 OA
BRANCH  51  52
ATOM     52  C40 UNL     1      12.764   8.563   3.544 -0.06 +0.00    +0.178 C 
BRANCH  52  53
ATOM     53  C41 UNL     1      12.504   7.453   2.537 -0.12 +0.00    +0.129 C 
BRANCH  53  54
ATOM     54  C42 UNL     1      11.108   6.875   2.689 -0.27 +0.00    +0.220 C 
ATOM     55  N2  UNL     1      10.835   5.894   1.752 -0.09 -0.00    -0.349 N 
ATOM     56  H46 UNL     1      11.641   5.339   1.483 -0.20 +0.00    +0.163 HD
ATOM     57  O9  UNL     1      10.301   7.278   3.518 -0.24 -0.00    -0.274 OA
BRANCH  55  58
ATOM     58  C43 UNL     1       9.564   5.149   1.778 -0.07 +0.00    +0.170 C 
ATOM     59  C44 UNL     1       8.487   5.970   1.051 -0.16 +0.00    +0.177 C 
ATOM     60  C45 UNL     1       7.136   5.255   1.069 -0.12 +0.00    +0.180 C 
ATOM     61  C46 UNL     1       6.748   4.930   2.520 -0.11 +0.00    +0.179 C 
ATOM     62  O10 UNL     1       7.774   4.188   3.180 -0.07 -0.00    -0.349 OA
ATOM     63  C47 UNL     1       9.034   4.854   3.210 -0.11 +0.00    +0.282 C 
BRANCH  59  64
ATOM     64  O14 UNL     1       8.881   6.231  -0.305 -0.08 -0.00    -0.391 OA
ATOM     65  H52 UNL     1       8.045   6.246  -0.814 -0.04 +0.00    +0.210 HD
ENDBRANCH  59  64
BRANCH  60  66
ATOM     66  O13 UNL     1       6.186   6.119   0.430 -0.15 -0.00    -0.390 OA
ATOM     67  H51 UNL     1       6.515   6.260  -0.486 -0.37 +0.00    +0.210 HD
ENDBRANCH  60  66
BRANCH  61  68
ATOM     68  C48 UNL     1       5.458   4.098   2.577 -0.08 +0.00    +0.198 C 
BRANCH  68  69
ATOM     69  O12 UNL     1       5.666   2.881   3.288 -0.07 -0.00    -0.398 OA
ATOM     70  H50 UNL     1       6.576   2.919   3.640 +0.06 +0.00    +0.209 HD
ENDBRANCH  68  69
ENDBRANCH  61  68
BRANCH  63  71
ATOM     71  O11 UNL     1       9.908   4.002   3.925 -0.17 -0.00    -0.369 OA
ATOM     72  H49 UNL     1      10.582   3.718   3.290 -0.41 +0.00    +0.212 HD
ENDBRANCH  63  71
ENDBRANCH  55  58
ENDBRANCH  53  54
ENDBRANCH  52  53
ENDBRANCH  51  52
ENDBRANCH  48  51
ENDBRANCH  47  48
ENDBRANCH  46  47
ENDBRANCH  45  46
ENDBRANCH  42  45
ENDBRANCH  41  42
ENDBRANCH  40  41
ENDBRANCH   2  40
TORSDOF 22
TER
