USER    Run = 1
USER    DPF = ligand_99_receptor.dpf
USER  
USER    Estimated Free Energy of Binding    =   -8.41 kcal/mol  [=(1)+(2)+(3)-(4)]
USER    Estimated Inhibition Constant, Ki   =  688.66 nM (nanomolar)  [Temperature = 298.15 K]
USER    
USER    (1) Final Intermolecular Energy     =   -9.60 kcal/mol
USER        vdW + Hbond + desolv Energy     =   -9.60 kcal/mol
USER        Electrostatic Energy            =   +0.00 kcal/mol
USER    (2) Final Total Internal Energy     =   -1.86 kcal/mol
USER    (3) Torsional Free Energy           =   +1.19 kcal/mol
USER    (4) Unbound System's Energy  [=(2)] =   -1.86 kcal/mol
USER    
USER    
USER    NEWDPF move ligand_99.pdbqt
USER    NEWDPF about 0.000000 0.000000 0.000000
USER    NEWDPF tran0 17.411375 9.472417 3.448793
USER    NEWDPF quaternion0 -0.058370 -0.610786 -0.683931 -0.394679
USER    NEWDPF axisangle0 -0.063528 -0.664752 -0.744358 -133.508048
USER    NEWDPF quat0 -0.063528 -0.664752 -0.744358 -133.508048
USER    NEWDPF dihe0 -90.96 22.27 171.86 173.58 -163.70 60.52 -126.85 -21.56 -180.00 111.07 93.16 98.23 90.46 
USER  keepresnum = 1 
USER  
REMARK  13 active torsions:
REMARK  status: ('A' for Active; 'I' for Inactive)
REMARK    1  A    between atoms: C2_2  and  C3_3 
REMARK       I    between atoms: C3_3  and  N1_36 
REMARK    2  A    between atoms: C4_4  and  N1_36 
REMARK    3  A    between atoms: C6_6  and  C7_7 
REMARK       I    between atoms: C7_7  and  N2_37 
REMARK    4  A    between atoms: C8_8  and  N2_37 
REMARK    5  A    between atoms: C10_10  and  C11_11 
REMARK       I    between atoms: C11_11  and  N3_38 
REMARK    6  A    between atoms: C12_12  and  N3_38 
REMARK    7  A    between atoms: C14_14  and  C15_15 
REMARK       I    between atoms: C15_15  and  N4_39 
REMARK    8  A    between atoms: C16_16  and  N4_39 
REMARK    9  A    between atoms: C18_18  and  C19_19 
REMARK       I    between atoms: C19_19  and  N5_40 
REMARK   10  A    between atoms: C20_20  and  C21_21 
REMARK   11  A    between atoms: C20_20  and  N5_40 
REMARK   12  A    between atoms: C21_21  and  C22_22 
REMARK   13  A    between atoms: C22_22  and  N6_41 
USER                              x       y       z     vdW  Elec       q    Type
USER                           _______ _______ _______ _____ _____    ______ ____
ROOT
ATOM      1  C12 UNL     1      16.569   8.560   2.528 -0.49 +0.00    +0.053 A 
ATOM      2  C13 UNL     1      16.193   8.299   3.866 -0.48 +0.00    +0.066 A 
ATOM      3  C14 UNL     1      14.858   7.918   3.886 -0.42 +0.00    +0.105 A 
ATOM      4  C25 UNL     1      13.192   7.351   2.073 +0.67 +0.00    +0.156 C 
ATOM      5  C26 UNL     1      15.469   8.292   1.750 +0.66 +0.00    +0.120 A 
ATOM      6  N9  UNL     1      14.452   7.864   2.567 +0.23 -0.00    -0.354 N 
ENDROOT
BRANCH   1   7
ATOM      7  N3  UNL     1      17.820   8.981   2.123 -0.21 -0.00    -0.320 N 
ATOM      8  C11 UNL     1      18.261  10.290   2.077 -0.31 +0.00    +0.273 C 
ATOM      9  O3  UNL     1      17.642  11.263   2.492 -0.33 -0.00    -0.266 OA
ATOM     10  H30 UNL     1      18.488   8.252   1.915 +0.14 +0.00    +0.169 HD
BRANCH   8  11
ATOM     11  C10 UNL     1      19.603  10.417   1.534 -0.40 +0.00    +0.105 A 
ATOM     12  C9  UNL     1      20.688   9.600   1.818 -0.16 +0.00    +0.066 A 
ATOM     13  C8  UNL     1      21.802  10.045   1.068 -0.34 +0.00    +0.053 A 
ATOM     14  C28 UNL     1      21.385  11.151   0.367 +0.13 +0.00    +0.120 A 
ATOM     15  N10 UNL     1      20.075  11.402   0.689 -0.29 -0.00    -0.354 N 
ATOM     16  C27 UNL     1      19.360  12.587   0.262 -0.11 +0.00    +0.156 C 
BRANCH  13  17
ATOM     17  N2  UNL     1      23.051   9.452   1.076 -0.20 -0.00    -0.320 N 
ATOM     18  C7  UNL     1      23.413   8.320   1.786 -0.29 +0.00    +0.273 C 
ATOM     19  O2  UNL     1      22.648   7.673   2.494 +0.05 -0.00    -0.266 OA
ATOM     20  H29 UNL     1      23.734   9.871   0.465 +0.14 +0.00    +0.169 HD
BRANCH  18  21
ATOM     21  C6  UNL     1      24.813   7.936   1.610 -0.35 +0.00    +0.105 A 
ATOM     22  C5  UNL     1      25.370   6.843   0.951 -0.36 +0.00    +0.066 A 
ATOM     23  C4  UNL     1      26.782   6.913   1.051 -0.30 +0.00    +0.052 A 
ATOM     24  C30 UNL     1      27.068   8.048   1.764 -0.39 +0.00    +0.120 A 
ATOM     25  N11 UNL     1      25.888   8.668   2.089 -0.22 -0.00    -0.354 N 
ATOM     26  C29 UNL     1      25.812   9.901   2.845 -0.34 +0.00    +0.156 C 
BRANCH  23  27
ATOM     27  N1  UNL     1      27.665   5.993   0.514 -0.09 -0.00    -0.322 N 
ATOM     28  C3  UNL     1      27.311   4.790  -0.064 -0.22 +0.00    +0.244 C 
ATOM     29  O1  UNL     1      26.183   4.337  -0.205 -0.91 -0.00    -0.268 OA
ATOM     30  H28 UNL     1      28.642   6.245   0.563 +0.08 +0.00    +0.169 HD
BRANCH  28  31
ATOM     31  C2  UNL     1      28.508   4.035  -0.538 -0.27 +0.00    +0.064 C 
ATOM     32  C1  UNL     1      29.146   3.184   0.277 -0.38 +0.00    +0.017 C 
ENDBRANCH  28  31
ENDBRANCH  23  27
ENDBRANCH  18  21
ENDBRANCH  13  17
ENDBRANCH   8  11
ENDBRANCH   1   7
BRANCH   3  33
ATOM     33  C15 UNL     1      14.074   7.582   5.062 -0.33 +0.00    +0.273 C 
ATOM     34  O4  UNL     1      13.958   8.361   6.002 -0.10 -0.00    -0.266 OA
ATOM     35  N4  UNL     1      13.454   6.352   4.967 -0.21 -0.00    -0.320 N 
ATOM     36  H31 UNL     1      13.480   5.874   4.078 +0.08 +0.00    +0.169 HD
BRANCH  35  37
ATOM     37  C16 UNL     1      12.691   5.768   5.958 -0.39 +0.00    +0.053 A 
ATOM     38  C17 UNL     1      11.290   5.599   6.053 -0.30 +0.00    +0.066 A 
ATOM     39  C18 UNL     1      10.993   4.945   7.243 -0.33 +0.00    +0.104 A 
ATOM     40  N8  UNL     1      12.209   4.742   7.873 -0.21 -0.00    -0.354 N 
ATOM     41  C23 UNL     1      12.400   4.096   9.156 +0.57 +0.00    +0.156 C 
ATOM     42  C24 UNL     1      13.232   5.232   7.101 -0.46 +0.00    +0.120 A 
BRANCH  39  43
ATOM     43  C19 UNL     1       9.703   4.544   7.786 -0.33 +0.00    +0.268 C 
ATOM     44  O5  UNL     1       9.579   3.793   8.750 -0.20 -0.00    -0.266 OA
ATOM     45  N5  UNL     1       8.608   5.056   7.121 -0.18 -0.00    -0.355 N 
ATOM     46  H32 UNL     1       8.773   5.456   6.207 +0.10 +0.00    +0.162 HD
BRANCH  45  47
ATOM     47  C20 UNL     1       7.265   4.610   7.435 -0.40 +0.00    +0.130 C 
BRANCH  47  48
ATOM     48  C21 UNL     1       6.414   4.470   6.182 -0.40 +0.00    +0.095 C 
BRANCH  48  49
ATOM     49  C22 UNL     1       7.301   4.418   4.962 -0.30 +0.00    +0.069 C 
ATOM     50  N7  UNL     1       7.558   5.557   4.268 -0.04 -0.00    -0.389 N 
ATOM     51  H34 UNL     1       6.858   6.289   4.276 +0.07 +0.00    +0.157 HD
ATOM     52  H35 UNL     1       7.952   5.373   3.349 +0.08 +0.00    +0.157 HD
BRANCH  49  53
ATOM     53  N6  UNL     1       7.809   3.309   4.539 -0.10 -0.00    -0.389 N 
ATOM     54  H33 UNL     1       7.283   2.504   4.893 -0.49 +0.00    +0.157 HD
ATOM     55  H6  UNL     1       8.625   3.242   3.931 +0.01 +0.00    +0.157 HD
ENDBRANCH  49  53
ENDBRANCH  48  49
ENDBRANCH  47  48
ENDBRANCH  45  47
ENDBRANCH  39  43
ENDBRANCH  35  37
ENDBRANCH   3  33
TORSDOF 13
TER
