USER    Run = 1
USER    DPF = ligand_523_receptor.dpf
USER  
USER    Estimated Free Energy of Binding    = +118.40 kcal/mol  [=(1)+(2)+(3)-(4)]
USER    
USER    (1) Final Intermolecular Energy     = +117.21 kcal/mol
USER        vdW + Hbond + desolv Energy     = +117.21 kcal/mol
USER        Electrostatic Energy            =   +0.00 kcal/mol
USER    (2) Final Total Internal Energy     =   -2.97 kcal/mol
USER    (3) Torsional Free Energy           =   +1.19 kcal/mol
USER    (4) Unbound System's Energy  [=(2)] =   -2.97 kcal/mol
USER    
USER    
USER    NEWDPF move ligand_523.pdbqt
USER    NEWDPF about 0.000000 0.000000 0.000000
USER    NEWDPF tran0 11.188612 11.288563 4.601652
USER    NEWDPF quaternion0 0.098191 -0.824413 0.547650 -0.103834
USER    NEWDPF axisangle0 0.098724 -0.828894 0.550626 -168.080031
USER    NEWDPF quat0 0.098724 -0.828894 0.550626 -168.080031
USER    NEWDPF dihe0 -121.33 36.65 68.82 19.19 139.86 -159.53 168.75 141.10 180.00 21.27 -83.31 -11.69 -101.84 -179.96 -97.69 -147.00 180.00 -57.25 -136.94 36.17 -122.61 -138.36 -63.55 180.00 
USER  keepresnum = 1 
USER  
REMARK  24 active torsions:
REMARK  status: ('A' for Active; 'I' for Inactive)
REMARK       I    between atoms: C2_2  and  N1_39 
REMARK       I    between atoms: C2_2  and  N3_42 
REMARK    1  A    between atoms: C4_4  and  C5_5 
REMARK    2  A    between atoms: C4_4  and  N3_42 
REMARK    3  A    between atoms: C5_5  and  C6_6 
REMARK    4  A    between atoms: C6_6  and  C7_7 
REMARK    5  A    between atoms: C7_7  and  C8_8 
REMARK       I    between atoms: C8_8  and  N4_43 
REMARK    6  A    between atoms: C9_9  and  N4_43 
REMARK    7  A    between atoms: C10_10  and  S2_64 
REMARK    8  A    between atoms: C11_11  and  N5_44 
REMARK    9  A    between atoms: C15_15  and  C16_16 
REMARK       I    between atoms: C15_15  and  N5_44 
REMARK   10  A    between atoms: C18_18  and  C20_20 
REMARK       I    between atoms: C20_20  and  N8_49 
REMARK   11  A    between atoms: C21_21  and  N8_49 
REMARK   12  A    between atoms: C25_25  and  N10_51 
REMARK   13  A    between atoms: C26_26  and  S1_63 
REMARK   14  A    between atoms: C27_27  and  C28_28 
REMARK   15  A    between atoms: C27_27  and  S1_63 
REMARK   16  A    between atoms: C28_28  and  N9_50 
REMARK   17  A    between atoms: C29_29  and  C30_30 
REMARK       I    between atoms: C29_29  and  N10_51 
REMARK   18  A    between atoms: C30_30  and  C31_31 
REMARK   19  A    between atoms: C31_31  and  C32_32 
REMARK   20  A    between atoms: C32_32  and  C33_33 
REMARK   21  A    between atoms: C33_33  and  N11_52 
REMARK       I    between atoms: C34_34  and  N11_52 
REMARK       I    between atoms: C34_34  and  N13_55 
REMARK   22  A    between atoms: C37_37  and  C38_38 
REMARK   23  A    between atoms: C37_37  and  S2_64 
REMARK   24  A    between atoms: C38_38  and  N14_56 
USER                              x       y       z     vdW  Elec       q    Type
USER                           _______ _______ _______ _____ _____    ______ ____
ROOT
ATOM      1  C16 UNL     1      10.450   8.870   5.274 +0.54 +0.00    +0.104 A 
ATOM      2  C17 UNL     1      11.742   8.872   4.806 +2.18 +0.00    +0.070 A 
ATOM      3  C18 UNL     1      12.687   9.194   5.749 +9.79 +0.00    +0.104 A 
ATOM      4  C19 UNL     1      11.113   9.451   7.379 +2.17 +0.00    +0.181 A 
ATOM      5  N6  UNL     1      12.408   9.485   7.048 +1.28 -0.00    -0.348 N 
ATOM      6  H6  UNL     1      13.137   9.713   7.724 +0.12 +0.00    +0.167 HD
ATOM      7  N7  UNL     1      10.101   9.160   6.555 +2.87 -0.00    -0.348 N 
ATOM      8  H7  UNL     1       9.130   9.156   6.868 +6.53 +0.00    +0.167 HD
ENDROOT
BRANCH   1   9
ATOM      9  C15 UNL     1       9.320   8.531   4.348 +2.58 +0.00    +0.272 C 
ATOM     10  N5  UNL     1       8.661   7.373   4.700 +3.47 -0.00    -0.320 N 
ATOM     11  H46 UNL     1       9.022   6.903   5.531 +0.19 +0.00    +0.169 HD
ATOM     12  O2  UNL     1       9.070   9.266   3.401 +0.52 -0.00    -0.266 OA
BRANCH  10  13
ATOM     13  C11 UNL     1       7.581   6.729   4.055 +0.50 +0.00    +0.055 A 
ATOM     14  C10 UNL     1       7.755   6.309   2.713 -0.21 +0.00    +0.054 A 
ATOM     15  C9  UNL     1       6.690   5.700   2.004 -0.17 +0.00    +0.055 A 
ATOM     16  C14 UNL     1       5.470   5.505   2.656 -0.17 +0.00    +0.050 A 
ATOM     17  C13 UNL     1       5.314   5.903   3.984 -0.13 +0.00    +0.015 A 
ATOM     18  C12 UNL     1       6.355   6.508   4.685 +4.12 +0.00    +0.050 A 
ATOM     19 BR1  UNL     1       3.654   5.617   4.850 -0.33 -0.00    -0.051 Br
BRANCH  14  20
ATOM     20  S2  UNL     1       9.343   6.603   1.888 -0.34 -0.00    -0.124 SA
BRANCH  20  21
ATOM     21  C37 UNL     1       8.871   8.009   0.808 +1.05 +0.00    +0.109 C 
BRANCH  21  22
ATOM     22  C38 UNL     1       9.518   7.986  -0.583 +0.36 +0.00    +0.277 C 
BRANCH  22  23
ATOM     23  N14 UNL     1       8.546   7.988  -1.680 -0.38 +0.00    +0.079 N 
ATOM     24  H53 UNL     1       7.986   7.136  -1.642 -0.33 +0.00    +0.312 HD
ATOM     25  H54 UNL     1       7.874   8.749  -1.512 -0.25 +0.00    +0.312 HD
ENDBRANCH  22  23
ENDBRANCH  21  22
ENDBRANCH  20  21
ENDBRANCH  14  20
BRANCH  15  26
ATOM     26  N4  UNL     1       6.915   5.297   0.664 -0.05 -0.00    -0.326 N 
ATOM     27  C8  UNL     1       8.005   4.626   0.145 -0.08 +0.00    +0.222 C 
ATOM     28  O1  UNL     1       8.970   4.204   0.774 -0.09 -0.00    -0.273 OA
ATOM     29  H45 UNL     1       6.190   5.588   0.008 -0.02 +0.00    +0.169 HD
BRANCH  27  30
ATOM     30  C7  UNL     1       7.916   4.427  -1.358 -0.09 +0.00    +0.103 C 
BRANCH  30  31
ATOM     31  C6  UNL     1       6.595   3.783  -1.779 -0.07 +0.00    +0.011 C 
BRANCH  31  32
ATOM     32  C5  UNL     1       6.712   3.046  -3.119 -0.17 +0.00    +0.021 C 
BRANCH  32  33
ATOM     33  C4  UNL     1       7.018   1.558  -2.980 -0.10 +0.00    +0.138 C 
BRANCH  33  34
ATOM     34  N3  UNL     1       7.507   1.211  -1.652 -0.06 -0.00    -0.227 N 
ATOM     35  C2  UNL     1       8.813   0.891  -1.387 +0.11 +0.00    +0.668 C 
ATOM     36  N1  UNL     1       8.872   0.627  -0.047 -0.17 -0.00    -0.231 N 
ATOM     37  N2  UNL     1       9.692   0.881  -2.316 -0.12 -0.00    -0.231 N 
ATOM     38  C1  UNL     1      10.066   0.528   0.756 -0.35 +0.00    +0.165 C 
ATOM     39  H43 UNL     1       8.152   1.148   0.442 +0.08 +0.00    +0.177 HD
ATOM     40  C3  UNL     1      11.077   0.549  -2.075 -0.36 +0.00    +0.165 C 
ATOM     41  H2  UNL     1       9.403   1.116  -3.265 +0.19 +0.00    +0.177 HD
ATOM     42  H44 UNL     1       6.846   0.665  -1.115 +0.06 +0.00    +0.177 HD
ENDBRANCH  33  34
ENDBRANCH  32  33
ENDBRANCH  31  32
ENDBRANCH  30  31
ENDBRANCH  27  30
ENDBRANCH  15  26
ENDBRANCH  10  13
ENDBRANCH   1   9
BRANCH   3  43
ATOM     43  C20 UNL     1      14.136   9.229   5.367 +1.75 +0.00    +0.272 C 
ATOM     44  N8  UNL     1      14.367   8.833   4.059 -0.15 -0.00    -0.320 N 
ATOM     45  H47 UNL     1      13.536   8.900   3.475 -0.10 +0.00    +0.169 HD
ATOM     46  O3  UNL     1      14.964   9.650   6.163+17.44 -0.00    -0.266 OA
BRANCH  44  47
ATOM     47  C21 UNL     1      15.628   8.843   3.423 -0.44 +0.00    +0.055 A 
ATOM     48  C22 UNL     1      16.406   7.694   3.602 -0.41 +0.00    +0.050 A 
ATOM     49  C23 UNL     1      17.644   7.581   2.975 -0.50 +0.00    +0.015 A 
ATOM     50  C24 UNL     1      18.137   8.608   2.173 -0.08 +0.00    +0.050 A 
ATOM     51 BR2  UNL     1      18.658   6.000   3.199+41.97 -0.00    -0.051 Br
ATOM     52  C25 UNL     1      17.406   9.790   2.024 -0.43 +0.00    +0.055 A 
ATOM     53  C26 UNL     1      16.155   9.929   2.685 -0.41 +0.00    +0.054 A 
BRANCH  52  54
ATOM     54  N10 UNL     1      17.860  10.873   1.231 -0.21 -0.00    -0.326 N 
ATOM     55  C29 UNL     1      18.610  10.840   0.070 -0.33 +0.00    +0.222 C 
ATOM     56  O4  UNL     1      19.062   9.838  -0.472 +0.36 -0.00    -0.273 OA
ATOM     57  H50 UNL     1      17.577  11.786   1.579 +0.15 +0.00    +0.169 HD
BRANCH  55  58
ATOM     58  C30 UNL     1      18.840  12.240  -0.482 +2.89 +0.00    +0.103 C 
BRANCH  58  59
ATOM     59  C31 UNL     1      20.325  12.560  -0.659 +2.82 +0.00    +0.010 C 
BRANCH  59  60
ATOM     60  C32 UNL     1      21.189  11.322  -0.903 +5.43 +0.00    +0.015 C 
BRANCH  60  61
ATOM     61  C33 UNL     1      22.203  11.059   0.212 +1.19 +0.00    +0.095 C 
BRANCH  61  62
ATOM     62  N11 UNL     1      22.684   9.687   0.121 -0.29 -0.00    -0.265 NA
ATOM     63  C34 UNL     1      23.193   9.053   1.226 -0.41 +0.00    +0.147 C 
ATOM     64  N12 UNL     1      23.192   9.637   2.364 -0.15 -0.00    -0.371 N 
ATOM     65  N13 UNL     1      23.633   7.832   0.800 -0.15 -0.00    -0.371 N 
ATOM     66  C35 UNL     1      23.763   9.038   3.547 -0.49 +0.00    +0.148 C 
ATOM     67  H12 UNL     1      22.771  10.563   2.440 +0.21 +0.00    +0.161 HD
ATOM     68  C36 UNL     1      23.951   6.707   1.644 +0.09 +0.00    +0.148 C 
ATOM     69  H52 UNL     1      23.098   7.538  -0.010 +0.11 +0.00    +0.161 HD
ATOM     70  H51 UNL     1      23.278   9.540  -0.687 +0.09 +0.00    +0.130 HD
ENDBRANCH  61  62
ENDBRANCH  60  61
ENDBRANCH  59  60
ENDBRANCH  58  59
ENDBRANCH  55  58
ENDBRANCH  52  54
BRANCH  53  71
ATOM     71  S1  UNL     1      15.389  11.576   2.712 +2.24 -0.00    -0.124 SA
BRANCH  71  72
ATOM     72  C27 UNL     1      15.195  11.861   0.915 +0.38 +0.00    +0.109 C 
BRANCH  72  73
ATOM     73  C28 UNL     1      13.742  12.149   0.523 +5.80 +0.00    +0.277 C 
BRANCH  73  74
ATOM     74  N9  UNL     1      13.503  11.836  -0.887 +1.42 +0.00    +0.079 N 
ATOM     75  H48 UNL     1      14.375  11.914  -1.412 +2.46 +0.00    +0.312 HD
ATOM     76  H49 UNL     1      12.871  12.530  -1.285 +0.31 +0.00    +0.312 HD
ENDBRANCH  73  74
ENDBRANCH  72  73
ENDBRANCH  71  72
ENDBRANCH  53  71
ENDBRANCH  44  47
ENDBRANCH   3  43
TORSDOF 24
TER
