USER    Run = 1
USER    DPF = ligand_264_receptor.dpf
USER  
USER    Estimated Free Energy of Binding    =  +1.88e+003 kcal/mol  [=(1)+(2)+(3)-(4)]
USER    
USER    (1) Final Intermolecular Energy     =  +1.88e+003 kcal/mol
USER        vdW + Hbond + desolv Energy     =  +1.88e+003 kcal/mol
USER        Electrostatic Energy            =   +0.00 kcal/mol
USER    (2) Final Total Internal Energy     =  +12.76 kcal/mol
USER    (3) Torsional Free Energy           =   +1.19 kcal/mol
USER    (4) Unbound System's Energy  [=(2)] =  +12.76 kcal/mol
USER    
USER    
USER    NEWDPF move ligand_264.pdbqt
USER    NEWDPF about 0.000000 0.000000 0.000000
USER    NEWDPF tran0 15.066212 11.160802 8.950084
USER    NEWDPF quaternion0 0.791419 0.452542 0.156906 0.379793
USER    NEWDPF axisangle0 0.855522 0.489196 0.169615 135.358253
USER    NEWDPF quat0 0.855522 0.489196 0.169615 135.358253
USER    NEWDPF dihe0 -115.03 60.81 -72.94 114.03 8.15 180.00 150.89 -89.32 87.17 -56.46 -26.91 73.47 60.80 -53.52 61.28 129.38 107.40 -68.60 54.51 5.63 19.42 157.79 
USER  keepresnum = 1 
USER  
REMARK  22 active torsions:
REMARK  status: ('A' for Active; 'I' for Inactive)
REMARK    1  A    between atoms: C2_2  and  C3_3 
REMARK       I    between atoms: C2_2  and  N1_51 
REMARK    2  A    between atoms: C5_5  and  N3_53 
REMARK    3  A    between atoms: C8_8  and  C9_9 
REMARK       I    between atoms: C8_8  and  N3_53 
REMARK    4  A    between atoms: C11_11  and  N5_55 
REMARK    5  A    between atoms: C14_14  and  C15_15 
REMARK       I    between atoms: C14_14  and  N5_55 
REMARK    6  A    between atoms: C17_17  and  N7_57 
REMARK    7  A    between atoms: C20_20  and  C21_21 
REMARK       I    between atoms: C20_20  and  N7_57 
REMARK    8  A    between atoms: C24_24  and  C25_25 
REMARK    9  A    between atoms: C24_24  and  N9_60 
REMARK   10  A    between atoms: C25_25  and  C26_26 
REMARK   11  A    between atoms: C26_26  and  N10_61 
REMARK   12  A    between atoms: C28_28  and  N12_63 
REMARK   13  A    between atoms: C30_30  and  C31_31 
REMARK       I    between atoms: C31_31  and  N11_62 
REMARK   14  A    between atoms: C33_33  and  C34_34 
REMARK       I    between atoms: C33_33  and  N12_63 
REMARK   15  A    between atoms: C36_36  and  N15_66 
REMARK   16  A    between atoms: C38_38  and  C39_39 
REMARK   17  A    between atoms: C38_38  and  N13_64 
REMARK   18  A    between atoms: C39_39  and  C40_40 
REMARK   19  A    between atoms: C40_40  and  N14_65 
REMARK   20  A    between atoms: C41_41  and  C42_42 
REMARK       I    between atoms: C41_41  and  N15_66 
REMARK   21  A    between atoms: C43_43  and  N18_70 
REMARK   22  A    between atoms: C46_46  and  C47_47 
REMARK       I    between atoms: C46_46  and  N18_70 
USER                              x       y       z     vdW  Elec       q    Type
USER                           _______ _______ _______ _____ _____    ______ ____
ROOT
ATOM      1  C27 UNL     1      16.567   9.675   4.075 -0.28 +0.00    +0.121 A 
ATOM      2  C28 UNL     1      16.089   8.780   5.003 +3.39 +0.00    +0.053 A 
ATOM      3  C29 UNL     1      17.012   8.769   6.072+99.99 +0.00    +0.066 A 
ATOM      4  C30 UNL     1      18.042   9.657   5.784+30.78 +0.00    +0.105 A 
ATOM      5  N10 UNL     1      17.734  10.218   4.561 +0.22 -0.00    -0.350 N 
ENDROOT
BRANCH   5   6
ATOM      6  C26 UNL     1      18.470  11.282   3.893 +7.36 +0.00    +0.130 C 
BRANCH   6   7
ATOM      7  C25 UNL     1      19.552  10.783   2.933 +0.72 +0.00    +0.040 C 
BRANCH   7   8
ATOM      8  C24 UNL     1      20.323   9.579   3.472 +1.39 +0.00    +0.132 C 
BRANCH   8   9
ATOM      9  N9  UNL     1      21.401   9.188   2.580 -0.18 -0.00    -0.337 N 
ATOM     10  C21 UNL     1      21.447   9.334   1.211 +0.10 +0.00    +0.176 A 
ATOM     11  N8  UNL     1      22.605   8.880   0.742 -0.19 -0.00    -0.346 N 
ATOM     12  C22 UNL     1      23.301   8.426   1.830 -0.35 +0.00    +0.107 A 
ATOM     13  H8  UNL     1      22.913   8.872  -0.230 +0.12 +0.00    +0.167 HD
ATOM     14  C23 UNL     1      22.574   8.606   2.981 -0.22 +0.00    +0.110 A 
BRANCH  10  15
ATOM     15  C20 UNL     1      20.424   9.902   0.335 +0.02 +0.00    +0.290 C 
ATOM     16  N7  UNL     1      19.366   9.027   0.173 +6.23 -0.00    -0.319 N 
ATOM     17  H52 UNL     1      19.469   8.140   0.660+37.43 +0.00    +0.169 HD
ATOM     18  O4  UNL     1      20.517  11.010  -0.186 -0.39 -0.00    -0.264 OA
BRANCH  16  19
ATOM     19  C17 UNL     1      18.223   9.239  -0.565 +0.25 +0.00    +0.053 A 
ATOM     20  C16 UNL     1      16.903   9.207  -0.050 -0.44 +0.00    +0.066 A 
ATOM     21  C15 UNL     1      16.006   9.461  -1.084+39.19 +0.00    +0.105 A 
ATOM     22  N6  UNL     1      16.787   9.676  -2.209+25.65 -0.00    -0.354 N 
ATOM     23  C18 UNL     1      18.116   9.532  -1.900+36.26 +0.00    +0.120 A 
ATOM     24  C19 UNL     1      16.301   9.993  -3.536+99.99 +0.00    +0.156 C 
BRANCH  21  25
ATOM     25  C14 UNL     1      14.545   9.534  -1.069+78.76 +0.00    +0.273 C 
ATOM     26  N5  UNL     1      13.927   8.312  -0.866+19.53 -0.00    -0.320 N 
ATOM     27  H51 UNL     1      14.508   7.491  -0.810 -0.00 +0.00    +0.169 HD
ATOM     28  O3  UNL     1      13.949  10.592  -1.246+54.18 -0.00    -0.266 OA
BRANCH  26  29
ATOM     29  C11 UNL     1      12.564   8.093  -0.780+49.57 +0.00    +0.053 A 
ATOM     30  C10 UNL     1      11.868   7.757   0.409+14.21 +0.00    +0.066 A 
ATOM     31  C9  UNL     1      10.514   7.618   0.117 +0.72 +0.00    +0.105 A 
ATOM     32  N4  UNL     1      10.394   7.893  -1.235 +0.02 -0.00    -0.354 N 
ATOM     33  C12 UNL     1      11.625   8.163  -1.776+12.65 +0.00    +0.120 A 
ATOM     34  C13 UNL     1       9.163   7.883  -1.999 -0.35 +0.00    +0.156 C 
BRANCH  31  35
ATOM     35  C8  UNL     1       9.392   7.285   0.994 -0.15 +0.00    +0.273 C 
ATOM     36  N3  UNL     1       9.330   5.945   1.332 -0.07 -0.00    -0.320 N 
ATOM     37  H50 UNL     1       9.988   5.316   0.900 +0.00 +0.00    +0.169 HD
ATOM     38  O2  UNL     1       8.584   8.134   1.360 +0.03 -0.00    -0.266 OA
BRANCH  36  39
ATOM     39  C5  UNL     1       8.398   5.358   2.169 -0.15 +0.00    +0.053 A 
ATOM     40  C4  UNL     1       7.140   4.851   1.757 -0.10 +0.00    +0.066 A 
ATOM     41  C3  UNL     1       6.475   4.334   2.864 -0.10 +0.00    +0.104 A 
ATOM     42  N2  UNL     1       7.338   4.508   3.932 -0.05 -0.00    -0.354 N 
ATOM     43  C6  UNL     1       8.486   5.134   3.519 -0.15 +0.00    +0.120 A 
ATOM     44  C7  UNL     1       7.085   4.111   5.303 -0.27 +0.00    +0.156 C 
BRANCH  41  45
ATOM     45  C2  UNL     1       5.167   3.705   2.958 -0.07 +0.00    +0.268 C 
ATOM     46  N1  UNL     1       4.118   4.579   3.158 -0.03 -0.00    -0.360 N 
ATOM     47  C1  UNL     1       2.783   4.091   3.393 -0.09 +0.00    +0.149 C 
ATOM     48  H49 UNL     1       4.335   5.522   3.440 +0.05 +0.00    +0.162 HD
ATOM     49  O1  UNL     1       4.991   2.492   2.890 -0.10 -0.00    -0.266 OA
ENDBRANCH  41  45
ENDBRANCH  36  39
ENDBRANCH  31  35
ENDBRANCH  26  29
ENDBRANCH  21  25
ENDBRANCH  16  19
ENDBRANCH  10  15
ENDBRANCH   8   9
ENDBRANCH   7   8
ENDBRANCH   6   7
ENDBRANCH   5   6
BRANCH   4  50
ATOM     50  C31 UNL     1      19.216   9.972   6.578+99.99 +0.00    +0.268 C 
ATOM     51  N11 UNL     1      20.250   9.074   6.424+31.54 -0.00    -0.360 N 
ATOM     52  C32 UNL     1      21.387   9.114   7.304 +0.98 +0.00    +0.149 C 
ATOM     53  H53 UNL     1      19.974   8.170   6.062 +1.50 +0.00    +0.162 HD
ATOM     54  O5  UNL     1      19.272  10.920   7.355+14.55 -0.00    -0.266 OA
ENDBRANCH   4  50
BRANCH   2  55
ATOM     55  N12 UNL     1      14.917   8.072   4.820 -0.18 -0.00    -0.320 N 
ATOM     56  C33 UNL     1      14.825   6.700   4.665 +0.62 +0.00    +0.273 C 
ATOM     57  O6  UNL     1      15.789   5.940   4.702+49.51 -0.00    -0.266 OA
ATOM     58  H54 UNL     1      14.066   8.612   4.844 +0.12 +0.00    +0.169 HD
BRANCH  56  59
ATOM     59  C34 UNL     1      13.458   6.215   4.478 +0.06 +0.00    +0.105 A 
ATOM     60  C35 UNL     1      12.999   5.155   3.697+99.99 +0.00    +0.066 A 
ATOM     61  C36 UNL     1      11.597   5.055   3.830 +1.44 +0.00    +0.053 A 
ATOM     62  C37 UNL     1      11.211   6.045   4.698 -0.24 +0.00    +0.121 A 
ATOM     63  N13 UNL     1      12.330   6.743   5.089 -0.13 -0.00    -0.350 N 
BRANCH  61  64
ATOM     64  N15 UNL     1      10.708   4.177   3.255 +2.89 -0.00    -0.319 N 
ATOM     65  C41 UNL     1      10.716   2.803   3.391+11.88 +0.00    +0.290 C 
ATOM     66  O7  UNL     1      11.530   2.153   4.042 +0.28 -0.00    -0.264 OA
ATOM     67  H57 UNL     1       9.965   4.553   2.667 -0.29 +0.00    +0.169 HD
BRANCH  65  68
ATOM     68  C42 UNL     1       9.620   2.193   2.650 +2.40 +0.00    +0.178 A 
ATOM     69  N16 UNL     1       8.493   2.840   2.389 -0.12 -0.00    -0.323 N 
ATOM     70  C43 UNL     1       7.712   1.972   1.689 -0.19 +0.00    +0.125 A 
ATOM     71  H16 UNL     1       8.260   3.795   2.658 +0.08 +0.00    +0.169 HD
ATOM     72  C44 UNL     1       8.354   0.770   1.513 +0.91 +0.00    +0.140 A 
ATOM     73  N17 UNL     1       9.567   0.922   2.129 +3.72 -0.00    -0.339 N 
ATOM     74  C45 UNL     1      10.601  -0.080   2.213 +3.87 +0.00    +0.157 C 
BRANCH  70  75
ATOM     75  N18 UNL     1       6.460   2.266   1.228 -0.06 -0.00    -0.305 N 
ATOM     76  C46 UNL     1       6.173   2.865   0.021 -0.03 +0.00    +0.291 C 
ATOM     77  O8  UNL     1       6.986   3.232  -0.822 -0.05 -0.00    -0.264 OA
ATOM     78  H58 UNL     1       5.660   2.030   1.806 +0.06 +0.00    +0.170 HD
BRANCH  76  79
ATOM     79  C47 UNL     1       4.732   3.021  -0.152 -0.06 +0.00    +0.176 A 
ATOM     80  N19 UNL     1       4.196   3.998  -0.877 -0.10 -0.00    -0.346 N 
ATOM     81  C48 UNL     1       2.840   3.815  -0.803 +0.05 +0.00    +0.107 A 
ATOM     82  H19 UNL     1       4.692   4.731  -1.384 -0.11 +0.00    +0.167 HD
ATOM     83  C49 UNL     1       2.536   2.723  -0.029 -0.06 +0.00    +0.109 A 
ATOM     84  N20 UNL     1       3.744   2.226   0.379 -0.03 -0.00    -0.342 N 
ATOM     85  C50 UNL     1       3.938   1.072   1.222 -0.15 +0.00    +0.157 C 
ENDBRANCH  76  79
ENDBRANCH  70  75
ENDBRANCH  65  68
ENDBRANCH  61  64
BRANCH  63  86
ATOM     86  C38 UNL     1      12.281   7.861   6.022 -0.37 +0.00    +0.130 C 
BRANCH  86  87
ATOM     87  C39 UNL     1      12.097   7.445   7.483 +0.03 +0.00    +0.050 C 
BRANCH  87  88
ATOM     88  C40 UNL     1      13.332   6.819   8.137 -0.41 +0.00    +0.268 C 
BRANCH  88  89
ATOM     89  N14 UNL     1      13.725   7.473   9.378 -0.53 +0.00    +0.078 N 
ATOM     90  H55 UNL     1      13.998   8.438   9.197 +0.01 +0.00    +0.312 HD
ATOM     91  H56 UNL     1      14.531   7.008   9.792 +0.28 +0.00    +0.312 HD
ENDBRANCH  88  89
ENDBRANCH  87  88
ENDBRANCH  86  87
ENDBRANCH  63  86
ENDBRANCH  56  59
ENDBRANCH   2  55
TORSDOF 22
TER
