USER    Run = 1
USER    DPF = ligand_473_receptor.dpf
USER  
USER    Estimated Free Energy of Binding    =  +2.59e+007 kcal/mol  [=(1)+(2)+(3)-(4)]
USER    
USER    (1) Final Intermolecular Energy     =  +2.59e+007 kcal/mol
USER        vdW + Hbond + desolv Energy     =  +1.31e+007 kcal/mol
USER        Electrostatic Energy            =  +1.29e+007 kcal/mol
USER    (2) Final Total Internal Energy     =   +0.00 kcal/mol
USER    (3) Torsional Free Energy           =   +1.19 kcal/mol
USER    (4) Unbound System's Energy  [=(2)] =   +0.00 kcal/mol
USER    
USER    
USER    NEWDPF move ligand_473.pdbqt
USER    NEWDPF about 0.000000 0.000000 0.000000
USER    NEWDPF tran0 15.843980 4.100933 3.677061
USER    NEWDPF quaternion0 0.229010 0.105550 0.948947 0.189510
USER    NEWDPF axisangle0 0.233237 0.107498 0.966460 158.151655
USER    NEWDPF quat0 0.233237 0.107498 0.966460 158.151655
USER  keepresnum = 1 
USER  
REMARK  0 active torsions:
REMARK  status: ('A' for Active; 'I' for Inactive)
REMARK       I    between atoms: C4_4  and  N9_74 
REMARK       I    between atoms: C5_5  and  C6_6 
REMARK       I    between atoms: C6_6  and  N2_67 
REMARK       I    between atoms: C7_7  and  N2_67 
REMARK       I    between atoms: C9_9  and  C11_11 
REMARK       I    between atoms: C11_11  and  N4_69 
REMARK       I    between atoms: C12_12  and  N4_69 
REMARK       I    between atoms: C14_14  and  C16_16 
REMARK       I    between atoms: C16_16  and  N6_71 
REMARK       I    between atoms: C17_17  and  C18_18 
REMARK       I    between atoms: C17_17  and  N6_71 
REMARK       I    between atoms: C18_18  and  C19_19 
REMARK       I    between atoms: C19_19  and  N7_72 
REMARK       I    between atoms: C20_20  and  C21_21 
REMARK       I    between atoms: C20_20  and  N7_72 
REMARK       I    between atoms: C21_21  and  O5_94 
REMARK       I    between atoms: C22_22  and  C23_23 
REMARK       I    between atoms: C22_22  and  O5_94 
REMARK       I    between atoms: C23_23  and  O6_95 
REMARK       I    between atoms: C24_24  and  C25_25 
REMARK       I    between atoms: C24_24  and  O6_95 
REMARK       I    between atoms: C25_25  and  O7_96 
REMARK       I    between atoms: C26_26  and  C27_27 
REMARK       I    between atoms: C26_26  and  O7_96 
REMARK       I    between atoms: C27_27  and  N8_73 
REMARK       I    between atoms: C31_31  and  C32_32 
REMARK       I    between atoms: C31_31  and  N9_74 
REMARK       I    between atoms: C34_34  and  N11_76 
REMARK       I    between atoms: C37_37  and  C38_38 
REMARK       I    between atoms: C37_37  and  N11_76 
REMARK       I    between atoms: C38_38  and  C39_39 
REMARK       I    between atoms: C39_39  and  C40_40 
REMARK       I    between atoms: C40_40  and  N12_77 
REMARK       I    between atoms: C41_41  and  C42_42 
REMARK       I    between atoms: C41_41  and  N12_77 
REMARK       I    between atoms: C43_43  and  N15_81 
REMARK       I    between atoms: C46_46  and  C47_47 
REMARK       I    between atoms: C46_46  and  N15_81 
REMARK       I    between atoms: C49_49  and  N17_83 
REMARK       I    between atoms: C52_52  and  C53_53 
REMARK       I    between atoms: C52_52  and  N17_83 
REMARK       I    between atoms: C55_55  and  N19_85 
REMARK       I    between atoms: C58_58  and  C59_59 
REMARK       I    between atoms: C58_58  and  N19_85 
REMARK       I    between atoms: C60_60  and  N22_89 
REMARK       I    between atoms: C63_63  and  N22_89 
USER                              x       y       z     vdW  Elec       q    Type
USER                           _______ _______ _______ _____ _____    ______ ____
ROOT
ATOM      1  C1  UNL     1      10.907  -0.111   2.510 +6.44 +0.00    +0.021 C 
ATOM      2  C2  UNL     1      11.991  -0.102   3.571+99.99 +0.00    +0.063 A 
ATOM      3  C3  UNL     1      13.365   0.050   2.981+99.99 +0.00    +0.032 A 
ATOM      4  C4  UNL     1      13.917   1.195   3.395+99.99 +0.00    +0.105 A 
ATOM      5  C5  UNL     1      12.044   1.182   4.355+99.99 +0.00    +0.087 A 
ATOM      6  C6  UNL     1      10.899   1.598   5.248+28.66 +0.00    +0.269 C 
ATOM      7  C7  UNL     1      10.224   3.512   6.610 -0.44 +0.00    +0.053 A 
ATOM      8  C8  UNL     1      10.475   4.760   7.122 -0.32 +0.00    +0.120 A 
ATOM      9  C9  UNL     1       8.460   4.113   7.931 -0.47 +0.00    +0.105 A 
ATOM     10  C10 UNL     1       8.964   3.109   7.108 -0.25 +0.00    +0.066 A 
ATOM     11  C11 UNL     1       7.203   4.177   8.679+31.57 +0.00    +0.273 C 
ATOM     12  C12 UNL     1       5.287   2.765   9.326+99.99 +0.00    +0.053 A 
ATOM     13  C13 UNL     1       4.503   3.659  10.009+99.99 +0.00    +0.120 A 
ATOM     14  C14 UNL     1       3.413   1.678  10.064+99.99 +0.00    +0.104 A 
ATOM     15  C15 UNL     1       4.603   1.523   9.357+99.99 +0.00    +0.066 A 
ATOM     16  C16 UNL     1       2.374   0.708  10.362+34.40 +0.00    +0.268 C 
ATOM     17  C17 UNL     1       1.828  -1.703  10.488+99.99+99.99    +0.132 C 
ATOM     18  C18 UNL     1       0.602  -1.800   9.586+99.99+99.99    +0.122 C 
ATOM     19  C19 UNL     1      -0.667  -1.791  10.405+99.99+99.99    +0.219 C 
ATOM     20  C20 UNL     1      -2.163  -0.372  11.756+99.99+99.99    +0.148 C 
ATOM     21  C21 UNL     1      -1.906  -0.869  13.182+99.99+99.99    +0.187 C 
ATOM     22  C22 UNL     1      -4.215  -1.209  13.821+99.99+99.99    +0.193 C 
ATOM     23  C23 UNL     1      -4.169  -2.735  13.884+99.99+99.99    +0.193 C 
ATOM     24  C24 UNL     1      -5.507  -4.681  13.772+99.99+99.99    +0.193 C 
ATOM     25  C25 UNL     1      -6.953  -5.177  13.668+99.99+99.99    +0.194 C 
ATOM     26  C26 UNL     1      -7.560  -5.717  15.912+99.99+99.99    +0.270 C 
ATOM     27  C27 UNL     1      -8.335  -5.243  17.143+99.99+99.99    +0.240 C 
ATOM     28  C28 UNL     1      -9.550  -3.315  18.076+99.99+99.99    +0.149 C 
ATOM     29  C29 UNL     1       2.321   3.649  11.201+99.99+99.99    +0.156 C 
ATOM     30  C30 UNL     1       9.330   6.384   8.618+99.99 +0.00    +0.156 C 
ATOM     31  C31 UNL     1      15.777   2.793   3.361+99.99 +0.00    +0.274 C 
ATOM     32  C32 UNL     1      17.134   2.923   2.828+23.56 +0.00    +0.105 A 
ATOM     33  C33 UNL     1      18.016   1.946   2.372+99.99 +0.00    +0.066 A 
ATOM     34  C34 UNL     1      19.221   2.570   1.961+33.57 +0.00    +0.052 A 
ATOM     35  C35 UNL     1      19.059   3.914   2.177+99.99 +0.00    +0.120 A 
ATOM     36  C36 UNL     1      17.304   5.430   3.074+99.99 +0.00    +0.156 C 
ATOM     37  C37 UNL     1      21.505   2.515   1.043+26.16 +0.00    +0.222 C 
ATOM     38  C38 UNL     1      22.509   1.482   0.555+99.99 +0.00    +0.105 C 
ATOM     39  C39 UNL     1      23.859   2.079   0.164+31.26 +0.00    +0.029 C 
ATOM     40  C40 UNL     1      24.658   2.562   1.375+99.99 +0.00    +0.123 C 
ATOM     41  C41 UNL     1      27.043   2.185   0.789+99.99 +0.00    +0.285 C 
ATOM     42  C42 UNL     1      28.231   2.880   0.318 +0.21 +0.00    +0.178 A 
ATOM     43  C43 UNL     1      29.533   4.455  -0.344 -0.12 +0.00    +0.125 A 
ATOM     44  C44 UNL     1      30.293   3.316  -0.374 -0.12 +0.00    +0.140 A 
ATOM     45  C45 UNL     1      29.809   0.926   0.172+32.58 +0.00    +0.157 C 
ATOM     46  C46 UNL     1      31.071   6.173  -1.150 -0.02 +0.00    +0.274 C 
ATOM     47  C47 UNL     1      31.136   7.611  -1.344 -0.10 +0.00    +0.105 A 
ATOM     48  C48 UNL     1      31.688   8.269  -2.436 -0.13 +0.00    +0.066 A 
ATOM     49  C49 UNL     1      31.529   9.663  -2.256 -0.01 +0.00    +0.053 A 
ATOM     50  C50 UNL     1      30.920   9.833  -1.038 -0.17 +0.00    +0.120 A 
ATOM     51  C51 UNL     1      30.247   8.411   0.883 -0.10 +0.00    +0.156 C 
ATOM     52  C52 UNL     1      31.774  11.996  -3.021+99.99 +0.00    +0.273 C 
ATOM     53  C53 UNL     1      32.322  12.776  -4.131+99.99 +0.00    +0.105 A 
ATOM     54  C54 UNL     1      33.123  12.378  -5.199+99.99+99.99    +0.066 A 
ATOM     55  C55 UNL     1      33.395  13.500  -6.015+99.99+99.99    +0.053 A 
ATOM     56  C56 UNL     1      32.768  14.574  -5.436+99.99+99.99    +0.120 A 
ATOM     57  C57 UNL     1      31.361  15.005  -3.430+99.99+99.99    +0.156 C 
ATOM     58  C58 UNL     1      34.782  12.567  -7.817+99.99+99.99    +0.290 C 
ATOM     59  C59 UNL     1      35.469  13.037  -9.012+99.99+99.99    +0.178 A 
ATOM     60  C60 UNL     1      36.177  14.375 -10.535+99.99+99.99    +0.125 A 
ATOM     61  C61 UNL     1      36.678  13.141 -10.870+99.99+99.99    +0.140 A 
ATOM     62  C62 UNL     1      36.485  10.880  -9.807+99.99+99.99    +0.157 C 
ATOM     63  C63 UNL     1      35.871  16.761 -10.901+99.99+99.99    +0.219 C 
ATOM     64  C64 UNL     1      36.274  17.841 -11.876+99.99+99.99    +0.117 C 
ATOM     65  N1  UNL     1      13.121   1.905   4.241+99.99 -0.00    -0.341 N 
ATOM     66  H1  UNL     1      13.322   2.801   4.685 +0.27 +0.00    +0.167 HD
ATOM     67  N2  UNL     1      11.095   2.856   5.770 -0.10 -0.00    -0.321 N 
ATOM     68  N3  UNL     1       9.412   5.122   7.911 -0.18 -0.00    -0.354 N 
ATOM     69  N4  UNL     1       6.504   2.983   8.708+60.29 -0.00    -0.320 N 
ATOM     70  N5  UNL     1       3.376   3.009  10.442+99.99 -0.00    -0.354 N 
ATOM     71  N6  UNL     1       2.712  -0.608  10.125 +2.37 -0.00    -0.355 N 
ATOM     72  N7  UNL     1      -1.019  -0.553  10.887+99.99+99.99    -0.359 N 
ATOM     73  N8  UNL     1      -8.706  -3.918  17.081+99.99+99.99    -0.364 N 
ATOM     74  N9  UNL     1      15.158   1.602   3.018 +6.58 -0.00    -0.308 N 
ATOM     75  N10 UNL     1      17.814   4.123   2.712 +4.73 -0.00    -0.354 N 
ATOM     76  N11 UNL     1      20.326   1.912   1.453+24.02 -0.00    -0.326 N 
ATOM     77  N12 UNL     1      25.970   3.025   0.989+37.18 -0.00    -0.354 N 
ATOM     78  N13 UNL     1      28.264   4.188   0.087 -0.14 -0.00    -0.323 N 
ATOM     79  H13 UNL     1      27.501   4.854   0.207 +0.09 +0.00    +0.169 HD
ATOM     80  N14 UNL     1      29.457   2.319   0.044 -0.17 -0.00    -0.339 N 
ATOM     81  N15 UNL     1      29.860   5.745  -0.657 -0.02 -0.00    -0.306 N 
ATOM     82  N16 UNL     1      30.725   8.599  -0.470 -0.08 -0.00    -0.354 N 
ATOM     83  N17 UNL     1      31.936  10.628  -3.159 +8.96 -0.00    -0.320 N 
ATOM     84  N18 UNL     1      32.130  14.140  -4.301+99.99 -0.00    -0.354 N 
ATOM     85  N19 UNL     1      34.131  13.601  -7.173+99.99+99.99    -0.319 N 
ATOM     86  N20 UNL     1      35.439  14.304  -9.396+99.99+99.99    -0.323 N 
ATOM     87  H20 UNL     1      34.958  15.073  -8.930+99.99+99.99    +0.169 HD
ATOM     88  N21 UNL     1      36.221  12.296  -9.893+99.99+99.99    -0.339 N 
ATOM     89  N22 UNL     1      36.389  15.529 -11.248+99.99+99.99    -0.312 N 
ATOM     90  O1  UNL     1       9.969   0.825   5.418+99.99 -0.00    -0.266 OA
ATOM     91  O2  UNL     1       6.834   5.208   9.232+76.14 -0.00    -0.266 OA
ATOM     92  O3  UNL     1       1.265   1.006  10.803+99.99+99.99    -0.266 OA
ATOM     93  O4  UNL     1      -1.309  -2.813  10.629+99.99+99.99    -0.274 OA
ATOM     94  O5  UNL     1      -2.966  -0.572  14.092+99.99+99.99    -0.387 OA
ATOM     95  O6  UNL     1      -5.494  -3.251  13.760+99.99+99.99    -0.387 OA
ATOM     96  O7  UNL     1      -7.736  -4.822  14.814+99.99+99.99    -0.380 OA
ATOM     97  O8  UNL     1      -8.567  -5.978  18.099+99.99+99.99    -0.271 OA
ATOM     98  O9  UNL     1      15.258   3.684   4.024+99.99 -0.00    -0.266 OA
ATOM     99  O10 UNL     1      21.753   3.715   1.047 +7.51 -0.00    -0.273 OA
ATOM    100  O11 UNL     1      26.981   0.973   0.985+99.99 -0.00    -0.264 OA
ATOM    101  O12 UNL     1      32.007   5.438  -1.451 -0.01 -0.00    -0.266 OA
ATOM    102  O13 UNL     1      31.213  12.532  -2.069+99.99 -0.00    -0.266 OA
ATOM    103  O14 UNL     1      34.798  11.393  -7.453+99.99+99.99    -0.264 OA
ATOM    104  O15 UNL     1      35.144  17.025  -9.950+99.99+99.99    -0.274 OA
ATOM    105  H69 UNL     1      11.968   3.319   5.519 +0.10 +0.00    +0.169 HD
ATOM    106  H70 UNL     1       6.916   2.180   8.257 +0.34 +0.00    +0.169 HD
ATOM    107  H71 UNL     1       3.677  -0.827   9.919 +0.59 +0.00    +0.162 HD
ATOM    108  H72 UNL     1      -0.327   0.200  10.837+99.99+99.99    +0.162 HD
ATOM    109  H73 UNL     1      -8.618  -3.490  16.162+99.99+99.99    +0.161 HD
ATOM    110  H74 UNL     1      15.655   0.997   2.385 +6.33 +0.00    +0.170 HD
ATOM    111  H75 UNL     1      20.252   0.905   1.382+99.99 +0.00    +0.169 HD
ATOM    112  H76 UNL     1      26.111   3.998   0.729 +0.09 +0.00    +0.162 HD
ATOM    113  H77 UNL     1      29.091   6.394  -0.583 +0.08 +0.00    +0.170 HD
ATOM    114  H78 UNL     1      32.373  10.280  -3.999 +0.04 +0.00    +0.169 HD
ATOM    115  H79 UNL     1      34.217  14.515  -7.616+99.99+99.99    +0.169 HD
ATOM    116  H80 UNL     1      36.958  15.445 -12.077+99.99+99.99    +0.170 HD
ENDROOT
TORSDOF 34
TER
