USER    Run = 1
USER    DPF = ligand_134_receptor.dpf
USER  
USER    Estimated Free Energy of Binding    =  +1.17e+006 kcal/mol  [=(1)+(2)+(3)-(4)]
USER    
USER    (1) Final Intermolecular Energy     =  +1.17e+006 kcal/mol
USER        vdW + Hbond + desolv Energy     =  +8.11e+005 kcal/mol
USER        Electrostatic Energy            =  +3.55e+005 kcal/mol
USER    (2) Final Total Internal Energy     =   +0.00 kcal/mol
USER    (3) Torsional Free Energy           =   +1.19 kcal/mol
USER    (4) Unbound System's Energy  [=(2)] =   +0.00 kcal/mol
USER    
USER    
USER    NEWDPF move ligand_134.pdbqt
USER    NEWDPF about 0.000000 0.000000 0.000000
USER    NEWDPF tran0 16.428129 6.185778 3.012924
USER    NEWDPF quaternion0 0.111621 -0.972095 -0.101315 -0.179745
USER    NEWDPF axisangle0 0.113469 -0.988189 -0.102993 -159.290233
USER    NEWDPF quat0 0.113469 -0.988189 -0.102993 -159.290233
USER  keepresnum = 1 
USER  
REMARK  0 active torsions:
REMARK  status: ('A' for Active; 'I' for Inactive)
REMARK       I    between atoms: C2_2  and  C3_3 
REMARK       I    between atoms: C3_3  and  C4_4 
REMARK       I    between atoms: C4_4  and  C5_5 
REMARK       I    between atoms: C5_5  and  C6_6 
REMARK       I    between atoms: C6_6  and  C7_7 
REMARK       I    between atoms: C7_7  and  C8_8 
REMARK       I    between atoms: C8_8  and  N1_85 
REMARK       I    between atoms: C9_9  and  C10_10 
REMARK       I    between atoms: C9_9  and  N1_85 
REMARK       I    between atoms: C10_10  and  C11_11 
REMARK       I    between atoms: C11_11  and  C12_12 
REMARK       I    between atoms: C12_12  and  C13_13 
REMARK       I    between atoms: C13_13  and  C14_14 
REMARK       I    between atoms: C14_14  and  C15_15 
REMARK       I    between atoms: C17_17  and  C18_18 
REMARK       I    between atoms: C17_17  and  N1_85 
REMARK       I    between atoms: C20_20  and  N2_86 
REMARK       I    between atoms: C24_24  and  C25_25 
REMARK       I    between atoms: C24_24  and  O10_109 
REMARK       I    between atoms: C27_27  and  C31_31 
REMARK       I    between atoms: C31_31  and  O9_108 
REMARK       I    between atoms: C32_32  and  N3_88 
REMARK       I    between atoms: C34_34  and  N4_90 
REMARK       I    between atoms: C39_39  and  C40_40 
REMARK       I    between atoms: C39_39  and  O8_107 
REMARK       I    between atoms: C42_42  and  N9_99 
REMARK       I    between atoms: C44_44  and  C46_46 
REMARK       I    between atoms: C46_46  and  O5_104 
REMARK       I    between atoms: C47_47  and  N5_92 
REMARK       I    between atoms: C51_51  and  N6_94 
REMARK       I    between atoms: C53_53  and  C54_54 
REMARK       I    between atoms: C53_53  and  O4_103 
REMARK       I    between atoms: C58_58  and  C60_60 
REMARK       I    between atoms: C60_60  and  O3_102 
REMARK       I    between atoms: C61_61  and  N7_96 
REMARK       I    between atoms: C65_65  and  C67_67 
REMARK       I    between atoms: C67_67  and  N8_98 
REMARK       I    between atoms: C68_68  and  C69_69 
REMARK       I    between atoms: C68_68  and  N8_98 
REMARK       I    between atoms: C69_69  and  C70_70 
REMARK       I    between atoms: C70_70  and  C71_71 
REMARK       I    between atoms: C71_71  and  C72_72 
REMARK       I    between atoms: C72_72  and  C73_73 
REMARK       I    between atoms: C73_73  and  C74_74 
REMARK       I    between atoms: C76_76  and  C77_77 
REMARK       I    between atoms: C76_76  and  N8_98 
REMARK       I    between atoms: C77_77  and  C78_78 
REMARK       I    between atoms: C78_78  and  C79_79 
REMARK       I    between atoms: C79_79  and  C80_80 
REMARK       I    between atoms: C80_80  and  C81_81 
REMARK       I    between atoms: C81_81  and  C82_82 
USER                              x       y       z     vdW  Elec       q    Type
USER                           _______ _______ _______ _____ _____    ______ ____
ROOT
ATOM      1  C1  UNL     1      31.913  13.928  -6.574+99.99+99.99    +0.005 C 
ATOM      2  C2  UNL     1      32.619  13.195  -5.446+99.99+99.99    -0.005 C 
ATOM      3  C3  UNL     1      31.658  12.871  -4.301+99.99 -0.00    -0.000 C 
ATOM      4  C4  UNL     1      32.372  12.128  -3.171+99.99 +0.00    +0.000 C 
ATOM      5  C5  UNL     1      31.487  11.882  -1.946+99.99 +0.00    +0.000 C 
ATOM      6  C6  UNL     1      30.214  11.064  -2.191+99.99 +0.00    +0.002 C 
ATOM      7  C7  UNL     1      30.490   9.658  -2.730 +0.47 +0.00    +0.020 C 
ATOM      8  C8  UNL     1      29.222   8.825  -2.929 +1.72 +0.00    +0.126 C 
ATOM      9  C9  UNL     1      29.009   7.619  -0.736 -0.25 +0.00    +0.126 C 
ATOM     10  C10 UNL     1      29.739   8.301   0.427 -0.29 +0.00    +0.020 C 
ATOM     11  C11 UNL     1      30.051   7.345   1.582 -0.42 +0.00    +0.002 C 
ATOM     12  C12 UNL     1      31.009   6.218   1.190 -0.27 +0.00    +0.000 C 
ATOM     13  C13 UNL     1      31.461   5.367   2.380 -0.16 +0.00    +0.000 C 
ATOM     14  C14 UNL     1      30.343   4.657   3.152+99.99 -0.00    -0.000 C 
ATOM     15  C15 UNL     1      29.440   3.744   2.318+11.14 -0.00    -0.005 C 
ATOM     16  C16 UNL     1      30.189   2.607   1.641 -0.44 +0.00    +0.005 C 
ATOM     17  C17 UNL     1      27.300   9.330  -1.496+99.99 +0.00    +0.253 C 
ATOM     18  C18 UNL     1      26.453   9.043  -0.323 +8.83 +0.00    +0.034 A 
ATOM     19  C19 UNL     1      26.347  10.012   0.680+15.58 +0.00    +0.049 A 
ATOM     20  C20 UNL     1      25.505   9.796   1.772 -0.29 +0.00    +0.074 A 
ATOM     21  C21 UNL     1      24.795   8.588   1.845 -0.35 +0.00    +0.143 A 
ATOM     22  C22 UNL     1      24.881   7.629   0.836 -0.38 +0.00    +0.046 A 
ATOM     23  C23 UNL     1      25.705   7.862  -0.264 -0.24 +0.00    +0.020 A 
ATOM     24  C24 UNL     1      24.346  11.471   2.891+24.44 +0.00    +0.154 C 
ATOM     25  C25 UNL     1      23.128  11.500   2.081+99.99 +0.00    +0.054 A 
ATOM     26  C26 UNL     1      21.914  11.111   2.647+14.27 +0.00    +0.145 A 
ATOM     27  C27 UNL     1      20.751  11.134   1.875 -0.09 +0.00    +0.054 A 
ATOM     28  C28 UNL     1      20.818  11.553   0.534 -0.26 +0.00    +0.019 A 
ATOM     29  C29 UNL     1      22.037  11.945  -0.025 +5.96 +0.00    +0.002 A 
ATOM     30  C30 UNL     1      23.195  11.920   0.747+99.99 +0.00    +0.019 A 
ATOM     31  C31 UNL     1      19.467  10.699   2.456 -0.35 +0.00    +0.154 C 
ATOM     32  C32 UNL     1      18.106   9.448   3.907 -0.25 +0.00    +0.075 A 
ATOM     33  C33 UNL     1      17.249   8.596   3.200 -0.42 +0.00    +0.169 A 
ATOM     34  C34 UNL     1      16.029   8.173   3.746 -0.48 +0.00    +0.075 A 
ATOM     35  C35 UNL     1      15.661   8.636   5.012 +2.33 +0.00    +0.039 A 
ATOM     36  C36 UNL     1      16.500   9.490   5.740+99.99 -0.00    -0.058 A 
ATOM     37  C37 UNL     1      17.730   9.874   5.185 +2.78 +0.00    +0.039 A 
ATOM     38  C38 UNL     1      16.117   9.938   7.119+99.99 +0.00    +0.048 C 
ATOM     39  C39 UNL     1      15.390   6.094   2.862+99.99 +0.00    +0.154 C 
ATOM     40  C40 UNL     1      14.509   5.170   2.127+99.99 +0.00    +0.057 A 
ATOM     41  C41 UNL     1      15.058   4.102   1.399+99.99 +0.00    +0.055 A 
ATOM     42  C42 UNL     1      14.212   3.246   0.684+99.99 +0.00    +0.104 A 
ATOM     43  C43 UNL     1      12.826   3.444   0.693+99.99 +0.00    +0.055 A 
ATOM     44  C44 UNL     1      12.284   4.503   1.436+99.99 +0.00    +0.057 A 
ATOM     45  C45 UNL     1      13.125   5.371   2.141+76.53 +0.00    +0.145 A 
ATOM     46  C46 UNL     1      10.820   4.663   1.446+97.24 +0.00    +0.154 C 
ATOM     47  C47 UNL     1       8.677   4.457   0.514 -0.10 +0.00    +0.075 A 
ATOM     48  C48 UNL     1       8.042   5.482  -0.194 -0.15 +0.00    +0.039 A 
ATOM     49  C49 UNL     1       6.649   5.628  -0.161 -0.08 -0.00    -0.058 A 
ATOM     50  C50 UNL     1       5.885   4.717   0.583 -0.15 +0.00    +0.039 A 
ATOM     51  C51 UNL     1       6.498   3.692   1.312 -0.08 +0.00    +0.075 A 
ATOM     52  C52 UNL     1       7.890   3.550   1.237 -0.07 +0.00    +0.169 A 
ATOM     53  C53 UNL     1       5.284   3.217   3.238 -0.14 +0.00    +0.154 C 
ATOM     54  C54 UNL     1       5.454   4.480   3.958 -0.16 +0.00    +0.054 A 
ATOM     55  C55 UNL     1       4.324   5.249   4.275 -0.16 +0.00    +0.019 A 
ATOM     56  C56 UNL     1       4.479   6.487   4.906 +0.56 +0.00    +0.002 A 
ATOM     57  C57 UNL     1       5.756   6.959   5.212+50.77 +0.00    +0.019 A 
ATOM     58  C58 UNL     1       6.871   6.174   4.908 +0.46 +0.00    +0.054 A 
ATOM     59  C59 UNL     1       6.724   4.932   4.300 -0.16 +0.00    +0.145 A 
ATOM     60  C60 UNL     1       8.219   6.651   5.203 +6.71 +0.00    +0.154 C 
ATOM     61  C61 UNL     1       8.260   6.222   7.472 +1.32 +0.00    +0.074 A 
ATOM     62  C62 UNL     1       7.436   7.025   8.274 +4.43 +0.00    +0.143 A 
ATOM     63  C63 UNL     1       6.821   6.515   9.414+99.99 +0.00    +0.046 A 
ATOM     64  C64 UNL     1       7.017   5.179   9.761+99.99 +0.00    +0.020 A 
ATOM     65  C65 UNL     1       7.831   4.362   8.966 +7.37 +0.00    +0.034 A 
ATOM     66  C66 UNL     1       8.489   4.898   7.854 -0.47 +0.00    +0.049 A 
ATOM     67  C67 UNL     1       8.068   2.967   9.400 +4.43 +0.00    +0.253 C 
ATOM     68  C68 UNL     1       8.415   0.593   8.958+26.36 +0.00    +0.126 C 
ATOM     69  C69 UNL     1       9.941   0.455   9.045+11.13 +0.00    +0.020 C 
ATOM     70  C70 UNL     1      10.678   0.644   7.714+99.99 +0.00    +0.002 C 
ATOM     71  C71 UNL     1      10.413  -0.483   6.712+99.99 +0.00    +0.000 C 
ATOM     72  C72 UNL     1      11.153  -0.292   5.383+99.99 +0.00    +0.000 C 
ATOM     73  C73 UNL     1      10.581   0.851   4.538+99.99 -0.00    -0.000 C 
ATOM     74  C74 UNL     1      11.326   1.059   3.219 +5.03 -0.00    -0.005 C 
ATOM     75  C75 UNL     1      11.171  -0.095   2.240 +4.54 +0.00    +0.005 C 
ATOM     76  C76 UNL     1       7.344   1.963   7.164+99.99 +0.00    +0.126 C 
ATOM     77  C77 UNL     1       5.902   1.445   7.176+99.99 +0.00    +0.020 C 
ATOM     78  C78 UNL     1       4.892   2.515   7.600+99.99 +0.00    +0.002 C 
ATOM     79  C79 UNL     1       3.462   1.977   7.531 +3.50 +0.00    +0.000 C 
ATOM     80  C80 UNL     1       2.374   3.050   7.639 -0.42 +0.00    +0.000 C 
ATOM     81  C81 UNL     1       2.385   3.848   8.947 +0.60 -0.00    -0.000 C 
ATOM     82  C82 UNL     1       3.088   5.199   8.809+31.89 -0.00    -0.005 C 
ATOM     83  C83 UNL     1       3.073   5.967  10.122+99.99 +0.00    +0.005 C 
ATOM     84  C84 UNL     1       5.980   6.704  -0.964+33.53 +0.00    +0.048 C 
ATOM     85  N1  UNL     1      28.451   8.569  -1.709 +4.38 -0.00    -0.348 N 
ATOM     86  N2  UNL     1      25.428  10.777   2.776 +0.04 -0.00    -0.334 N 
ATOM     87  H2  UNL     1      26.215  10.937   3.405 +0.24 +0.00    +0.168 HD
ATOM     88  N3  UNL     1      19.357   9.833   3.407 +0.57 -0.00    -0.334 N 
ATOM     89  H3  UNL     1      20.201   9.420   3.804 +0.15 +0.00    +0.168 HD
ATOM     90  N4  UNL     1      15.142   7.348   3.041 +1.47 -0.00    -0.334 N 
ATOM     91  H4  UNL     1      14.282   7.746   2.663 -0.20 +0.00    +0.168 HD
ATOM     92  N5  UNL     1      10.073   4.346   0.440 +0.59 -0.00    -0.334 N 
ATOM     93  H5  UNL     1      10.506   4.009  -0.420 -0.11 +0.00    +0.168 HD
ATOM     94  N6  UNL     1       5.718   2.816   2.092 -0.03 -0.00    -0.334 N 
ATOM     95  H6  UNL     1       5.500   1.878   1.755 +0.06 +0.00    +0.168 HD
ATOM     96  N7  UNL     1       8.875   6.716   6.309+10.87 -0.00    -0.334 N 
ATOM     97  H7  UNL     1       9.813   7.115   6.340 +0.13 +0.00    +0.168 HD
ATOM     98  N8  UNL     1       7.987   1.914   8.484 +2.71 -0.00    -0.348 N 
ATOM     99  N9  UNL     1      14.783   2.129  -0.079+32.54 -0.00    -0.116 N 
ATOM    100  O1  UNL     1      26.928  10.244  -2.228+99.99 -0.00    -0.267 OA
ATOM    101  O2  UNL     1       8.347   2.803  10.587 +4.11 -0.00    -0.267 OA
ATOM    102  O3  UNL     1       8.810   7.064   4.070 -0.11 -0.00    -0.345 OA
ATOM    103  O4  UNL     1       4.512   2.375   3.943 -0.11 -0.00    -0.345 OA
ATOM    104  O5  UNL     1      10.389   5.126   2.630 +0.02 -0.00    -0.345 OA
ATOM    105  O6  UNL     1      16.017   2.069  -0.171+85.18 -0.00    -0.532 OA
ATOM    106  O7  UNL     1      13.998   1.315  -0.582 +1.96 -0.00    -0.532 OA
ATOM    107  O8  UNL     1      16.471   5.439   3.332+99.99 -0.00    -0.345 OA
ATOM    108  O9  UNL     1      18.434  11.340   1.873 -0.26 -0.00    -0.345 OA
ATOM    109  O10 UNL     1      24.284  12.388   3.868 +3.24 -0.00    -0.345 OA
ATOM    110  F1  UNL     1      23.992   8.343   2.892 -0.10 -0.00    -0.204 F 
ATOM    111  F2  UNL     1      12.603   6.398   2.830 -0.09 -0.00    -0.204 F 
ATOM    112  F3  UNL     1       8.489   2.559   1.919 -0.06 -0.00    -0.201 F 
ATOM    113  F4  UNL     1       7.807   4.177   4.066 -0.04 -0.00    -0.204 F 
ATOM    114  F5  UNL     1       7.206   8.302   7.935+60.94 -0.00    -0.204 F 
ATOM    115  F6  UNL     1      17.606   8.167   1.977 -0.14 -0.00    -0.201 F 
ATOM    116  F7  UNL     1      21.876  10.728   3.933 +0.21 -0.00    -0.204 F 
ATOM    117  H93 UNL     1       9.719   7.338   4.297 +0.13 +0.00    +0.219 HD
ATOM    118  H94 UNL     1       4.442   1.553   3.426 +0.09 +0.00    +0.219 HD
ATOM    119  H95 UNL     1       9.428   5.258   2.656 +0.08 +0.00    +0.219 HD
ATOM    120  H96 UNL     1      17.061   6.027   3.828 +1.26 +0.00    +0.219 HD
ATOM    121  H97 UNL     1      17.587  11.075   2.261 +0.19 +0.00    +0.219 HD
ATOM    122  H98 UNL     1      25.106  12.312   4.384+19.03 +0.00    +0.219 HD
ENDROOT
TORSDOF 49
TER
