USER    Run = 1
USER    DPF = ligand_444_receptor.dpf
USER  
USER    Estimated Free Energy of Binding    =  +4.09e+003 kcal/mol  [=(1)+(2)+(3)-(4)]
USER    
USER    (1) Final Intermolecular Energy     =  +4.09e+003 kcal/mol
USER        vdW + Hbond + desolv Energy     =  +4.09e+003 kcal/mol
USER        Electrostatic Energy            =   +0.00 kcal/mol
USER    (2) Final Total Internal Energy     =   +0.00 kcal/mol
USER    (3) Torsional Free Energy           =   +1.19 kcal/mol
USER    (4) Unbound System's Energy  [=(2)] =   +0.00 kcal/mol
USER    
USER    
USER    NEWDPF move ligand_444.pdbqt
USER    NEWDPF about 0.000000 0.000000 0.000000
USER    NEWDPF tran0 12.981515 7.239931 5.456538
USER    NEWDPF quaternion0 -0.070975 -0.104832 0.983908 0.126083
USER    NEWDPF axisangle0 -0.071546 -0.105675 0.991824 165.513348
USER    NEWDPF quat0 -0.071546 -0.105675 0.991824 165.513348
USER  keepresnum = 1 
USER  
REMARK  0 active torsions:
REMARK  status: ('A' for Active; 'I' for Inactive)
REMARK       I    between atoms: C9_9  and  C10_10 
REMARK       I    between atoms: C10_10  and  N2_55 
REMARK       I    between atoms: C11_11  and  C12_12 
REMARK       I    between atoms: C11_11  and  N2_55 
REMARK       I    between atoms: C12_12  and  C13_13 
REMARK       I    between atoms: C13_13  and  C14_14 
REMARK       I    between atoms: C14_14  and  C15_15 
REMARK       I    between atoms: C15_15  and  C16_16 
REMARK       I    between atoms: C15_15  and  N3_56 
REMARK       I    between atoms: C16_16  and  O2_65 
REMARK       I    between atoms: C17_17  and  N3_56 
REMARK       I    between atoms: C17_17  and  N4_57 
REMARK       I    between atoms: C18_18  and  C19_19 
REMARK       I    between atoms: C18_18  and  C22_22 
REMARK       I    between atoms: C18_18  and  N4_57 
REMARK       I    between atoms: C19_19  and  C20_20 
REMARK       I    between atoms: C20_20  and  C21_21 
REMARK       I    between atoms: C21_21  and  O5_68 
REMARK       I    between atoms: C22_22  and  O7_70 
REMARK       I    between atoms: C23_23  and  C24_24 
REMARK       I    between atoms: C23_23  and  N2_55 
REMARK       I    between atoms: C27_27  and  C30_30 
REMARK       I    between atoms: C30_30  and  N5_58 
REMARK       I    between atoms: C31_31  and  C32_32 
REMARK       I    between atoms: C31_31  and  N5_58 
REMARK       I    between atoms: C32_32  and  C33_33 
REMARK       I    between atoms: C33_33  and  C34_34 
REMARK       I    between atoms: C34_34  and  C35_35 
REMARK       I    between atoms: C35_35  and  N6_59 
REMARK       I    between atoms: C36_36  and  C37_37 
REMARK       I    between atoms: C36_36  and  N6_59 
REMARK       I    between atoms: C37_37  and  C38_38 
REMARK       I    between atoms: C38_38  and  C39_39 
REMARK       I    between atoms: C39_39  and  C40_40 
REMARK       I    between atoms: C39_39  and  N7_60 
REMARK       I    between atoms: C40_40  and  O12_75 
REMARK       I    between atoms: C41_41  and  C42_42 
REMARK       I    between atoms: C41_41  and  N7_60 
REMARK       I    between atoms: C42_42  and  N8_61 
REMARK       I    between atoms: C43_43  and  C44_44 
REMARK       I    between atoms: C43_43  and  N8_61 
REMARK       I    between atoms: C44_44  and  O14_77 
REMARK       I    between atoms: C45_45  and  C46_46 
REMARK       I    between atoms: C45_45  and  N7_60 
REMARK       I    between atoms: C46_46  and  N9_62 
REMARK       I    between atoms: C47_47  and  C48_48 
REMARK       I    between atoms: C47_47  and  N9_62 
REMARK       I    between atoms: C48_48  and  N10_63 
REMARK       I    between atoms: C49_49  and  C50_50 
REMARK       I    between atoms: C49_49  and  N10_63 
REMARK       I    between atoms: C50_50  and  O16_79 
REMARK       I    between atoms: C51_51  and  C52_52 
REMARK       I    between atoms: C51_51  and  N9_62 
REMARK       I    between atoms: C52_52  and  O18_81 
USER                              x       y       z     vdW  Elec       q    Type
USER                           _______ _______ _______ _____ _____    ______ ____
ROOT
ATOM      1  C1  UNL     1       2.618   5.780   5.263 -0.14 +0.00    +0.001 A 
ATOM      2  C2  UNL     1       3.020   6.903   5.971 -0.20 +0.00    +0.001 A 
ATOM      3  C3  UNL     1       4.056   6.806   6.902 -0.30 +0.00    +0.014 A 
ATOM      4  C4  UNL     1       4.722   5.580   7.158 -0.34 -0.00    -0.002 A 
ATOM      5  C5  UNL     1       4.309   4.452   6.411 -0.34 -0.00    -0.023 A 
ATOM      6  C6  UNL     1       3.264   4.563   5.478 -0.17 +0.00    +0.012 A 
ATOM      7  C7  UNL     1       4.940   3.222   6.606 +0.39 +0.00    +0.029 A 
ATOM      8  C8  UNL     1       5.932   3.128   7.560+17.12 +0.00    +0.089 A 
ATOM      9  C9  UNL     1       5.753   5.376   8.112 +5.59 +0.00    +0.038 A 
ATOM     10  C10 UNL     1       6.259   6.478   9.025+99.99 +0.00    +0.183 C 
ATOM     11  C11 UNL     1       8.764   6.322   8.926+21.33 +0.00    +0.126 C 
ATOM     12  C12 UNL     1       9.303   5.457   7.778 -0.30 +0.00    +0.020 C 
ATOM     13  C13 UNL     1      10.004   6.241   6.668 -0.22 +0.00    +0.004 C 
ATOM     14  C14 UNL     1      10.907   5.359   5.796 -0.36 +0.00    +0.036 C 
ATOM     15  C15 UNL     1      10.165   4.308   4.968 -0.30 +0.00    +0.183 C 
ATOM     16  C16 UNL     1      11.197   3.387   4.315 +0.38 +0.00    +0.163 C 
ATOM     17  C17 UNL     1       8.317   4.271   3.367 -0.12 +0.00    +0.295 C 
ATOM     18  C18 UNL     1       6.553   4.513   1.686 -0.09 +0.00    +0.163 C 
ATOM     19  C19 UNL     1       6.495   5.030   0.240 -0.18 +0.00    +0.041 C 
ATOM     20  C20 UNL     1       5.374   4.431  -0.613 -0.14 +0.00    +0.112 C 
ATOM     21  C21 UNL     1       5.573   2.967  -0.899 -0.08 +0.00    +0.139 C 
ATOM     22  C22 UNL     1       5.361   5.050   2.495 -0.14 +0.00    +0.158 C 
ATOM     23  C23 UNL     1       7.496   8.362   8.075+99.99 +0.00    +0.254 C 
ATOM     24  C24 UNL     1       8.733   9.161   7.948+99.99 +0.00    +0.032 A 
ATOM     25  C25 UNL     1       9.436   9.565   9.086+99.99 +0.00    +0.017 A 
ATOM     26  C26 UNL     1      10.579  10.355   8.949+16.51 +0.00    +0.010 A 
ATOM     27  C27 UNL     1      11.012  10.765   7.678+99.99 -0.00    -0.040 A 
ATOM     28  C28 UNL     1      10.282  10.373   6.545+99.99 +0.00    +0.010 A 
ATOM     29  C29 UNL     1       9.134   9.592   6.680+99.99 +0.00    +0.017 A 
ATOM     30  C30 UNL     1      12.261  11.598   7.533+99.99 +0.00    +0.161 C 
ATOM     31  C31 UNL     1      14.179  10.545   8.665+17.06 +0.00    +0.217 C 
ATOM     32  C32 UNL     1      15.347   9.605   8.456+99.99 +0.00    +0.103 C 
ATOM     33  C33 UNL     1      15.425   8.478   9.481+68.22 +0.00    +0.011 C 
ATOM     34  C34 UNL     1      14.139   7.694   9.777 +0.48 +0.00    +0.020 C 
ATOM     35  C35 UNL     1      13.266   7.295   8.591 -0.53 +0.00    +0.122 C 
ATOM     36  C36 UNL     1      14.045   7.143   6.251 -0.18 +0.00    +0.217 C 
ATOM     37  C37 UNL     1      14.821   6.263   5.291 +1.21 +0.00    +0.105 C 
ATOM     38  C38 UNL     1      15.071   6.945   3.942 +1.35 +0.00    +0.056 C 
ATOM     39  C39 UNL     1      15.973   8.210   4.015 -0.33 +0.00    +0.320 C 
ATOM     40  C40 UNL     1      15.336   9.234   3.056 -0.29 +0.00    +0.174 C 
ATOM     41  C41 UNL     1      18.056   6.933   4.480+56.06 +0.00    +0.303 C 
ATOM     42  C42 UNL     1      18.346   7.278   5.965+99.99 +0.00    +0.300 C 
ATOM     43  C43 UNL     1      19.341   6.471   8.038+39.25 +0.00    +0.378 C 
ATOM     44  C44 UNL     1      20.738   7.087   7.981 +3.17 +0.00    +0.168 C 
ATOM     45  C45 UNL     1      18.171   9.268   3.685 -0.26 +0.00    +0.303 C 
ATOM     46  C46 UNL     1      19.670   9.195   3.280 +0.01 +0.00    +0.303 C 
ATOM     47  C47 UNL     1      21.824  10.255   3.848 +1.39 +0.00    +0.303 C 
ATOM     48  C48 UNL     1      22.105   9.499   5.173 +4.05 +0.00    +0.300 C 
ATOM     49  C49 UNL     1      24.458   8.864   4.768 +0.63 +0.00    +0.378 C 
ATOM     50  C50 UNL     1      24.255   7.359   4.678+38.15 +0.00    +0.168 C 
ATOM     51  C51 UNL     1      20.118  11.536   2.642 +1.00 +0.00    +0.381 C 
ATOM     52  C52 UNL     1      20.647  11.273   1.241 -0.17 +0.00    +0.169 C 
ATOM     53  N1  UNL     1       6.334   4.159   8.325+15.41 -0.00    -0.367 N 
ATOM     54  H1  UNL     1       7.050   4.034   9.041 +4.95 +0.00    +0.165 HD
ATOM     55  N2  UNL     1       7.543   7.090   8.641 +1.60 -0.00    -0.342 N 
ATOM     56  N3  UNL     1       9.385   4.940   3.906 -0.08 -0.00    -0.333 N 
ATOM     57  N4  UNL     1       7.802   4.973   2.306 -0.06 -0.00    -0.230 NA
ATOM     58  N5  UNL     1      13.444  10.770   7.524 +0.59 -0.00    -0.357 N 
ATOM     59  N6  UNL     1      14.001   6.639   7.532 -0.25 -0.00    -0.361 N 
ATOM     60  N7  UNL     1      17.417   7.985   3.660 -0.51 +0.00    +0.106 N 
ATOM     61  N8  UNL     1      18.837   6.099   6.693+70.41 +0.00    +0.095 N 
ATOM     62  N9  UNL     1      20.381  10.447   3.612 +9.51 +0.00    +0.101 N 
ATOM     63  N10 UNL     1      23.492   9.535   5.656 +0.35 +0.00    +0.095 N 
ATOM     64  O1  UNL     1      11.733   3.556   3.230+55.32 -0.00    -0.648 OA
ATOM     65  O2  UNL     1      11.551   2.346   5.096 +1.13 -0.00    -0.775 OA
ATOM     66  O3  UNL     1       7.883   3.205   3.778 -0.22 -0.00    -0.254 OA
ATOM     67  O4  UNL     1       6.549   2.288  -0.632 +0.07 -0.00    -0.650 OA
ATOM     68  O5  UNL     1       4.518   2.431  -1.540 +0.07 -0.00    -0.776 OA
ATOM     69  O6  UNL     1       4.197   4.702   2.366 -0.06 -0.00    -0.649 OA
ATOM     70  O7  UNL     1       5.693   6.051   3.343 +0.08 -0.00    -0.775 OA
ATOM     71  O8  UNL     1       6.458   8.901   7.698+14.62 -0.00    -0.267 OA
ATOM     72  O9  UNL     1      13.941  11.064   9.751 +4.48 -0.00    -0.274 OA
ATOM     73  O10 UNL     1      13.524   8.204   5.919 -0.27 -0.00    -0.274 OA
ATOM     74  O11 UNL     1      15.050   9.076   1.880 +2.83 -0.00    -0.648 OA
ATOM     75  O12 UNL     1      15.112  10.431   3.646 +5.12 -0.00    -0.775 OA
ATOM     76  O13 UNL     1      21.199   7.885   8.780 +0.24 -0.00    -0.649 OA
ATOM     77  O14 UNL     1      21.476   6.618   6.949+99.99 -0.00    -0.775 OA
ATOM     78  O15 UNL     1      24.410   6.683   3.673+99.99 -0.00    -0.649 OA
ATOM     79  O16 UNL     1      23.928   6.763   5.847+52.90 -0.00    -0.775 OA
ATOM     80  O17 UNL     1      20.032  10.765   0.316 -0.03 -0.00    -0.649 OA
ATOM     81  O18 UNL     1      21.936  11.638   1.078+49.48 -0.00    -0.775 OA
ATOM     82  H60 UNL     1       9.933   5.412   3.198 +0.06 +0.00    +0.164 HD
ATOM     83  H61 UNL     1       7.820   5.969   2.489 +0.06 +0.00    +0.133 HD
ATOM     84  H62 UNL     1      13.519  10.090   6.767 +0.16 +0.00    +0.162 HD
ATOM     85  H63 UNL     1      14.408   5.730   7.721 +0.09 +0.00    +0.162 HD
ATOM     86  H64 UNL     1      19.638   5.706   6.186 +1.84 +0.00    +0.316 HD
ATOM     87  H65 UNL     1      23.774  10.510   5.773 -0.23 +0.00    +0.316 HD
ATOM     88  H66 UNL     1      12.160   1.825   4.530 +0.99 +0.00    +0.167 HD
ATOM     89  H67 UNL     1       4.766   1.491  -1.665 +0.04 +0.00    +0.167 HD
ATOM     90  H68 UNL     1       4.882   6.225   3.869 +0.06 +0.00    +0.167 HD
ATOM     91  H69 UNL     1      14.720  10.964   2.923 +0.10 +0.00    +0.167 HD
ATOM     92  H70 UNL     1      22.341   7.099   6.999 +3.84 +0.00    +0.167 HD
ATOM     93  H71 UNL     1      23.892   5.811   5.605+70.94 +0.00    +0.167 HD
ATOM     94  H72 UNL     1      22.128  11.394   0.148 +0.15 +0.00    +0.167 HD
ENDROOT
TORSDOF 49
TER
