USER    Run = 1
USER    DPF = ligand_24_receptor.dpf
USER  
USER    Estimated Free Energy of Binding    =  +35.78 kcal/mol  [=(1)+(2)+(3)-(4)]
USER    
USER    (1) Final Intermolecular Energy     =  +34.58 kcal/mol
USER        vdW + Hbond + desolv Energy     =  +34.58 kcal/mol
USER        Electrostatic Energy            =   +0.00 kcal/mol
USER    (2) Final Total Internal Energy     = +103.85 kcal/mol
USER    (3) Torsional Free Energy           =   +1.19 kcal/mol
USER    (4) Unbound System's Energy  [=(2)] = +103.85 kcal/mol
USER    
USER    
USER    NEWDPF move ligand_24.pdbqt
USER    NEWDPF about 0.000000 0.000000 0.000000
USER    NEWDPF tran0 11.403482 6.554502 1.164357
USER    NEWDPF quaternion0 -0.183593 0.407586 0.514397 -0.731822
USER    NEWDPF axisangle0 -0.269397 0.598076 0.754805 -85.921365
USER    NEWDPF quat0 -0.269397 0.598076 0.754805 -85.921365
USER    NEWDPF dihe0 -140.35 -167.59 110.45 27.30 -13.30 167.04 131.11 69.42 131.80 162.99 100.21 134.90 45.98 74.18 -100.75 -68.44 -54.77 99.93 -95.32 180.00 180.00 -21.15 45.38 -179.51 -91.83 78.94 69.26 168.23 -10.45 59.00 160.70 -36.59 
USER  keepresnum = 1 
USER  
REMARK  32 active torsions:
REMARK  status: ('A' for Active; 'I' for Inactive)
REMARK    1  A    between atoms: C2_2  and  C4_4 
REMARK    2  A    between atoms: C2_2  and  O5_74 
REMARK    3  A    between atoms: C4_4  and  C5_5 
REMARK    4  A    between atoms: C6_6  and  C16_16 
REMARK    5  A    between atoms: C8_8  and  C11_11 
REMARK    6  A    between atoms: C11_11  and  N1_54 
REMARK    7  A    between atoms: C12_12  and  C13_13 
REMARK    8  A    between atoms: C12_12  and  N1_54 
REMARK    9  A    between atoms: C13_13  and  C14_14 
REMARK   10  A    between atoms: C14_14  and  N2_55 
REMARK   11  A    between atoms: C17_17  and  N5_60 
REMARK   12  A    between atoms: C20_20  and  C21_21 
REMARK   13  A    between atoms: C20_20  and  N5_60 
REMARK   14  A    between atoms: C21_21  and  C22_22 
REMARK   15  A    between atoms: C24_24  and  O4_73 
REMARK   16  A    between atoms: C25_25  and  O3_72 
REMARK       I    between atoms: C29_29  and  N6_61 
REMARK   17  A    between atoms: C29_29  and  O5_74 
REMARK   18  A    between atoms: C30_30  and  C31_31 
REMARK   19  A    between atoms: C30_30  and  N6_61 
REMARK   20  A    between atoms: C31_31  and  C32_32 
REMARK   21  A    between atoms: C32_32  and  N7_62 
REMARK   22  A    between atoms: C33_33  and  C34_34 
REMARK   23  A    between atoms: C33_33  and  N7_62 
REMARK   24  A    between atoms: C36_36  and  C40_40 
REMARK   25  A    between atoms: C41_41  and  N10_67 
REMARK   26  A    between atoms: C44_44  and  C45_45 
REMARK   27  A    between atoms: C44_44  and  N10_67 
REMARK   28  A    between atoms: C45_45  and  C46_46 
REMARK   29  A    between atoms: C48_48  and  O8_77 
REMARK   30  A    between atoms: C49_49  and  O7_76 
REMARK   31  A    between atoms: N1_54  and  S1_68 
REMARK   32  A    between atoms: N7_62  and  S2_69 
USER                              x       y       z     vdW  Elec       q    Type
USER                           _______ _______ _______ _____ _____    ______ ____
ROOT
ATOM      1  C1  UNL     1      10.628   7.650  -0.396 +0.47 +0.00    +0.046 C 
ATOM      2  C2  UNL     1      10.112   6.770   0.755 -0.30 +0.00    +0.069 C 
ATOM      3  C3  UNL     1      11.172   6.643   1.856 -0.37 +0.00    +0.046 C 
ENDROOT
BRANCH   2   4
ATOM      4  C4  UNL     1       9.767   5.373   0.150 -0.19 +0.00    +0.077 C 
BRANCH   4   5
ATOM      5  C5  UNL     1       8.318   4.926   0.288 -0.12 -0.00    -0.043 A 
ATOM      6  C6  UNL     1       7.901   3.892   1.156 -0.13 -0.00    -0.002 A 
ATOM      7  C7  UNL     1       6.519   3.621   1.269 -0.09 +0.00    +0.022 A 
ATOM      8  C8  UNL     1       5.557   4.337   0.543 -0.14 -0.00    -0.043 A 
ATOM      9  C9  UNL     1       5.991   5.316  -0.351 +0.05 +0.00    +0.009 A 
ATOM     10  C10 UNL     1       7.349   5.609  -0.473 +0.01 +0.00    +0.009 A 
BRANCH   6  11
ATOM     11  C16 UNL     1       8.822   3.088   1.972 -0.14 +0.00    +0.046 A 
ATOM     12  C19 UNL     1       8.882   3.196   3.344 -0.21 +0.00    +0.047 A 
ATOM     13  C18 UNL     1       9.809   2.397   3.961+11.89 +0.00    +0.093 A 
ATOM     14  N4  UNL     1      10.626   1.561   3.296 +8.34 -0.00    -0.343 N 
ATOM     15  C17 UNL     1      10.503   1.519   1.965 +5.63 +0.00    +0.157 A 
ATOM     16  H4  UNL     1      11.310   0.983   3.786 -0.15 +0.00    +0.167 HD
ATOM     17  N3  UNL     1       9.639   2.271   1.273 +0.57 -0.00    -0.332 N 
ATOM     18  H3  UNL     1       9.599   2.229   0.255 -0.04 +0.00    +0.168 HD
BRANCH  15  19
ATOM     19  N5  UNL     1      11.350   0.646   1.309 -0.06 -0.00    -0.264 NA
ATOM     20  H64 UNL     1      12.018   1.207   0.790 -0.31 +0.00    +0.130 HD
BRANCH  19  21
ATOM     21  C20 UNL     1      10.727  -0.433   0.554 +3.34 +0.00    +0.099 C 
BRANCH  21  22
ATOM     22  C21 UNL     1       9.193  -0.426   0.630 +0.11 +0.00    +0.053 C 
BRANCH  22  23
ATOM     23  C22 UNL     1       8.530  -0.042  -0.673 -0.22 -0.00    -0.054 A 
ATOM     24  C23 UNL     1       7.133   0.052  -0.759 +0.22 +0.00    +0.046 A 
ATOM     25  C24 UNL     1       6.491   0.386  -1.961 -0.11 +0.00    +0.101 A 
ATOM     26  C25 UNL     1       7.275   0.625  -3.094 -0.10 +0.00    +0.099 A 
ATOM     27  C26 UNL     1       8.669   0.533  -3.021 +0.03 +0.00    +0.040 A 
ATOM     28  C27 UNL     1       9.293   0.202  -1.817 -0.21 +0.00    +0.010 A 
BRANCH  25  29
ATOM     29  O4  UNL     1       5.129   0.426  -1.839 -0.08 -0.00    -0.353 OA
ATOM     30  C28 UNL     1       4.576   0.966  -0.649 -0.09 +0.00    +0.210 C 
ENDBRANCH  25  29
BRANCH  26  31
ATOM     31  O3  UNL     1       6.713   0.951  -4.298 -0.37 -0.00    -0.358 OA
ATOM     32  H67 UNL     1       5.780   1.183  -4.160 +0.05 +0.00    +0.217 HD
ENDBRANCH  26  31
ENDBRANCH  22  23
ENDBRANCH  21  22
ENDBRANCH  19  21
ENDBRANCH  15  19
ENDBRANCH   6  11
BRANCH   8  33
ATOM     33  C11 UNL     1       4.089   4.023   0.714 -0.11 +0.00    +0.145 C 
BRANCH  33  34
ATOM     34  N1  UNL     1       3.475   4.706   1.892 -0.59 -0.00    -0.207 NA
BRANCH  34  35
ATOM     35  C12 UNL     1       2.380   3.886   2.504 -0.08 +0.00    +0.109 C 
BRANCH  35  36
ATOM     36  C13 UNL     1       2.990   2.751   3.326 -0.11 +0.00    +0.045 C 
BRANCH  36  37
ATOM     37  C14 UNL     1       4.071   1.976   2.571 -0.10 +0.00    +0.268 C 
BRANCH  37  38
ATOM     38  N2  UNL     1       3.809   0.546   2.483 -0.24 +0.00    +0.078 N 
ATOM     39  H62 UNL     1       2.818   0.380   2.303 +0.11 +0.00    +0.312 HD
ATOM     40  H63 UNL     1       4.014   0.078   3.364 +0.15 +0.00    +0.312 HD
ENDBRANCH  37  38
ENDBRANCH  36  37
ENDBRANCH  35  36
ENDBRANCH  34  35
BRANCH  34  41
ATOM     41  S1  UNL     1       4.573   5.319   3.046 -0.19 +0.00    +0.208 S 
ATOM     42  C15 UNL     1       3.557   5.669   4.467 -0.13 +0.00    +0.180 C 
ATOM     43  O1  UNL     1       5.099   6.563   2.525 -0.22 -0.00    -0.212 OA
ATOM     44  O2  UNL     1       5.462   4.234   3.408 -0.09 -0.00    -0.212 OA
ENDBRANCH  34  41
ENDBRANCH  33  34
ENDBRANCH   8  33
ENDBRANCH   4   5
ENDBRANCH   2   4
BRANCH   2  45
ATOM     45  O5  UNL     1       8.863   7.326   1.258 -0.22 -0.00    -0.293 OA
BRANCH  45  46
ATOM     46  C29 UNL     1       8.810   8.006   2.424 +0.16 +0.00    +0.361 C 
ATOM     47  N6  UNL     1       9.914   7.691   3.156 -0.20 -0.00    -0.337 N 
ATOM     48  H65 UNL     1      10.555   7.044   2.717 +0.10 +0.00    +0.164 HD
ATOM     49  O6  UNL     1       7.925   8.765   2.782 +0.39 -0.00    -0.238 OA
BRANCH  47  50
ATOM     50  C30 UNL     1      10.240   8.257   4.448 -0.37 +0.00    +0.126 C 
BRANCH  50  51
ATOM     51  C31 UNL     1      11.389   9.263   4.382 +5.27 +0.00    +0.040 C 
BRANCH  51  52
ATOM     52  C32 UNL     1      12.270   9.050   3.154 +3.30 +0.00    +0.137 C 
BRANCH  52  53
ATOM     53  N7  UNL     1      13.583   8.510   3.558 -0.19 -0.00    -0.307 N 
BRANCH  53  54
ATOM     54  C33 UNL     1      14.555   8.247   2.480 +1.31 +0.00    +0.173 C 
BRANCH  54  55
ATOM     55  C34 UNL     1      15.554   9.347   2.211 -0.02 -0.00    -0.039 A 
ATOM     56  C35 UNL     1      16.936   9.089   2.243 -0.48 +0.00    +0.022 A 
ATOM     57  C36 UNL     1      17.890  10.095   2.001 -0.46 -0.00    -0.009 A 
ATOM     58  C37 UNL     1      17.412  11.381   1.696 -0.55 +0.00    +0.014 A 
ATOM     59  C38 UNL     1      16.043  11.655   1.652 -0.31 +0.00    +0.002 A 
ATOM     60  C39 UNL     1      15.119  10.644   1.911 +1.06 +0.00    +0.009 A 
BRANCH  57  61
ATOM     61  C40 UNL     1      19.338   9.814   2.048 -0.35 +0.00    +0.046 A 
ATOM     62  C43 UNL     1      19.970   9.347   3.182 -0.13 +0.00    +0.047 A 
ATOM     63  C42 UNL     1      21.316   9.108   3.063 -0.27 +0.00    +0.093 A 
ATOM     64  N9  UNL     1      22.006   9.304   1.927 -0.18 -0.00    -0.343 N 
ATOM     65  C41 UNL     1      21.320   9.755   0.874 -0.23 +0.00    +0.157 A 
ATOM     66  H9  UNL     1      23.007   9.116   1.872 +0.13 +0.00    +0.167 HD
ATOM     67  N8  UNL     1      20.012  10.035   0.897 -0.18 -0.00    -0.332 N 
ATOM     68  H8  UNL     1      19.537  10.404   0.072 +0.13 +0.00    +0.168 HD
BRANCH  65  69
ATOM     69  N10 UNL     1      22.055   9.916  -0.288 -0.15 -0.00    -0.264 NA
ATOM     70  H66 UNL     1      21.385   9.952  -1.048 +0.41 +0.00    +0.130 HD
BRANCH  69  71
ATOM     71  C44 UNL     1      23.184   9.019  -0.478 -0.36 +0.00    +0.099 C 
BRANCH  71  72
ATOM     72  C45 UNL     1      23.193   7.860   0.531 -0.45 +0.00    +0.053 C 
BRANCH  72  73
ATOM     73  C46 UNL     1      24.461   7.032   0.485 -0.40 -0.00    -0.054 A 
ATOM     74  C47 UNL     1      25.713   7.649   0.314 -0.36 +0.00    +0.046 A 
ATOM     75  C48 UNL     1      26.880   6.882   0.280 -0.28 +0.00    +0.101 A 
ATOM     76  C49 UNL     1      26.779   5.494   0.422 -0.23 +0.00    +0.099 A 
ATOM     77  C50 UNL     1      25.552   4.866   0.597 -0.41 +0.00    +0.040 A 
ATOM     78  C51 UNL     1      24.393   5.637   0.629 -0.52 +0.00    +0.010 A 
BRANCH  75  79
ATOM     79  O8  UNL     1      28.158   7.355   0.118 -0.16 -0.00    -0.353 OA
ATOM     80  C52 UNL     1      29.010   7.286   1.255 -0.28 +0.00    +0.210 C 
ENDBRANCH  75  79
BRANCH  76  81
ATOM     81  O7  UNL     1      27.906   4.715   0.394 -0.29 -0.00    -0.358 OA
ATOM     82  H68 UNL     1      28.619   5.303   0.710 +0.11 +0.00    +0.217 HD
ENDBRANCH  76  81
ENDBRANCH  72  73
ENDBRANCH  71  72
ENDBRANCH  69  71
ENDBRANCH  65  69
ENDBRANCH  57  61
ENDBRANCH  54  55
ENDBRANCH  53  54
BRANCH  53  83
ATOM     83  S2  UNL     1      13.732   7.728   5.032 -0.48 +0.00    +0.225 S 
ATOM     84  C53 UNL     1      14.787   6.338   4.665 +3.58 +0.00    +0.186 C 
ATOM     85  O9  UNL     1      14.432   8.603   5.948 +1.76 -0.00    -0.206 OA
ATOM     86  O10 UNL     1      12.426   7.196   5.366 -0.27 -0.00    -0.206 OA
ENDBRANCH  53  83
ENDBRANCH  52  53
ENDBRANCH  51  52
ENDBRANCH  50  51
ENDBRANCH  47  50
ENDBRANCH  45  46
ENDBRANCH   2  45
TORSDOF 32
TER
