USER    Run = 1
USER    DPF = ligand_362_receptor.dpf
USER  
USER    Estimated Free Energy of Binding    =  +12.30 kcal/mol  [=(1)+(2)+(3)-(4)]
USER    
USER    (1) Final Intermolecular Energy     =  +11.11 kcal/mol
USER        vdW + Hbond + desolv Energy     =  +11.11 kcal/mol
USER        Electrostatic Energy            =   +0.00 kcal/mol
USER    (2) Final Total Internal Energy     =   +4.58 kcal/mol
USER    (3) Torsional Free Energy           =   +1.19 kcal/mol
USER    (4) Unbound System's Energy  [=(2)] =   +4.58 kcal/mol
USER    
USER    
USER    NEWDPF move ligand_362.pdbqt
USER    NEWDPF about 0.000000 0.000000 0.000000
USER    NEWDPF tran0 8.761884 5.375572 1.222200
USER    NEWDPF quaternion0 0.317051 0.625640 -0.090329 -0.707032
USER    NEWDPF axisangle0 0.448330 0.884695 -0.127732 -90.012124
USER    NEWDPF quat0 0.448330 0.884695 -0.127732 -90.012124
USER    NEWDPF dihe0 -176.88 33.84 -162.47 -74.84 180.00 -127.10 59.15 -171.48 -180.00 -173.47 -127.18 -125.39 158.04 -13.40 96.02 
USER  keepresnum = 1 
USER  
REMARK  15 active torsions:
REMARK  status: ('A' for Active; 'I' for Inactive)
REMARK    1  A    between atoms: C2_2  and  C3_3 
REMARK    2  A    between atoms: C3_3  and  C4_4 
REMARK    3  A    between atoms: C7_7  and  C8_8 
REMARK    4  A    between atoms: C7_7  and  N2_46 
REMARK    5  A    between atoms: C11_11  and  C14_14 
REMARK    6  A    between atoms: C19_19  and  C20_20 
REMARK    7  A    between atoms: C23_23  and  C24_24 
REMARK    8  A    between atoms: C23_23  and  N7_53 
REMARK    9  A    between atoms: C24_24  and  O3_61 
REMARK   10  A    between atoms: C25_25  and  O3_61 
REMARK   11  A    between atoms: C31_31  and  C33_33 
REMARK   12  A    between atoms: C33_33  and  O4_62 
REMARK   13  A    between atoms: C34_34  and  O4_62 
REMARK   14  A    between atoms: C37_37  and  C40_40 
REMARK   15  A    between atoms: C40_40  and  C41_41 
USER                              x       y       z     vdW  Elec       q    Type
USER                           _______ _______ _______ _____ _____    ______ ____
ROOT
ATOM      1  C4  UNL     1       5.407   2.308   4.054 -0.16 +0.00    +0.085 A 
ATOM      2  C5  UNL     1       4.961   4.185   3.105 -0.09 +0.00    +0.136 A 
ATOM      3  C6  UNL     1       6.158   4.379   3.758 -0.13 +0.00    +0.139 A 
ATOM      4  C21 UNL     1       6.873   5.625   3.770 -0.10 +0.00    +0.291 C 
ATOM      5  C22 UNL     1       4.318   5.242   2.345 -0.11 +0.00    +0.289 C 
ATOM      6  N1  UNL     1       4.508   2.904   3.291 -0.03 -0.00    -0.339 N 
ATOM      7  H1  UNL     1       3.652   2.496   2.918 +0.06 +0.00    +0.167 HD
ATOM      8  N2  UNL     1       6.456   3.166   4.338 -0.08 -0.00    -0.326 N 
ATOM      9  N7  UNL     1       6.240   6.643   3.039 -0.08 -0.00    -0.251 N 
ATOM     10  N8  UNL     1       5.050   6.419   2.282 -0.16 -0.00    -0.259 N 
ATOM     11  O1  UNL     1       7.924   5.798   4.378 -0.15 -0.00    -0.264 OA
ATOM     12  O2  UNL     1       3.225   5.154   1.793 -0.38 -0.00    -0.264 OA
ATOM     13  H38 UNL     1       4.555   7.217   1.902 +0.08 +0.00    +0.190 HD
ENDROOT
BRANCH   9  14
ATOM     14  C23 UNL     1       6.926   7.892   2.720 +0.71 +0.00    +0.179 C 
BRANCH  14  15
ATOM     15  C24 UNL     1       6.023   8.893   1.990 +4.75 +0.00    +0.197 C 
BRANCH  15  16
ATOM     16  O3  UNL     1       5.992   8.570   0.601 +1.69 -0.00    -0.349 OA
BRANCH  16  17
ATOM     17  C25 UNL     1       7.038   7.849   0.091 -0.41 +0.00    +0.071 A 
ATOM     18  C26 UNL     1       7.815   8.215  -1.016 +0.16 +0.00    +0.068 A 
ATOM     19  C27 UNL     1       8.847   7.341  -1.395 -0.32 +0.00    +0.065 A 
ATOM     20  C28 UNL     1       9.117   6.158  -0.714 -0.20 +0.00    +0.060 A 
ATOM     21  N10 UNL     1       9.781   7.364  -2.407 -0.17 -0.00    -0.337 N 
ATOM     22  C29 UNL     1       8.334   5.805   0.392 -0.17 +0.00    +0.035 A 
ATOM     23  N9  UNL     1      10.176   5.495  -1.277 -0.06 -0.00    -0.342 N 
ATOM     24  C30 UNL     1       7.297   6.661   0.781 -0.30 +0.00    +0.039 A 
ATOM     25  C31 UNL     1      10.580   6.245  -2.286 -0.21 +0.00    +0.108 A 
ATOM     26  H9  UNL     1      10.571   4.604  -0.978 +0.06 +0.00    +0.167 HD
ATOM     27  C32 UNL     1       9.905   8.392  -3.414 -0.37 +0.00    +0.158 C 
BRANCH  25  28
ATOM     28  C33 UNL     1      11.719   5.920  -3.200 -0.07 +0.00    +0.252 C 
BRANCH  28  29
ATOM     29  O4  UNL     1      11.508   4.596  -3.691 +1.06 -0.00    -0.344 OA
BRANCH  29  30
ATOM     30  C34 UNL     1      10.282   4.037  -3.460 +0.50 +0.00    +0.069 A 
ATOM     31  C35 UNL     1      10.317   2.811  -2.795 +0.74 +0.00    +0.037 A 
ATOM     32  C36 UNL     1       9.138   2.124  -2.498 +0.35 +0.00    +0.010 A 
ATOM     33  C37 UNL     1       7.898   2.660  -2.864 -0.10 -0.00    -0.056 A 
ATOM     34  C38 UNL     1       7.865   3.895  -3.526 -0.16 +0.00    +0.010 A 
ATOM     35  C39 UNL     1       9.050   4.580  -3.821 -0.11 +0.00    +0.037 A 
BRANCH  33  36
ATOM     36  C40 UNL     1       6.617   1.920  -2.559 -0.11 +0.00    +0.063 C 
BRANCH  36  37
ATOM     37  C41 UNL     1       6.174   2.047  -1.099 -0.07 +0.00    +0.153 C 
ATOM     38  C42 UNL     1       6.698   3.333  -0.496 -0.04 +0.00    +0.239 C 
ATOM     39  N11 UNL     1       7.309   3.127   0.704 -0.02 -0.00    -0.287 N 
ATOM     40  O5  UNL     1       6.592   4.441  -1.006 -0.08 -0.00    -0.272 OA
ATOM     41  C43 UNL     1       7.560   1.855   1.089 -0.13 +0.00    +0.287 C 
ATOM     42  H39 UNL     1       7.733   3.893   1.202 +0.08 +0.00    +0.172 HD
ATOM     43  O6  UNL     1       8.224   1.528   2.058 -0.19 -0.00    -0.260 OA
ATOM     44  S1  UNL     1       6.835   0.726  -0.021 +0.05 -0.00    -0.054 SA
ENDBRANCH  36  37
ENDBRANCH  33  36
ENDBRANCH  29  30
ENDBRANCH  28  29
ENDBRANCH  25  28
ENDBRANCH  16  17
ENDBRANCH  15  16
ENDBRANCH  14  15
ENDBRANCH   9  14
BRANCH   8  45
ATOM     45  C7  UNL     1       7.697   2.817   5.022 +4.35 +0.00    +0.169 C 
BRANCH  45  46
ATOM     46  C8  UNL     1       8.875   3.676   4.626 -0.33 -0.00    -0.040 A 
ATOM     47  C9  UNL     1       8.988   4.124   3.302 -0.24 +0.00    +0.010 A 
ATOM     48  C10 UNL     1      10.033   4.969   2.915 +0.06 +0.00    +0.013 A 
ATOM     49  C11 UNL     1      10.998   5.392   3.840 -0.20 -0.00    -0.025 A 
ATOM     50  C12 UNL     1      10.879   4.950   5.166 -0.33 +0.00    +0.013 A 
ATOM     51  C13 UNL     1       9.828   4.113   5.557 -0.39 +0.00    +0.010 A 
BRANCH  49  52
ATOM     52  C14 UNL     1      12.070   6.328   3.449 -0.25 -0.00    -0.012 A 
ATOM     53  C15 UNL     1      12.298   6.522   2.069 -0.29 +0.00    +0.013 A 
ATOM     54  C16 UNL     1      13.318   7.351   1.601 +2.38 +0.00    +0.001 A 
ATOM     55  C17 UNL     1      14.144   8.004   2.506 +1.55 +0.00    +0.001 A 
ATOM     56  C18 UNL     1      13.940   7.833   3.875 -0.47 +0.00    +0.016 A 
ATOM     57  C19 UNL     1      12.906   7.008   4.367 -0.42 +0.00    +0.021 A 
BRANCH  57  58
ATOM     58  C20 UNL     1      12.744   6.912   5.815 -0.30 +0.00    +0.145 A 
ATOM     59  N3  UNL     1      13.106   5.837   6.544 -0.25 -0.00    -0.271 N 
ATOM     60  N4  UNL     1      12.788   6.264   7.773 -0.29 -0.00    -0.225 N 
ATOM     61  H3  UNL     1      13.507   4.949   6.243 +0.13 +0.00    +0.190 HD
ATOM     62  N5  UNL     1      12.281   7.496   7.855 -0.12 -0.00    -0.005 NA
ATOM     63  H37 UNL     1      12.927   5.689   8.600 +0.17 +0.00    +0.205 HD
ATOM     64  N6  UNL     1      12.257   7.929   6.603 -0.24 -0.00    -0.266 N 
ATOM     65  H6  UNL     1      11.938   8.843   6.283 +0.15 +0.00    +0.186 HD
ENDBRANCH  57  58
ENDBRANCH  49  52
ENDBRANCH  45  46
ENDBRANCH   8  45
BRANCH   1  66
ATOM     66  C3  UNL     1       5.301   0.894   4.535 +1.51 +0.00    +0.076 C 
BRANCH  66  67
ATOM     67  C2  UNL     1       3.862   0.373   4.500 -0.25 +0.00    +0.003 C 
ATOM     68  C1  UNL     1       3.678  -0.803   3.552 -0.35 +0.00    +0.005 C 
ENDBRANCH  66  67
ENDBRANCH   1  66
TORSDOF 15
TER
