USER    Run = 1
USER    DPF = ligand_205_receptor.dpf
USER  
USER    Estimated Free Energy of Binding    = +284.48 kcal/mol  [=(1)+(2)+(3)-(4)]
USER    
USER    (1) Final Intermolecular Energy     = +283.29 kcal/mol
USER        vdW + Hbond + desolv Energy     = +283.29 kcal/mol
USER        Electrostatic Energy            =   +0.00 kcal/mol
USER    (2) Final Total Internal Energy     =   -0.63 kcal/mol
USER    (3) Torsional Free Energy           =   +1.19 kcal/mol
USER    (4) Unbound System's Energy  [=(2)] =   -0.63 kcal/mol
USER    
USER    
USER    NEWDPF move ligand_205.pdbqt
USER    NEWDPF about 0.000000 0.000000 0.000000
USER    NEWDPF tran0 13.995189 7.476497 1.281176
USER    NEWDPF quaternion0 0.744873 0.217136 0.070212 -0.626966
USER    NEWDPF axisangle0 0.956134 0.278720 0.090126 -102.346743
USER    NEWDPF quat0 0.956134 0.278720 0.090126 -102.346743
USER    NEWDPF dihe0 2.74 132.91 141.69 -136.45 -75.96 -70.68 -152.84 158.34 89.21 71.29 128.05 58.03 -102.29 -89.62 -43.12 176.69 -180.00 -112.72 -37.51 21.19 
USER  keepresnum = 1 
USER  
REMARK  20 active torsions:
REMARK  status: ('A' for Active; 'I' for Inactive)
REMARK    1  A    between atoms: C2_2  and  C3_3 
REMARK    2  A    between atoms: C2_2  and  N1_53 
REMARK    3  A    between atoms: C6_6  and  N3_56 
REMARK    4  A    between atoms: C9_9  and  C10_10 
REMARK    5  A    between atoms: C9_9  and  N3_56 
REMARK    6  A    between atoms: C13_13  and  N5_59 
REMARK    7  A    between atoms: C16_16  and  C17_17 
REMARK    8  A    between atoms: C16_16  and  N5_59 
REMARK    9  A    between atoms: C20_20  and  N7_62 
REMARK   10  A    between atoms: C23_23  and  C24_24 
REMARK       I    between atoms: C23_23  and  N7_62 
REMARK   11  A    between atoms: C26_26  and  C30_30 
REMARK       I    between atoms: C30_30  and  N8_63 
REMARK   12  A    between atoms: C31_31  and  N8_63 
REMARK   13  A    between atoms: C34_34  and  C37_37 
REMARK   14  A    between atoms: C37_37  and  N10_66 
REMARK   15  A    between atoms: C38_38  and  N10_66 
REMARK   16  A    between atoms: C41_41  and  C44_44 
REMARK   17  A    between atoms: C44_44  and  N12_69 
REMARK   18  A    between atoms: C45_45  and  N12_69 
REMARK   19  A    between atoms: C48_48  and  C51_51 
REMARK   20  A    between atoms: C51_51  and  N14_72 
USER                              x       y       z     vdW  Elec       q    Type
USER                           _______ _______ _______ _____ _____    ______ ____
ROOT
ATOM      1  C24 UNL     1      12.282  10.220   2.824+56.25 +0.00    +0.033 A 
ATOM      2  C25 UNL     1      13.681  10.219   2.714+40.95 +0.00    +0.034 A 
ATOM      3  C26 UNL     1      14.375  11.426   2.568+23.42 +0.00    +0.033 A 
ATOM      4  C27 UNL     1      13.665  12.635   2.568+77.65 +0.00    +0.017 A 
ATOM      5  C28 UNL     1      12.276  12.639   2.700+29.31 +0.00    +0.002 A 
ATOM      6  C29 UNL     1      11.582  11.435   2.831+50.75 +0.00    +0.017 A 
ENDROOT
BRANCH   1   7
ATOM      7  C23 UNL     1      11.588   8.907   2.972 +9.32 +0.00    +0.256 C 
ATOM      8  N7  UNL     1      10.229   8.977   3.220 +0.70 -0.00    -0.323 N 
ATOM      9  H41 UNL     1       9.799   9.891   3.175 -0.27 +0.00    +0.169 HD
ATOM     10  O1  UNL     1      12.253   7.888   2.821 -0.25 -0.00    -0.267 OA
BRANCH   8  11
ATOM     11  C20 UNL     1       9.344   7.899   3.435 -0.36 +0.00    +0.035 A 
ATOM     12  C19 UNL     1       7.962   8.043   3.587 +2.84 +0.00    +0.030 A 
ATOM     13  C18 UNL     1       7.148   6.925   3.798 +1.53 +0.00    +0.017 A 
ATOM     14  C17 UNL     1       7.717   5.651   3.851 -0.21 +0.00    +0.008 A 
ATOM     15  C22 UNL     1       9.095   5.491   3.693 -0.22 +0.00    +0.017 A 
ATOM     16  C21 UNL     1       9.901   6.614   3.486 -0.29 +0.00    +0.030 A 
BRANCH  14  17
ATOM     17  C16 UNL     1       6.848   4.454   4.071 -0.21 +0.00    +0.109 C 
ATOM     18  N6  UNL     1       6.682   4.029   5.283 -0.10 -0.00    -0.385 N 
ATOM     19  H40 UNL     1       7.224   4.584   5.953 +0.08 +0.00    +0.157 HD
ATOM     20  H6  UNL     1       6.087   3.241   5.540 -0.35 +0.00    +0.157 HD
BRANCH  17  21
ATOM     21  N5  UNL     1       6.275   3.902   2.947 -0.02 -0.00    -0.342 N 
ATOM     22  H39 UNL     1       5.267   3.967   2.878 +0.06 +0.00    +0.167 HD
BRANCH  21  23
ATOM     23  C13 UNL     1       6.862   3.136   1.921 -0.14 +0.00    +0.033 A 
ATOM     24  C12 UNL     1       6.517   1.808   1.643 -0.22 +0.00    +0.030 A 
ATOM     25  C11 UNL     1       7.130   1.098   0.604 -0.14 +0.00    +0.017 A 
ATOM     26  C10 UNL     1       8.107   1.716  -0.176 -0.15 +0.00    +0.008 A 
ATOM     27  C15 UNL     1       8.474   3.036   0.082 -0.12 +0.00    +0.017 A 
ATOM     28  C14 UNL     1       7.854   3.736   1.123 -0.12 +0.00    +0.030 A 
BRANCH  26  29
ATOM     29  C9  UNL     1       8.752   0.969  -1.300 -0.15 +0.00    +0.109 C 
ATOM     30  N4  UNL     1       9.067  -0.273  -1.110 -0.05 -0.00    -0.385 N 
ATOM     31  H38 UNL     1       8.780  -0.592  -0.181 +0.08 +0.00    +0.157 HD
ATOM     32  H4  UNL     1       9.541  -0.858  -1.798 +0.11 +0.00    +0.157 HD
BRANCH  29  33
ATOM     33  N3  UNL     1       8.965   1.683  -2.459 +0.02 -0.00    -0.342 N 
ATOM     34  H37 UNL     1       8.879   1.164  -3.325 +0.09 +0.00    +0.167 HD
BRANCH  33  35
ATOM     35  C6  UNL     1       9.139   3.068  -2.654 +0.07 +0.00    +0.033 A 
ATOM     36  C5  UNL     1      10.437   3.541  -2.927 +0.50 +0.00    +0.030 A 
ATOM     37  C4  UNL     1      10.694   4.904  -3.114 -0.10 +0.00    +0.017 A 
ATOM     38  C3  UNL     1       9.650   5.824  -3.022 -0.23 +0.00    +0.007 A 
ATOM     39  C8  UNL     1       8.359   5.379  -2.740 +0.64 +0.00    +0.017 A 
ATOM     40  C7  UNL     1       8.113   4.012  -2.556 -0.14 +0.00    +0.030 A 
BRANCH  38  41
ATOM     41  C2  UNL     1       9.913   7.282  -3.201 -0.32 +0.00    +0.104 C 
ATOM     42  N2  UNL     1       8.959   8.148  -3.059 +0.06 -0.00    -0.385 N 
ATOM     43  H36 UNL     1       8.088   7.692  -2.774 -0.40 +0.00    +0.157 HD
ATOM     44  H2  UNL     1       9.063   9.151  -3.211 +0.09 +0.00    +0.157 HD
BRANCH  41  45
ATOM     45  N1  UNL     1      11.188   7.680  -3.522 -0.08 -0.00    -0.380 N 
ATOM     46  C1  UNL     1      11.488   9.045  -3.893 +0.10 +0.00    +0.147 C 
ATOM     47  H35 UNL     1      11.771   6.985  -3.975 +0.09 +0.00    +0.160 HD
ENDBRANCH  41  45
ENDBRANCH  38  41
ENDBRANCH  33  35
ENDBRANCH  29  33
ENDBRANCH  26  29
ENDBRANCH  21  23
ENDBRANCH  17  21
ENDBRANCH  14  17
ENDBRANCH   8  11
ENDBRANCH   1   7
BRANCH   3  48
ATOM     48  C30 UNL     1      15.862  11.481   2.446 -0.10 +0.00    +0.256 C 
ATOM     49  N8  UNL     1      16.408  10.675   1.461 -0.24 -0.00    -0.323 N 
ATOM     50  H42 UNL     1      15.768  10.180   0.855 -0.08 +0.00    +0.169 HD
ATOM     51  O2  UNL     1      16.471  12.241   3.189 -0.23 -0.00    -0.267 OA
BRANCH  49  52
ATOM     52  C31 UNL     1      17.775  10.513   1.150 -0.46 +0.00    +0.035 A 
ATOM     53  C32 UNL     1      18.374  10.986  -0.019 -0.32 +0.00    +0.030 A 
ATOM     54  C33 UNL     1      19.742  10.786  -0.253 +0.43 +0.00    +0.017 A 
ATOM     55  C34 UNL     1      20.528  10.118   0.691 -0.42 +0.00    +0.008 A 
ATOM     56  C35 UNL     1      19.931   9.634   1.858 -0.19 +0.00    +0.017 A 
ATOM     57  C36 UNL     1      18.565   9.834   2.087 -0.41 +0.00    +0.030 A 
BRANCH  55  58
ATOM     58  C37 UNL     1      21.993   9.900   0.465 -0.45 +0.00    +0.109 C 
ATOM     59  N9  UNL     1      22.595  10.647  -0.410 -0.13 -0.00    -0.385 N 
ATOM     60  H43 UNL     1      23.563  10.316  -0.484 +0.16 +0.00    +0.157 HD
ATOM     61  H9  UNL     1      22.182  11.421  -0.930 +0.11 +0.00    +0.157 HD
BRANCH  58  62
ATOM     62  N10 UNL     1      22.637   8.892   1.146 -0.19 -0.00    -0.342 N 
ATOM     63  H44 UNL     1      22.775   9.031   2.141 +0.13 +0.00    +0.167 HD
BRANCH  62  64
ATOM     64  C38 UNL     1      23.552   7.962   0.609 -0.44 +0.00    +0.033 A 
ATOM     65  C39 UNL     1      24.808   8.323   0.105 -0.29 +0.00    +0.030 A 
ATOM     66  C40 UNL     1      25.664   7.370  -0.459 -0.36 +0.00    +0.017 A 
ATOM     67  C41 UNL     1      25.265   6.033  -0.546 -0.45 +0.00    +0.008 A 
ATOM     68  C42 UNL     1      24.013   5.660  -0.048 -0.52 +0.00    +0.017 A 
ATOM     69  C43 UNL     1      23.164   6.618   0.514 -0.16 +0.00    +0.030 A 
BRANCH  67  70
ATOM     70  C44 UNL     1      26.160   4.994  -1.150 -0.40 +0.00    +0.109 C 
ATOM     71  N11 UNL     1      25.651   4.190  -2.032 -0.20 -0.00    -0.385 N 
ATOM     72  H45 UNL     1      26.408   3.594  -2.387 +0.08 +0.00    +0.157 HD
ATOM     73  H11 UNL     1      24.674   4.155  -2.320 +0.11 +0.00    +0.157 HD
BRANCH  70  74
ATOM     74  N12 UNL     1      27.489   4.963  -0.793 -0.11 -0.00    -0.342 N 
ATOM     75  H46 UNL     1      27.902   4.047  -0.653 +0.08 +0.00    +0.167 HD
BRANCH  74  76
ATOM     76  C45 UNL     1      28.461   5.951  -1.059 -0.22 +0.00    +0.033 A 
ATOM     77  C46 UNL     1      28.763   6.881  -0.051 -0.24 +0.00    +0.030 A 
ATOM     78  C47 UNL     1      29.685   7.910  -0.270 -0.24 +0.00    +0.017 A 
ATOM     79  C48 UNL     1      30.315   8.024  -1.510 -0.22 +0.00    +0.007 A 
ATOM     80  C49 UNL     1      30.017   7.119  -2.530 -0.21 +0.00    +0.017 A 
ATOM     81  C50 UNL     1      29.090   6.095  -2.303 -0.19 +0.00    +0.030 A 
BRANCH  79  82
ATOM     82  C51 UNL     1      31.295   9.125  -1.744 -0.23 +0.00    +0.104 C 
ATOM     83  N13 UNL     1      31.595   9.954  -0.795 -0.13 -0.00    -0.385 N 
ATOM     84  H47 UNL     1      31.054   9.760   0.051 +0.06 +0.00    +0.157 HD
ATOM     85  H13 UNL     1      32.282  10.703  -0.881 +0.03 +0.00    +0.157 HD
BRANCH  82  86
ATOM     86  N14 UNL     1      31.866   9.234  -2.989 -0.08 -0.00    -0.380 N 
ATOM     87  C52 UNL     1      32.199   8.064  -3.774 -0.10 +0.00    +0.147 C 
ATOM     88  H48 UNL     1      31.573  10.032  -3.542 +0.05 +0.00    +0.160 HD
ENDBRANCH  82  86
ENDBRANCH  79  82
ENDBRANCH  74  76
ENDBRANCH  70  74
ENDBRANCH  67  70
ENDBRANCH  62  64
ENDBRANCH  58  62
ENDBRANCH  55  58
ENDBRANCH  49  52
ENDBRANCH   3  48
TORSDOF 20
TER
