USER    Run = 1
USER    DPF = ligand_233_receptor.dpf
USER  
USER    Estimated Free Energy of Binding    =  +1.25e+003 kcal/mol  [=(1)+(2)+(3)-(4)]
USER    
USER    (1) Final Intermolecular Energy     =  +1.25e+003 kcal/mol
USER        vdW + Hbond + desolv Energy     =  +1.25e+003 kcal/mol
USER        Electrostatic Energy            =   +0.00 kcal/mol
USER    (2) Final Total Internal Energy     =   +0.00 kcal/mol
USER    (3) Torsional Free Energy           =   +1.19 kcal/mol
USER    (4) Unbound System's Energy  [=(2)] =   +0.00 kcal/mol
USER    
USER    
USER    NEWDPF move ligand_233.pdbqt
USER    NEWDPF about 0.000000 0.000000 0.000000
USER    NEWDPF tran0 13.859376 6.353058 2.854123
USER    NEWDPF quaternion0 -0.842007 -0.080474 -0.020022 0.533054
USER    NEWDPF axisangle0 -0.995185 -0.095113 -0.023664 115.575919
USER    NEWDPF quat0 -0.995185 -0.095113 -0.023664 115.575919
USER  keepresnum = 1 
USER  
REMARK  0 active torsions:
REMARK  status: ('A' for Active; 'I' for Inactive)
REMARK       I    between atoms: N1_1  and  C1_16 
REMARK       I    between atoms: N2_2  and  C2_17 
REMARK       I    between atoms: N2_2  and  C3_18 
REMARK       I    between atoms: N3_3  and  C4_19 
REMARK       I    between atoms: N3_3  and  C5_20 
REMARK       I    between atoms: N4_4  and  C6_21 
REMARK       I    between atoms: N4_4  and  C7_22 
REMARK       I    between atoms: N5_5  and  C8_23 
REMARK       I    between atoms: N5_5  and  C9_24 
REMARK       I    between atoms: N6_6  and  C10_25 
REMARK       I    between atoms: N6_6  and  C11_26 
REMARK       I    between atoms: N7_7  and  C12_27 
REMARK       I    between atoms: N7_7  and  C13_28 
REMARK       I    between atoms: N8_8  and  C14_29 
REMARK       I    between atoms: N9_9  and  C19_34 
REMARK       I    between atoms: N10_10  and  C24_39 
REMARK       I    between atoms: N11_11  and  C26_41 
REMARK       I    between atoms: N11_11  and  C27_42 
REMARK       I    between atoms: N12_12  and  C28_43 
REMARK       I    between atoms: N12_12  and  C29_44 
REMARK       I    between atoms: N13_13  and  C30_45 
REMARK       I    between atoms: N13_13  and  C31_46 
REMARK       I    between atoms: N14_14  and  C32_47 
REMARK       I    between atoms: N14_14  and  C33_48 
REMARK       I    between atoms: N15_15  and  C34_49 
REMARK       I    between atoms: N15_15  and  C35_50 
REMARK       I    between atoms: C1_16  and  C2_17 
REMARK       I    between atoms: C2_17  and  C23_38 
REMARK       I    between atoms: C3_18  and  C4_19 
REMARK       I    between atoms: C4_19  and  C22_37 
REMARK       I    between atoms: C5_20  and  C6_21 
REMARK       I    between atoms: C6_21  and  C21_36 
REMARK       I    between atoms: C7_22  and  C8_23 
REMARK       I    between atoms: C9_24  and  C10_25 
REMARK       I    between atoms: C10_25  and  C17_32 
REMARK       I    between atoms: C11_26  and  C12_27 
REMARK       I    between atoms: C12_27  and  C16_31 
REMARK       I    between atoms: C13_28  and  C14_29 
REMARK       I    between atoms: C14_29  and  C15_30 
REMARK       I    between atoms: C15_30  and  S1_77 
REMARK       I    between atoms: C16_31  and  S2_78 
REMARK       I    between atoms: C17_32  and  C18_33 
REMARK       I    between atoms: C18_33  and  C19_34 
REMARK       I    between atoms: C21_36  and  S3_79 
REMARK       I    between atoms: C22_37  and  S4_80 
REMARK       I    between atoms: C23_38  and  C24_39 
REMARK       I    between atoms: C25_40  and  C26_41 
REMARK       I    between atoms: C27_42  and  C28_43 
REMARK       I    between atoms: C29_44  and  C30_45 
REMARK       I    between atoms: C29_44  and  C40_55 
REMARK       I    between atoms: C31_46  and  C32_47 
REMARK       I    between atoms: C31_46  and  C38_53 
REMARK       I    between atoms: C33_48  and  C34_49 
REMARK       I    between atoms: C35_50  and  C36_51 
REMARK       I    between atoms: C35_50  and  C37_52 
REMARK       I    between atoms: C36_51  and  O16_75 
REMARK       I    between atoms: C37_52  and  S5_81 
REMARK       I    between atoms: C38_53  and  O17_76 
REMARK       I    between atoms: C40_55  and  S6_82 
USER                              x       y       z     vdW  Elec       q    Type
USER                           _______ _______ _______ _____ _____    ______ ____
ROOT
ATOM      1  N1  UNL     1      13.163   4.940   4.400+23.52 -0.00    -0.337 N 
ATOM      2  N2  UNL     1      13.573   7.331   1.624 +1.19 -0.00    -0.346 N 
ATOM      3  N3  UNL     1      15.028   9.466   0.240+11.79 -0.00    -0.345 N 
ATOM      4  N4  UNL     1      17.641   9.258  -1.398 +0.25 -0.00    -0.345 N 
ATOM      5  N5  UNL     1      19.615   9.673   0.440 +0.10 -0.00    -0.346 N 
ATOM      6  N6  UNL     1      22.532   7.731   1.556 +0.81 -0.00    -0.346 N 
ATOM      7  N7  UNL     1      25.132   7.030   2.857 +0.40 -0.00    -0.345 N 
ATOM      8  N8  UNL     1      27.541   8.722   3.825+44.20 +0.00    +0.092 N 
ATOM      9  N9  UNL     1      17.596   6.792   3.747 +2.71 -0.00    -0.370 N 
ATOM     10  N10 UNL     1      10.586   4.055   0.182 +2.40 -0.00    -0.370 N 
ATOM     11  N11 UNL     1      10.031   6.324   4.451 -0.09 -0.00    -0.346 N 
ATOM     12  N12 UNL     1       8.303   6.413   6.981 +4.98 -0.00    -0.345 N 
ATOM     13  N13 UNL     1       6.259   3.795   6.615 -0.18 -0.00    -0.344 N 
ATOM     14  N14 UNL     1       6.876   3.793   3.912 -0.07 -0.00    -0.350 N 
ATOM     15  N15 UNL     1       5.798   3.015   1.541 -0.01 -0.00    -0.344 N 
ATOM     16  C1  UNL     1      13.726   5.669   3.373+48.01 +0.00    +0.243 C 
ATOM     17  C2  UNL     1      12.815   6.253   2.262 +0.69 +0.00    +0.185 C 
ATOM     18  C3  UNL     1      13.563   8.611   2.141+99.99 +0.00    +0.241 C 
ATOM     19  C4  UNL     1      14.748   9.498   1.683+79.65 +0.00    +0.185 C 
ATOM     20  C5  UNL     1      15.677   8.410  -0.369 -0.13 +0.00    +0.241 C 
ATOM     21  C6  UNL     1      16.302   8.761  -1.731 +5.97 +0.00    +0.185 C 
ATOM     22  C7  UNL     1      17.813  10.553  -0.937 +2.09 +0.00    +0.240 C 
ATOM     23  C8  UNL     1      19.224  10.820  -0.379 +0.76 +0.00    +0.172 C 
ATOM     24  C9  UNL     1      20.932   9.320   0.628 +1.50 +0.00    +0.241 C 
ATOM     25  C10 UNL     1      21.147   8.178   1.650+51.52 +0.00    +0.177 C 
ATOM     26  C11 UNL     1      22.945   6.474   1.929 +5.74 +0.00    +0.241 C 
ATOM     27  C12 UNL     1      24.466   6.247   1.809 +0.71 +0.00    +0.185 C 
ATOM     28  C13 UNL     1      25.410   8.369   2.684 -0.41 +0.00    +0.252 C 
ATOM     29  C14 UNL     1      26.091   9.027   3.901 +1.31 +0.00    +0.318 C 
ATOM     30  C15 UNL     1      25.859  10.543   3.923+20.47 +0.00    +0.116 C 
ATOM     31  C16 UNL     1      24.776   4.749   1.931 +0.68 +0.00    +0.105 C 
ATOM     32  C17 UNL     1      20.809   8.628   3.085 +0.34 +0.00    +0.044 C 
ATOM     33  C18 UNL     1      19.846   7.671   3.797 +2.17 +0.00    +0.105 C 
ATOM     34  C19 UNL     1      18.454   7.699   3.204 -0.06 +0.00    +0.215 C 
ATOM     35  C20 UNL     1      19.275  12.109   0.428 -0.67 +0.00    +0.042 C 
ATOM     36  C21 UNL     1      16.396   7.534  -2.642 +3.36 +0.00    +0.105 C 
ATOM     37  C22 UNL     1      14.593  10.940   2.198 +4.16 +0.00    +0.105 C 
ATOM     38  C23 UNL     1      12.463   5.180   1.224+13.17 +0.00    +0.137 C 
ATOM     39  C24 UNL     1      10.971   4.964   1.119+16.23 +0.00    +0.217 C 
ATOM     40  C25 UNL     1      11.757   4.574   4.615 +0.68 +0.00    +0.179 C 
ATOM     41  C26 UNL     1      10.942   5.710   5.279 -0.21 +0.00    +0.241 C 
ATOM     42  C27 UNL     1       9.160   7.399   4.913 +6.06 +0.00    +0.172 C 
ATOM     43  C28 UNL     1       7.995   6.733   5.677+56.68 +0.00    +0.240 C 
ATOM     44  C29 UNL     1       7.465   5.585   7.847 -0.20 +0.00    +0.185 C 
ATOM     45  C30 UNL     1       7.388   4.142   7.312 -0.37 +0.00    +0.242 C 
ATOM     46  C31 UNL     1       6.157   2.516   5.906+99.99 +0.00    +0.205 C 
ATOM     47  C32 UNL     1       6.884   2.567   4.549 +4.86 +0.00    +0.243 C 
ATOM     48  C33 UNL     1       7.687   4.007   2.728 -0.12 +0.00    +0.225 C 
ATOM     49  C34 UNL     1       7.107   3.425   1.434 -0.07 +0.00    +0.236 C 
ATOM     50  C35 UNL     1       5.016   2.591   0.380 -0.07 +0.00    +0.191 C 
ATOM     51  C36 UNL     1       4.274   3.770  -0.255 -0.13 +0.00    +0.164 C 
ATOM     52  C37 UNL     1       3.975   1.541   0.774 -0.15 +0.00    +0.106 C 
ATOM     53  C38 UNL     1       4.687   2.125   5.661 +0.63 +0.00    +0.146 C 
ATOM     54  C39 UNL     1       3.990   1.727   6.958+14.36 +0.00    +0.042 C 
ATOM     55  C40 UNL     1       6.177   6.226   8.393 +6.83 +0.00    +0.105 C 
ATOM     56  C41 UNL     1       8.651   8.220   3.738 +1.44 +0.00    +0.042 C 
ATOM     57  C42 UNL     1      11.837   3.370   5.561 -0.20 +0.00    +0.037 C 
ATOM     58  C43 UNL     1      13.091   3.640   6.384 +0.07 +0.00    +0.022 C 
ATOM     59  C44 UNL     1      14.024   4.303   5.385+12.39 +0.00    +0.127 C 
ATOM     60  O1  UNL     1      14.955   5.820   3.315+68.32 -0.00    -0.271 OA
ATOM     61  O2  UNL     1      12.757   8.961   3.002 +0.98 -0.00    -0.271 OA
ATOM     62  O3  UNL     1      15.848   7.327   0.187 +1.18 -0.00    -0.271 OA
ATOM     63  O4  UNL     1      16.932  11.403  -1.037+99.99 -0.00    -0.271 OA
ATOM     64  O5  UNL     1      21.857   9.854   0.020 -0.35 -0.00    -0.271 OA
ATOM     65  O6  UNL     1      22.170   5.620   2.350+23.34 -0.00    -0.271 OA
ATOM     66  O7  UNL     1      25.197   8.947   1.622 -0.29 -0.00    -0.271 OA
ATOM     67  O8  UNL     1      18.111   8.482   2.321 -0.29 -0.00    -0.274 OA
ATOM     68  O9  UNL     1      10.145   5.499   1.851 -0.13 -0.00    -0.274 OA
ATOM     69  O10 UNL     1      11.087   6.067   6.448 -0.19 -0.00    -0.271 OA
ATOM     70  O11 UNL     1       6.935   6.404   5.146 +0.48 -0.00    -0.271 OA
ATOM     71  O12 UNL     1       8.350   3.377   7.404 -0.41 -0.00    -0.271 OA
ATOM     72  O13 UNL     1       7.304   1.550   3.998 +0.73 -0.00    -0.271 OA
ATOM     73  O14 UNL     1       7.747   3.391   0.385 -0.05 -0.00    -0.272 OA
ATOM     74  O15 UNL     1       3.587   3.718  -1.265 -0.04 -0.00    -0.648 OA
ATOM     75  O16 UNL     1       4.378   4.932   0.424 -0.21 -0.00    -0.775 OA
ATOM     76  O17 UNL     1       3.975   3.227   5.077 -0.10 -0.00    -0.393 OA
ATOM     77  S1  UNL     1      24.137  10.956   4.374 +0.30 -0.00    -0.180 SA
ATOM     78  S2  UNL     1      26.558   4.390   1.750+98.76 -0.00    -0.180 SA
ATOM     79  S3  UNL     1      14.766   7.001  -3.261+84.61 -0.00    -0.180 SA
ATOM     80  S4  UNL     1      13.278  11.886   1.352 +6.29 -0.00    -0.180 SA
ATOM     81  S5  UNL     1       4.731   0.029   1.465+14.44 -0.00    -0.180 SA
ATOM     82  S6  UNL     1       4.762   6.507   7.280 -0.36 -0.00    -0.180 SA
ATOM     83  H1  UNL     1      14.467   7.054   1.211 +0.98 +0.00    +0.163 HD
ATOM     84  H2  UNL     1      15.149  10.377  -0.204 -0.15 +0.00    +0.163 HD
ATOM     85  H3  UNL     1      18.302   8.589  -1.007 +0.13 +0.00    +0.163 HD
ATOM     86  H4  UNL     1      18.927   9.325   1.116 +0.12 +0.00    +0.163 HD
ATOM     87  H5  UNL     1      23.223   8.416   1.238 +0.13 +0.00    +0.163 HD
ATOM     88  H6  UNL     1      25.134   6.653   3.798 +0.34 +0.00    +0.163 HD
ATOM     89  H7  UNL     1      27.910   9.116   2.956 -0.01 +0.00    +0.313 HD
ATOM     90  H8  UNL     1      27.662   7.712   3.729 -0.31 +0.00    +0.313 HD
ATOM     91  H9  UNL     1      17.915   6.026   4.324+27.69 +0.00    +0.159 HD
ATOM     92  H10 UNL     1      16.659   6.674   3.353 -0.05 +0.00    +0.159 HD
ATOM     93  H11 UNL     1       9.585   3.880   0.056 -0.04 +0.00    +0.159 HD
ATOM     94  H12 UNL     1      11.198   3.717  -0.547 -0.21 +0.00    +0.159 HD
ATOM     95  H13 UNL     1       9.911   5.995   3.491 +0.09 +0.00    +0.163 HD
ATOM     96  H14 UNL     1       9.309   6.371   7.172 +0.11 +0.00    +0.163 HD
ATOM     97  H15 UNL     1       5.594   4.520   6.346 +0.07 +0.00    +0.163 HD
ATOM     98  H16 UNL     1       6.688   4.613   4.489 +0.08 +0.00    +0.163 HD
ATOM     99  H17 UNL     1       5.304   3.371   2.356 +0.06 +0.00    +0.163 HD
ATOM    100  H66 UNL     1       3.880   5.577  -0.120 +0.01 +0.00    +0.167 HD
ATOM    101  H67 UNL     1       3.030   2.988   5.058 +0.08 +0.00    +0.210 HD
ATOM    102  H68 UNL     1      24.250  12.279   4.184 +0.06 +0.00    +0.101 HD
ATOM    103  H69 UNL     1      26.689   4.865   0.502 +0.05 +0.00    +0.101 HD
ATOM    104  H70 UNL     1      15.216   5.989  -4.017 +0.40 +0.00    +0.101 HD
ATOM    105  H71 UNL     1      12.255  11.154   1.822 +6.28 +0.00    +0.101 HD
ATOM    106  H72 UNL     1       5.646   0.652   2.232 +0.02 +0.00    +0.101 HD
ATOM    107  H73 UNL     1       5.460   7.059   6.271 +0.10 +0.00    +0.101 HD
ENDROOT
TORSDOF 45
TER
