USER    Run = 1
USER    DPF = ligand_509_receptor.dpf
USER  
USER    Estimated Free Energy of Binding    =  +2.08e+004 kcal/mol  [=(1)+(2)+(3)-(4)]
USER    
USER    (1) Final Intermolecular Energy     =  +2.08e+004 kcal/mol
USER        vdW + Hbond + desolv Energy     =  +2.08e+004 kcal/mol
USER        Electrostatic Energy            =   +0.00 kcal/mol
USER    (2) Final Total Internal Energy     =   +0.00 kcal/mol
USER    (3) Torsional Free Energy           =   +1.19 kcal/mol
USER    (4) Unbound System's Energy  [=(2)] =   +0.00 kcal/mol
USER    
USER    
USER    NEWDPF move ligand_509.pdbqt
USER    NEWDPF about 0.000000 0.000000 0.000000
USER    NEWDPF tran0 17.654604 7.651480 0.826310
USER    NEWDPF quaternion0 -0.147272 0.789001 0.596425 0.008159
USER    NEWDPF axisangle0 -0.147277 0.789027 0.596444 179.065029
USER    NEWDPF quat0 -0.147277 0.789027 0.596444 179.065029
USER  keepresnum = 1 
USER  
REMARK  0 active torsions:
REMARK  status: ('A' for Active; 'I' for Inactive)
REMARK       I    between atoms: C2_2  and  C3_3 
REMARK       I    between atoms: C2_2  and  N2_59 
REMARK       I    between atoms: C5_5  and  C6_6 
REMARK       I    between atoms: C5_5  and  N2_59 
REMARK       I    between atoms: C6_6  and  C7_7 
REMARK       I    between atoms: C7_7  and  O1_82 
REMARK       I    between atoms: C8_8  and  O1_82 
REMARK       I    between atoms: C9_9  and  C45_45 
REMARK       I    between atoms: C11_11  and  C14_14 
REMARK       I    between atoms: C14_14  and  N3_60 
REMARK       I    between atoms: C15_15  and  C16_16 
REMARK       I    between atoms: C15_15  and  N3_60 
REMARK       I    between atoms: C16_16  and  C17_17 
REMARK       I    between atoms: C17_17  and  C18_18 
REMARK       I    between atoms: C18_18  and  C19_19 
REMARK       I    between atoms: C19_19  and  C20_20 
REMARK       I    between atoms: C20_20  and  C21_21 
REMARK       I    between atoms: C21_21  and  C22_22 
REMARK       I    between atoms: C22_22  and  N4_61 
REMARK       I    between atoms: C23_23  and  C24_24 
REMARK       I    between atoms: C23_23  and  N4_61 
REMARK       I    between atoms: C26_26  and  C33_33 
REMARK       I    between atoms: C27_27  and  O4_85 
REMARK       I    between atoms: C30_30  and  C31_31 
REMARK       I    between atoms: C30_30  and  O4_85 
REMARK       I    between atoms: C31_31  and  N5_62 
REMARK       I    between atoms: C32_32  and  N6_64 
REMARK       I    between atoms: C32_32  and  N7_65 
REMARK       I    between atoms: C34_34  and  O6_87 
REMARK       I    between atoms: C35_35  and  O5_86 
REMARK       I    between atoms: C39_39  and  C40_40 
REMARK       I    between atoms: C39_39  and  O5_86 
REMARK       I    between atoms: C40_40  and  N8_66 
REMARK       I    between atoms: C41_41  and  N9_68 
REMARK       I    between atoms: C41_41  and  N10_69 
REMARK       I    between atoms: C42_42  and  C43_43 
REMARK       I    between atoms: C42_42  and  O6_87 
REMARK       I    between atoms: C43_43  and  N11_70 
REMARK       I    between atoms: C44_44  and  N12_72 
REMARK       I    between atoms: C44_44  and  N13_73 
REMARK       I    between atoms: C46_46  and  O8_89 
REMARK       I    between atoms: C47_47  and  O7_88 
REMARK       I    between atoms: C51_51  and  C52_52 
REMARK       I    between atoms: C51_51  and  O7_88 
REMARK       I    between atoms: C52_52  and  N14_74 
REMARK       I    between atoms: C53_53  and  N15_76 
REMARK       I    between atoms: C53_53  and  N16_77 
REMARK       I    between atoms: C54_54  and  C55_55 
REMARK       I    between atoms: C54_54  and  O8_89 
REMARK       I    between atoms: C55_55  and  N17_78 
REMARK       I    between atoms: C56_56  and  N18_80 
REMARK       I    between atoms: C56_56  and  N19_81 
USER                              x       y       z     vdW  Elec       q    Type
USER                           _______ _______ _______ _____ _____    ______ ____
ROOT
ATOM      1  C1  UNL     1      23.606  10.052   8.307+99.99 +0.00    +0.049 C 
ATOM      2  C2  UNL     1      23.460  11.429   7.667+99.99 +0.00    +0.260 C 
ATOM      3  C3  UNL     1      22.082  12.074   7.915+44.08 +0.00    +0.009 C 
ATOM      4  C4  UNL     1      21.429  11.932   9.262 -0.71 +0.00    +0.065 C 
ATOM      5  C5  UNL     1      23.067  10.412   5.437 +0.54 +0.00    +0.272 C 
ATOM      6  C6  UNL     1      23.309  10.658   3.951 -0.43 +0.00    +0.056 C 
ATOM      7  C7  UNL     1      22.572   9.634   3.093 -0.41 +0.00    +0.177 C 
ATOM      8  C8  UNL     1      21.907   9.454   0.886 -0.33 +0.00    +0.080 A 
ATOM      9  C9  UNL     1      21.778   8.105   0.514+16.84 +0.00    +0.011 A 
ATOM     10  C10 UNL     1      20.710   7.765  -0.339+99.99 +0.00    +0.024 A 
ATOM     11  C11 UNL     1      19.817   8.732  -0.830+15.63 -0.00    -0.040 A 
ATOM     12  C12 UNL     1      19.992  10.070  -0.458 +4.00 +0.00    +0.011 A 
ATOM     13  C13 UNL     1      21.039  10.430   0.387 -0.46 +0.00    +0.038 A 
ATOM     14  C14 UNL     1      18.648   8.322  -1.689+10.58 +0.00    +0.161 C 
ATOM     15  C15 UNL     1      17.098   7.032  -0.277+25.49 +0.00    +0.217 C 
ATOM     16  C16 UNL     1      15.982   7.193   0.730+68.44 +0.00    +0.103 C 
ATOM     17  C17 UNL     1      16.514   7.744   2.050 +0.70 +0.00    +0.009 C 
ATOM     18  C18 UNL     1      15.419   7.983   3.092 -0.32 +0.00    +0.000 C 
ATOM     19  C19 UNL     1      14.378   9.057   2.751 +4.39 +0.00    +0.000 C 
ATOM     20  C20 UNL     1      14.743  10.486   3.170+11.13 +0.00    +0.009 C 
ATOM     21  C21 UNL     1      15.884  11.150   2.403 -0.38 +0.00    +0.103 C 
ATOM     22  C22 UNL     1      15.672  11.200   0.903 -0.31 +0.00    +0.217 C 
ATOM     23  C23 UNL     1      14.198  12.069  -0.874+12.44 +0.00    +0.161 C 
ATOM     24  C24 UNL     1      13.064  11.117  -1.148+99.99 -0.00    -0.040 A 
ATOM     25  C25 UNL     1      13.333   9.772  -1.455+99.99 +0.00    +0.024 A 
ATOM     26  C26 UNL     1      12.301   8.845  -1.686+99.99 +0.00    +0.011 A 
ATOM     27  C27 UNL     1      10.978   9.309  -1.621+99.99 +0.00    +0.080 A 
ATOM     28  C28 UNL     1      10.693  10.638  -1.293+99.99 +0.00    +0.038 A 
ATOM     29  C29 UNL     1      11.732  11.538  -1.060+36.67 +0.00    +0.011 A 
ATOM     30  C30 UNL     1       9.370   8.557  -3.112 -0.01 +0.00    +0.195 C 
ATOM     31  C31 UNL     1       8.351   7.430  -3.295 +3.32 +0.00    +0.148 C 
ATOM     32  C32 UNL     1       6.796   7.814  -1.531+20.21 +0.00    +0.121 C 
ATOM     33  C33 UNL     1      12.649   7.452  -2.019+32.99 +0.00    +0.013 A 
ATOM     34  C34 UNL     1      12.847   6.461  -1.028 -0.27 +0.00    +0.113 A 
ATOM     35  C35 UNL     1      13.335   5.197  -1.399+99.99 +0.00    +0.103 A 
ATOM     36  C36 UNL     1      13.490   4.877  -2.754+99.99 +0.00    +0.040 A 
ATOM     37  C37 UNL     1      13.246   5.831  -3.736 +1.47 +0.00    +0.004 A 
ATOM     38  C38 UNL     1      12.850   7.113  -3.370+99.99 +0.00    +0.015 A 
ATOM     39  C39 UNL     1      14.895   3.619  -0.541+99.99 +0.00    +0.195 C 
ATOM     40  C40 UNL     1      14.697   2.127  -0.821+31.12 +0.00    +0.148 C 
ATOM     41  C41 UNL     1      13.061   1.390   0.728+99.99 +0.00    +0.121 C 
ATOM     42  C42 UNL     1      11.940   5.982   1.154 -0.09 +0.00    +0.195 C 
ATOM     43  C43 UNL     1      10.496   5.678   0.727 -0.15 +0.00    +0.148 C 
ATOM     44  C44 UNL     1       9.334   4.042  -0.525 -0.13 +0.00    +0.121 C 
ATOM     45  C45 UNL     1      22.684   7.035   0.980 +2.83 +0.00    +0.013 A 
ATOM     46  C46 UNL     1      24.019   6.912   0.527 -0.38 +0.00    +0.113 A 
ATOM     47  C47 UNL     1      24.814   5.818   0.934 -0.40 +0.00    +0.103 A 
ATOM     48  C48 UNL     1      24.287   4.888   1.836 +0.95 +0.00    +0.040 A 
ATOM     49  C49 UNL     1      22.983   5.021   2.313+34.28 +0.00    +0.004 A 
ATOM     50  C50 UNL     1      22.188   6.077   1.880+99.99 +0.00    +0.015 A 
ATOM     51  C51 UNL     1      26.944   4.659   0.748 +0.67 +0.00    +0.195 C 
ATOM     52  C52 UNL     1      26.714   3.391  -0.080+28.82 +0.00    +0.148 C 
ATOM     53  C53 UNL     1      26.909   4.076  -2.343 -0.19 +0.00    +0.121 C 
ATOM     54  C54 UNL     1      25.745   8.415  -0.262 +0.59 +0.00    +0.195 C 
ATOM     55  C55 UNL     1      26.136   8.858   1.154 -0.32 +0.00    +0.148 C 
ATOM     56  C56 UNL     1      26.461  11.189   0.971+35.36 +0.00    +0.121 C 
ATOM     57  N1  UNL     1      21.498  12.784   6.997+18.97 -0.00    -0.404 N 
ATOM     58  H1  UNL     1      20.596  13.257   7.065 +3.39 +0.00    +0.155 HD
ATOM     59  N2  UNL     1      23.751  11.453   6.213+99.99 +0.00    +0.093 N 
ATOM     60  N3  UNL     1      17.455   8.212  -0.888 +0.62 -0.00    -0.357 N 
ATOM     61  N4  UNL     1      14.617  11.988   0.507 +0.25 -0.00    -0.357 N 
ATOM     62  N5  UNL     1       7.020   7.793  -2.788+93.15 -0.00    -0.370 N 
ATOM     63  H5  UNL     1       6.274   8.030  -3.442+21.39 +0.00    +0.161 HD
ATOM     64  N6  UNL     1       5.558   8.092  -1.070 +1.56 -0.00    -0.279 NA
ATOM     65  N7  UNL     1       7.636   7.590  -0.496 -0.28 -0.00    -0.279 NA
ATOM     66  N8  UNL     1      14.293   1.392   0.386+99.99 -0.00    -0.370 N 
ATOM     67  H8  UNL     1      14.986   0.891   0.942 +0.30 +0.00    +0.161 HD
ATOM     68  N9  UNL     1      12.667   0.676   1.805 +5.13 -0.00    -0.279 NA
ATOM     69  N10 UNL     1      11.995   2.003   0.165+21.41 -0.00    -0.279 NA
ATOM     70  N11 UNL     1      10.440   4.410  -0.002 +0.34 -0.00    -0.370 N 
ATOM     71  H11 UNL     1      11.273   3.828  -0.091 -0.31 +0.00    +0.161 HD
ATOM     72  N12 UNL     1       8.120   4.630  -0.521 -0.04 -0.00    -0.279 NA
ATOM     73  N13 UNL     1       9.271   2.867  -1.189 -0.06 -0.00    -0.279 NA
ATOM     74  N14 UNL     1      27.430   3.449  -1.359 -0.09 -0.00    -0.370 N 
ATOM     75  H14 UNL     1      28.337   2.992  -1.462 +0.06 +0.00    +0.161 HD
ATOM     76  N15 UNL     1      25.754   4.771  -2.427 -0.07 -0.00    -0.279 NA
ATOM     77  N16 UNL     1      27.540   4.092  -3.537 +2.25 -0.00    -0.279 NA
ATOM     78  N17 UNL     1      27.002  10.043   1.139 +5.93 -0.00    -0.370 N 
ATOM     79  H17 UNL     1      28.011   9.954   1.259 +1.55 +0.00    +0.161 HD
ATOM     80  N18 UNL     1      27.236  12.295   0.961+99.99 -0.00    -0.279 NA
ATOM     81  N19 UNL     1      25.173  11.532   0.756+52.02 -0.00    -0.279 NA
ATOM     82  O1  UNL     1      22.898   9.901   1.721 -0.13 -0.00    -0.350 OA
ATOM     83  O2  UNL     1      17.636   5.951  -0.496+99.99 -0.00    -0.274 OA
ATOM     84  O3  UNL     1      16.402  10.598   0.120 -0.13 -0.00    -0.274 OA
ATOM     85  O4  UNL     1       9.930   8.443  -1.791 -0.27 -0.00    -0.349 OA
ATOM     86  O5  UNL     1      13.622   4.275  -0.429+99.99 -0.00    -0.347 OA
ATOM     87  O6  UNL     1      12.643   6.866   0.270 -0.33 -0.00    -0.346 OA
ATOM     88  O7  UNL     1      26.049   5.705   0.354 -0.19 -0.00    -0.347 OA
ATOM     89  O8  UNL     1      24.427   7.860  -0.382 -0.23 -0.00    -0.346 OA
ATOM     90  H62 UNL     1      22.136  12.771   6.180+16.20 +0.00    +0.155 HD
ATOM     91  H63 UNL     1      24.759  11.343   6.082 +2.65 +0.00    +0.316 HD
ATOM     92  H64 UNL     1      17.068   9.082  -0.519 +0.11 +0.00    +0.162 HD
ATOM     93  H65 UNL     1      13.974  12.331   1.206 +0.21 +0.00    +0.162 HD
ATOM     94  H66 UNL     1       5.249   7.437  -0.362 +0.05 +0.00    +0.126 HD
ATOM     95  H67 UNL     1       4.900   8.111  -1.844 +0.10 +0.00    +0.126 HD
ATOM     96  H68 UNL     1       8.606   7.769  -0.767 +0.05 +0.00    +0.126 HD
ATOM     97  H69 UNL     1       7.411   8.198   0.287 +0.04 +0.00    +0.126 HD
ATOM     98  H70 UNL     1      13.431   0.084   2.114 -0.05 +0.00    +0.126 HD
ATOM     99  H71 UNL     1      11.841   0.126   1.613 +0.13 +0.00    +0.126 HD
ATOM    100  H72 UNL     1      11.381   2.394   0.876+35.92 +0.00    +0.126 HD
ATOM    101  H73 UNL     1      12.275   2.815  -0.389 -0.31 +0.00    +0.126 HD
ATOM    102  H74 UNL     1       7.642   4.513  -1.408 -0.04 +0.00    +0.126 HD
ATOM    103  H75 UNL     1       8.120   5.622  -0.286 +0.04 +0.00    +0.126 HD
ATOM    104  H76 UNL     1      10.128   2.331  -1.050 +0.05 +0.00    +0.126 HD
ATOM    105  H77 UNL     1       8.462   2.317  -0.931 +0.06 +0.00    +0.126 HD
ATOM    106  H78 UNL     1      25.845   5.591  -3.015 +0.30 +0.00    +0.126 HD
ATOM    107  H79 UNL     1      25.396   5.064  -1.521 +0.08 +0.00    +0.126 HD
ATOM    108  H80 UNL     1      28.309   3.430  -3.523 +0.05 +0.00    +0.126 HD
ATOM    109  H81 UNL     1      26.907   3.886  -4.301 +0.96 +0.00    +0.126 HD
ATOM    110  H82 UNL     1      28.213  12.023   0.933+99.99 +0.00    +0.126 HD
ATOM    111  H83 UNL     1      27.014  12.901   0.181 +0.08 +0.00    +0.126 HD
ATOM    112  H84 UNL     1      24.905  12.375   1.250 +0.33 +0.00    +0.126 HD
ATOM    113  H85 UNL     1      24.486  10.799   0.928 +0.15 +0.00    +0.126 HD
ENDROOT
TORSDOF 40
TER
