USER    Run = 1
USER    DPF = ligand_231_receptor.dpf
USER  
USER    Estimated Free Energy of Binding    =  -10.25 kcal/mol  [=(1)+(2)+(3)-(4)]
USER    Estimated Inhibition Constant, Ki   =   30.51 nM (nanomolar)  [Temperature = 298.15 K]
USER    
USER    (1) Final Intermolecular Energy     =  -11.45 kcal/mol
USER        vdW + Hbond + desolv Energy     =  -11.45 kcal/mol
USER        Electrostatic Energy            =   +0.00 kcal/mol
USER    (2) Final Total Internal Energy     =   -2.07 kcal/mol
USER    (3) Torsional Free Energy           =   +1.19 kcal/mol
USER    (4) Unbound System's Energy  [=(2)] =   -2.07 kcal/mol
USER    
USER    
USER    NEWDPF move ligand_231.pdbqt
USER    NEWDPF about 0.000000 0.000000 0.000000
USER    NEWDPF tran0 14.657084 5.002394 5.541276
USER    NEWDPF quaternion0 0.345406 -0.836858 -0.404412 -0.129669
USER    NEWDPF axisangle0 0.348347 -0.843983 -0.407856 -165.099063
USER    NEWDPF quat0 0.348347 -0.843983 -0.407856 -165.099063
USER    NEWDPF dihe0 44.77 125.79 172.82 59.28 -176.02 169.19 122.74 3.78 146.67 32.17 -50.91 173.73 -72.37 -172.61 96.88 38.03 161.12 -139.87 91.69 -159.34 89.81 
USER  keepresnum = 1 
USER  
REMARK  21 active torsions:
REMARK  status: ('A' for Active; 'I' for Inactive)
REMARK    1  A    between atoms: C3_3  and  C7_7 
REMARK    2  A    between atoms: C4_4  and  O2_33 
REMARK    3  A    between atoms: C6_6  and  O1_32 
REMARK    4  A    between atoms: C9_9  and  C10_10 
REMARK    5  A    between atoms: C10_10  and  C11_11 
REMARK    6  A    between atoms: C11_11  and  C12_12 
REMARK    7  A    between atoms: C12_12  and  C13_13 
REMARK    8  A    between atoms: C13_13  and  C14_14 
REMARK    9  A    between atoms: C14_14  and  C15_15 
REMARK   10  A    between atoms: C15_15  and  C16_16 
REMARK       I    between atoms: C16_16  and  N2_43 
REMARK   11  A    between atoms: C17_17  and  C18_18 
REMARK   12  A    between atoms: C17_17  and  O7_38 
REMARK   13  A    between atoms: C17_17  and  N2_43 
REMARK   14  A    between atoms: C18_18  and  C19_19 
REMARK   15  A    between atoms: C19_19  and  C20_20 
REMARK   16  A    between atoms: C20_20  and  C21_21 
REMARK   17  A    between atoms: C21_21  and  C22_22 
REMARK       I    between atoms: C22_22  and  N3_44 
REMARK   18  A    between atoms: C23_23  and  N3_44 
REMARK   19  A    between atoms: C24_24  and  C26_26 
REMARK   20  A    between atoms: C27_27  and  O6_37 
REMARK   21  A    between atoms: C29_29  and  O5_36 
USER                              x       y       z     vdW  Elec       q    Type
USER                           _______ _______ _______ _____ _____    ______ ____
ROOT
ATOM      1  C17 UNL     1      13.730   8.145   4.692 -0.35 +0.00    +0.220 C 
ENDROOT
BRANCH   1   2
ATOM      2  C18 UNL     1      15.195   7.828   4.375 -0.52 +0.00    +0.053 C 
BRANCH   2   3
ATOM      3  C19 UNL     1      15.772   8.446   3.091 -0.56 +0.00    +0.005 C 
BRANCH   3   4
ATOM      4  C20 UNL     1      15.215   9.807   2.658 +0.10 +0.00    +0.009 C 
BRANCH   4   5
ATOM      5  C21 UNL     1      16.136  10.998   2.923 -0.09 +0.00    +0.103 C 
BRANCH   5   6
ATOM      6  C22 UNL     1      17.617  10.644   2.913 -0.35 +0.00    +0.223 C 
ATOM      7  O4  UNL     1      18.194  10.233   3.912 -0.02 -0.00    -0.273 OA
ATOM      8  N3  UNL     1      18.175  10.891   1.676 -0.22 -0.00    -0.307 N 
ATOM      9  H36 UNL     1      17.619  11.269   0.924 +0.15 +0.00    +0.171 HD
BRANCH   8  10
ATOM     10  C23 UNL     1      19.490  10.648   1.399 -0.38 +0.00    +0.151 A 
ATOM     11  S2  UNL     1      19.979  11.163  -0.151 -0.48 -0.00    -0.063 SA
ATOM     12  C25 UNL     1      21.567  10.604   0.190 -0.35 +0.00    +0.083 A 
ATOM     13  C24 UNL     1      21.614  10.038   1.451 -0.33 +0.00    +0.053 A 
ATOM     14  N4  UNL     1      20.407  10.089   2.142 -0.20 -0.00    -0.335 N 
ATOM     15  H4  UNL     1      20.260   9.740   3.089 +0.12 +0.00    +0.168 HD
BRANCH  13  16
ATOM     16  C26 UNL     1      22.803   9.465   2.086 -0.41 +0.00    +0.024 A 
ATOM     17  C27 UNL     1      23.084   9.538   3.462 -0.48 +0.00    +0.080 A 
ATOM     18  C28 UNL     1      24.246   8.961   3.989 -0.50 +0.00    +0.074 A 
ATOM     19  C29 UNL     1      25.140   8.315   3.143 -0.50 +0.00    +0.068 A 
ATOM     20  C30 UNL     1      24.900   8.238   1.779 -0.42 +0.00    +0.037 A 
ATOM     21  C31 UNL     1      23.736   8.813   1.258 -0.44 +0.00    +0.019 A 
BRANCH  17  22
ATOM     22  O6  UNL     1      22.242  10.193   4.321 -0.07 -0.00    -0.360 OA
ATOM     23  H33 UNL     1      22.762  10.821   4.851 -0.06 +0.00    +0.217 HD
ENDBRANCH  17  22
BRANCH  19  24
ATOM     24  O5  UNL     1      26.260   7.770   3.700 -0.34 -0.00    -0.361 OA
ATOM     25  H32 UNL     1      26.706   8.456   4.225 -0.43 +0.00    +0.217 HD
ENDBRANCH  19  24
ENDBRANCH  13  16
ENDBRANCH   8  10
ENDBRANCH   5   6
ENDBRANCH   4   5
ENDBRANCH   3   4
ENDBRANCH   2   3
ENDBRANCH   1   2
BRANCH   1  26
ATOM     26  O7  UNL     1      13.622   9.295   5.502 +0.55 -0.00    -0.377 OA
ATOM     27  H34 UNL     1      14.537   9.493   5.764 +0.21 +0.00    +0.212 HD
ENDBRANCH   1  26
BRANCH   1  28
ATOM     28  N2  UNL     1      13.062   7.112   5.422 -0.17 -0.00    -0.335 N 
ATOM     29  C16 UNL     1      13.773   6.067   5.971 -0.36 +0.00    +0.219 C 
ATOM     30  O3  UNL     1      14.957   5.863   5.733 +1.10 -0.00    -0.274 OA
ATOM     31  H35 UNL     1      12.172   7.358   5.832 +0.12 +0.00    +0.165 HD
BRANCH  29  32
ATOM     32  C15 UNL     1      12.923   5.186   6.868 -0.50 +0.00    +0.103 C 
BRANCH  32  33
ATOM     33  C14 UNL     1      11.556   4.887   6.254 -0.46 +0.00    +0.009 C 
BRANCH  33  34
ATOM     34  C13 UNL     1      10.438   4.772   7.293 -0.48 +0.00    +0.000 C 
BRANCH  34  35
ATOM     35  C12 UNL     1       9.855   3.367   7.484 -0.57 +0.00    +0.000 C 
BRANCH  35  36
ATOM     36  C11 UNL     1       8.326   3.266   7.423 -0.48 +0.00    +0.006 C 
BRANCH  36  37
ATOM     37  C10 UNL     1       7.595   4.552   7.024 -0.49 +0.00    +0.065 C 
BRANCH  37  38
ATOM     38  C9  UNL     1       7.292   4.616   5.559 -0.30 +0.00    +0.051 A 
ATOM     39  S1  UNL     1       7.807   5.955   4.614 -0.19 -0.00    -0.086 SA
ATOM     40  C8  UNL     1       7.083   5.243   3.235 -0.15 +0.00    +0.082 A 
ATOM     41  C7  UNL     1       6.514   4.027   3.562 -0.17 +0.00    +0.052 A 
ATOM     42  N1  UNL     1       6.627   3.687   4.906 -0.09 -0.00    -0.353 N 
ATOM     43  H1  UNL     1       6.248   2.838   5.326 -0.47 +0.00    +0.166 HD
BRANCH  41  44
ATOM     44  C3  UNL     1       5.790   3.159   2.635 -0.15 +0.00    +0.024 A 
ATOM     45  C2  UNL     1       5.162   3.757   1.527 -0.10 +0.00    +0.019 A 
ATOM     46  C1  UNL     1       4.455   2.992   0.598 -0.09 +0.00    +0.037 A 
ATOM     47  C6  UNL     1       4.362   1.619   0.770 -0.13 +0.00    +0.068 A 
ATOM     48  C5  UNL     1       4.961   0.995   1.860 -0.09 +0.00    +0.074 A 
ATOM     49  C4  UNL     1       5.669   1.766   2.790 -0.25 +0.00    +0.080 A 
BRANCH  47  50
ATOM     50  O1  UNL     1       3.664   0.911  -0.164 -0.10 -0.00    -0.361 OA
ATOM     51  H30 UNL     1       2.925   0.454   0.269 +0.04 +0.00    +0.217 HD
ENDBRANCH  47  50
BRANCH  49  52
ATOM     52  O2  UNL     1       6.228   1.134   3.871 -0.14 -0.00    -0.360 OA
ATOM     53  H31 UNL     1       6.737   1.776   4.392 -0.39 +0.00    +0.217 HD
ENDBRANCH  49  52
ENDBRANCH  41  44
ENDBRANCH  37  38
ENDBRANCH  36  37
ENDBRANCH  35  36
ENDBRANCH  34  35
ENDBRANCH  33  34
ENDBRANCH  32  33
ENDBRANCH  29  32
ENDBRANCH   1  28
TORSDOF 21
TER
