USER    Run = 1
USER    DPF = ligand_111_receptor.dpf
USER  
USER    Estimated Free Energy of Binding    =  -11.13 kcal/mol  [=(1)+(2)+(3)-(4)]
USER    Estimated Inhibition Constant, Ki   =    6.98 nM (nanomolar)  [Temperature = 298.15 K]
USER    
USER    (1) Final Intermolecular Energy     =  -12.32 kcal/mol
USER        vdW + Hbond + desolv Energy     =  -12.32 kcal/mol
USER        Electrostatic Energy            =   +0.00 kcal/mol
USER    (2) Final Total Internal Energy     =   -1.44 kcal/mol
USER    (3) Torsional Free Energy           =   +1.19 kcal/mol
USER    (4) Unbound System's Energy  [=(2)] =   -1.44 kcal/mol
USER    
USER    
USER    NEWDPF move ligand_111.pdbqt
USER    NEWDPF about 0.000000 0.000000 0.000000
USER    NEWDPF tran0 19.838335 5.135333 3.982431
USER    NEWDPF quaternion0 -0.008747 -0.997267 0.065525 -0.033003
USER    NEWDPF axisangle0 -0.008752 -0.997810 0.065561 -176.217418
USER    NEWDPF quat0 -0.008752 -0.997810 0.065561 -176.217418
USER    NEWDPF dihe0 19.94 25.69 145.04 144.13 -48.07 179.92 168.62 173.43 132.52 171.94 176.42 173.73 178.93 -109.31 -12.54 
USER  keepresnum = 1 
USER  
REMARK  15 active torsions:
REMARK  status: ('A' for Active; 'I' for Inactive)
REMARK    1  A    between atoms: C6_6  and  N1_38 
REMARK    2  A    between atoms: C9_9  and  C10_10 
REMARK    3  A    between atoms: C10_10  and  O4_51 
REMARK    4  A    between atoms: C11_11  and  N3_40 
REMARK    5  A    between atoms: C13_13  and  C15_15 
REMARK       I    between atoms: C15_15  and  N5_42 
REMARK    6  A    between atoms: C16_16  and  N5_42 
REMARK    7  A    between atoms: C18_18  and  C20_20 
REMARK       I    between atoms: C20_20  and  N7_44 
REMARK    8  A    between atoms: C21_21  and  N7_44 
REMARK    9  A    between atoms: C23_23  and  C25_25 
REMARK       I    between atoms: C25_25  and  N9_46 
REMARK   10  A    between atoms: C26_26  and  C27_27 
REMARK   11  A    between atoms: C26_26  and  N9_46 
REMARK   12  A    between atoms: C32_32  and  O9_56 
REMARK   13  A    between atoms: N3_40  and  P1_57 
REMARK   14  A    between atoms: O4_51  and  P1_57 
REMARK   15  A    between atoms: O9_56  and  P1_57 
USER                              x       y       z     vdW  Elec       q    Type
USER                           _______ _______ _______ _____ _____    ______ ____
ROOT
ATOM      1  C27 UNL     1       7.080   1.288   2.338 +0.13 +0.00    +0.143 C 
ATOM      2  C28 UNL     1       7.146   1.950   1.030 -0.20 +0.00    +0.060 C 
ATOM      3  N10 UNL     1       7.178   2.493   0.005 -0.05 -0.00    -0.197 NA
ENDROOT
BRANCH   1   4
ATOM      4  C26 UNL     1       6.437   2.206   3.378 -0.25 +0.00    +0.137 C 
BRANCH   4   5
ATOM      5  N9  UNL     1       7.357   3.173   3.952 -0.12 -0.00    -0.355 N 
ATOM      6  C25 UNL     1       6.917   4.133   4.839 -0.18 +0.00    +0.268 C 
ATOM      7  O8  UNL     1       5.734   4.228   5.149 -0.17 -0.00    -0.266 OA
ATOM      8  H45 UNL     1       8.345   2.949   3.964 -0.05 +0.00    +0.162 HD
BRANCH   6   9
ATOM      9  C23 UNL     1       7.962   4.946   5.422 -0.24 +0.00    +0.104 A 
ATOM     10  C24 UNL     1       9.102   5.403   4.773 -0.22 +0.00    +0.066 A 
ATOM     11  C21 UNL     1       9.860   6.184   5.677 -0.20 +0.00    +0.053 A 
ATOM     12  C22 UNL     1       9.187   6.160   6.874 +0.49 +0.00    +0.120 A 
ATOM     13  N8  UNL     1       8.068   5.379   6.730 -0.14 -0.00    -0.354 N 
ATOM     14  C29 UNL     1       7.207   5.012   7.834 -0.06 +0.00    +0.156 C 
BRANCH  11  15
ATOM     15  N7  UNL     1      11.045   6.824   5.368 -0.12 -0.00    -0.320 N 
ATOM     16  C20 UNL     1      11.733   6.734   4.170 -0.24 +0.00    +0.273 C 
ATOM     17  O7  UNL     1      11.355   6.081   3.202 -0.22 -0.00    -0.266 OA
ATOM     18  H44 UNL     1      11.410   7.434   6.086 +0.12 +0.00    +0.169 HD
BRANCH  16  19
ATOM     19  C18 UNL     1      12.972   7.511   4.136 -0.37 +0.00    +0.105 A 
ATOM     20  C19 UNL     1      13.819   7.799   3.068 -0.20 +0.00    +0.066 A 
ATOM     21  C16 UNL     1      14.894   8.589   3.533 -0.42 +0.00    +0.053 A 
ATOM     22  C17 UNL     1      14.689   8.791   4.875 +0.13 +0.00    +0.120 A 
ATOM     23  N6  UNL     1      13.531   8.146   5.234 -0.16 -0.00    -0.354 N 
ATOM     24  C30 UNL     1      13.002   8.131   6.584 -0.38 +0.00    +0.156 C 
BRANCH  21  25
ATOM     25  N5  UNL     1      15.974   9.113   2.851 -0.23 -0.00    -0.320 N 
ATOM     26  C15 UNL     1      16.838  10.072   3.343 -0.31 +0.00    +0.273 C 
ATOM     27  O6  UNL     1      16.715  10.650   4.416 +0.04 -0.00    -0.266 OA
ATOM     28  H43 UNL     1      16.079   8.829   1.887 +0.07 +0.00    +0.169 HD
BRANCH  26  29
ATOM     29  C13 UNL     1      17.915  10.388   2.421 -0.38 +0.00    +0.105 A 
ATOM     30  C14 UNL     1      19.189   9.837   2.416 -0.37 +0.00    +0.066 A 
ATOM     31  C11 UNL     1      19.926  10.436   1.374 -0.45 +0.00    +0.055 A 
ATOM     32  C12 UNL     1      19.088  11.310   0.731 -0.49 +0.00    +0.120 A 
ATOM     33  N4  UNL     1      17.860  11.251   1.344 -0.21 -0.00    -0.354 N 
ATOM     34  C31 UNL     1      16.683  11.936   0.852 -0.35 +0.00    +0.156 C 
BRANCH  31  35
ATOM     35  N3  UNL     1      21.211  10.159   1.096 -0.24 -0.00    -0.292 N 
ATOM     36  H42 UNL     1      21.587  10.441   0.201 +0.13 +0.00    +0.171 HD
BRANCH  35  37
ATOM     37  P1  UNL     1      22.138   9.087   1.904 -0.10 +0.00    +0.435 P 
ATOM     38  O5  UNL     1      21.616   8.568   3.217 -0.24 -0.00    -0.234 OA
BRANCH  37  39
ATOM     39  O4  UNL     1      22.499   7.883   0.887 +0.14 -0.00    -0.295 OA
BRANCH  39  40
ATOM     40  C10 UNL     1      23.606   8.046   0.015 -0.38 +0.00    +0.216 C 
BRANCH  40  41
ATOM     41  C9  UNL     1      23.819   6.746  -0.767 -0.47 +0.00    +0.171 C 
ATOM     42  C8  UNL     1      23.701   5.526   0.078 -0.59 +0.00    +0.007 C 
ATOM     43  C7  UNL     1      24.796   4.778  -0.058 -0.60 +0.00    +0.025 C 
ATOM     44  C6  UNL     1      25.733   5.414  -1.022 -0.33 +0.00    +0.257 C 
ATOM     45  O3  UNL     1      25.167   6.710  -1.295 -0.27 -0.00    -0.352 OA
BRANCH  44  46
ATOM     46  N1  UNL     1      27.065   5.542  -0.452 -0.15 -0.00    -0.278 N 
ATOM     47  C3  UNL     1      27.764   4.443   0.013 -0.23 +0.00    +0.111 A 
ATOM     48  C2  UNL     1      28.984   4.537   0.556 -0.21 +0.00    +0.022 A 
ATOM     49  C1  UNL     1      29.762   3.378   1.084 -0.34 +0.00    +0.056 C 
ATOM     50  C5  UNL     1      29.602   5.880   0.643 -0.10 +0.00    +0.256 A 
ATOM     51  N2  UNL     1      28.863   6.909   0.135 -0.12 -0.00    -0.275 N 
ATOM     52  O2  UNL     1      30.710   6.057   1.137 -0.16 -0.00    -0.267 OA
ATOM     53  C4  UNL     1      27.615   6.815  -0.419 -0.13 +0.00    +0.331 A 
ATOM     54  H41 UNL     1      29.272   7.829   0.178 +0.09 +0.00    +0.173 HD
ATOM     55  O1  UNL     1      27.056   7.821  -0.850 -0.19 -0.00    -0.246 OA
ENDBRANCH  44  46
ENDBRANCH  40  41
ENDBRANCH  39  40
ENDBRANCH  37  39
BRANCH  37  56
ATOM     56  O9  UNL     1      23.601   9.749   2.107 -0.24 -0.00    -0.292 OA
BRANCH  56  57
ATOM     57  C32 UNL     1      24.697   8.858   2.268 -0.47 +0.00    +0.133 C 
ATOM     58  C33 UNL     1      24.859   8.507   3.742 -0.60 +0.00    +0.032 C 
ATOM     59  C34 UNL     1      26.000   7.512   3.963 -0.41 +0.00    +0.002 C 
ATOM     60  C35 UNL     1      27.078   7.569   2.878 +0.11 +0.00    +0.000 C 
ATOM     61  C36 UNL     1      27.251   8.979   2.324 +0.01 +0.00    +0.002 C 
ATOM     62  C37 UNL     1      25.959   9.526   1.715 -0.41 +0.00    +0.032 C 
ENDBRANCH  56  57
ENDBRANCH  37  56
ENDBRANCH  35  37
ENDBRANCH  31  35
ENDBRANCH  26  29
ENDBRANCH  21  25
ENDBRANCH  16  19
ENDBRANCH  11  15
ENDBRANCH   6   9
ENDBRANCH   4   5
ENDBRANCH   1   4
TORSDOF 15
TER
