USER    Run = 1
USER    DPF = ligand_103_receptor.dpf
USER  
USER    Estimated Free Energy of Binding    = +452.79 kcal/mol  [=(1)+(2)+(3)-(4)]
USER    
USER    (1) Final Intermolecular Energy     = +451.59 kcal/mol
USER        vdW + Hbond + desolv Energy     = +451.59 kcal/mol
USER        Electrostatic Energy            =   +0.00 kcal/mol
USER    (2) Final Total Internal Energy     =   -1.82 kcal/mol
USER    (3) Torsional Free Energy           =   +1.19 kcal/mol
USER    (4) Unbound System's Energy  [=(2)] =   -1.82 kcal/mol
USER    
USER    
USER    NEWDPF move ligand_103.pdbqt
USER    NEWDPF about 0.000000 0.000000 0.000000
USER    NEWDPF tran0 12.923653 7.408180 7.957033
USER    NEWDPF quaternion0 0.756436 0.216011 0.043960 0.615802
USER    NEWDPF axisangle0 0.960064 0.274161 0.055794 103.979618
USER    NEWDPF quat0 0.960064 0.274161 0.055794 103.979618
USER    NEWDPF dihe0 -91.84 180.00 -176.21 -122.75 139.78 -179.84 179.86 164.10 -41.69 177.31 131.99 141.50 78.60 177.81 153.39 180.00 -131.33 107.71 -144.13 
USER  keepresnum = 1 
USER  
REMARK  19 active torsions:
REMARK  status: ('A' for Active; 'I' for Inactive)
REMARK    1  A    between atoms: C2_2  and  C4_4 
REMARK    2  A    between atoms: C4_4  and  N1_61 
REMARK    3  A    between atoms: C8_8  and  C11_11 
REMARK    4  A    between atoms: C12_12  and  N4_65 
REMARK    5  A    between atoms: C14_14  and  N3_64 
REMARK    6  A    between atoms: C20_20  and  C21_21 
REMARK       I    between atoms: C20_20  and  N4_65 
REMARK    7  A    between atoms: C22_22  and  O4_77 
REMARK    8  A    between atoms: C30_30  and  C31_31 
REMARK    9  A    between atoms: C30_30  and  N5_66 
REMARK   10  A    between atoms: C34_34  and  O12_85 
REMARK   11  A    between atoms: C35_35  and  C37_37 
REMARK       I    between atoms: C37_37  and  N6_67 
REMARK   12  A    between atoms: C38_38  and  N6_67 
REMARK   13  A    between atoms: C40_40  and  C41_41 
REMARK   14  A    between atoms: C48_48  and  C50_50 
REMARK   15  A    between atoms: C49_49  and  O9_82 
REMARK       I    between atoms: C50_50  and  N9_71 
REMARK   16  A    between atoms: C51_51  and  N9_71 
REMARK   17  A    between atoms: C54_54  and  O11_84 
REMARK   18  A    between atoms: C57_57  and  C58_58 
REMARK   19  A    between atoms: C57_57  and  N8_70 
USER                              x       y       z     vdW  Elec       q    Type
USER                           _______ _______ _______ _____ _____    ______ ____
ROOT
ATOM      1  C5  UNL     1      11.545   7.398   6.950 -0.05 +0.00    +0.050 A 
ATOM      2  C6  UNL     1      11.845   6.858   5.693 -0.35 +0.00    +0.026 A 
ATOM      3  C7  UNL     1      10.797   6.548   4.799 -0.30 +0.00    +0.030 A 
ATOM      4  C8  UNL     1       9.446   6.769   5.113 +0.52 -0.00    -0.008 A 
ATOM      5  C9  UNL     1       9.175   7.305   6.379+94.59 +0.00    +0.016 A 
ATOM      6  C10 UNL     1      10.201   7.614   7.280+17.71 +0.00    +0.031 A 
ATOM      7  C34 UNL     1      13.247   6.620   5.315 -0.37 +0.00    +0.099 A 
ATOM      8  C35 UNL     1      14.256   6.904   6.165 -0.23 +0.00    +0.134 A 
ATOM      9  C36 UNL     1      13.942   7.470   7.511 +0.60 +0.00    +0.266 A 
ATOM     10  N1  UNL     1      12.612   7.700   7.851 -0.16 -0.00    -0.312 N 
ATOM     11  O5  UNL     1      14.875   7.724   8.280+12.37 -0.00    -0.267 OA
ENDROOT
BRANCH   8  12
ATOM     12  C37 UNL     1      15.671   6.641   5.718 +2.34 +0.00    +0.267 C 
ATOM     13  N6  UNL     1      15.915   6.863   4.391 +2.74 -0.00    -0.288 N 
ATOM     14  H56 UNL     1      15.173   7.184   3.775 -0.07 +0.00    +0.172 HD
ATOM     15  O6  UNL     1      16.499   6.254   6.544+16.98 -0.00    -0.267 OA
BRANCH  13  16
ATOM     16  C38 UNL     1      17.133   6.672   3.819+10.10 +0.00    +0.231 A 
ATOM     17  N7  UNL     1      17.564   5.743   3.000 +5.57 -0.00    -0.329 N 
ATOM     18  C39 UNL     1      18.874   6.080   2.773+65.81 +0.00    +0.130 A 
ATOM     19  H7  UNL     1      17.046   4.952   2.619 +1.06 +0.00    +0.168 HD
ATOM     20  C40 UNL     1      19.201   7.222   3.472 +4.19 +0.00    +0.105 A 
ATOM     21  O7  UNL     1      18.074   7.606   4.153 -0.23 -0.00    -0.277 OA
BRANCH  20  22
ATOM     22  C41 UNL     1      20.392   8.043   3.638 +2.47 +0.00    +0.000 A 
ATOM     23  C42 UNL     1      21.611   7.691   3.041 +8.85 +0.00    +0.031 A 
ATOM     24  C43 UNL     1      22.769   8.485   3.187 -0.11 +0.00    +0.026 A 
ATOM     25  C44 UNL     1      22.726   9.635   3.994 -0.46 +0.00    +0.050 A 
ATOM     26  C49 UNL     1      24.029   8.124   2.517 -0.24 +0.00    +0.099 A 
ATOM     27  C45 UNL     1      21.502   9.990   4.581+27.09 +0.00    +0.031 A 
ATOM     28  N8  UNL     1      23.927  10.380   4.212 -0.37 -0.00    -0.312 N 
ATOM     29  C46 UNL     1      20.353   9.210   4.402+16.14 +0.00    +0.016 A 
ATOM     30  C47 UNL     1      25.153   9.980   3.669 +1.57 +0.00    +0.266 A 
ATOM     31  C48 UNL     1      25.156   8.811   2.753 -0.46 +0.00    +0.134 A 
ATOM     32  O8  UNL     1      26.211  10.549   3.938 +2.77 -0.00    -0.267 OA
BRANCH  28  33
ATOM     33  C57 UNL     1      23.958  11.571   5.069+18.39 +0.00    +0.136 C 
BRANCH  33  34
ATOM     34  C58 UNL     1      23.839  12.905   4.298+10.63 -0.00    -0.004 C 
ATOM     35  C59 UNL     1      24.832  12.916   3.133+17.94 +0.00    +0.011 C 
ATOM     36  C60 UNL     1      22.429  13.170   3.774+39.79 +0.00    +0.011 C 
ENDBRANCH  33  34
ENDBRANCH  28  33
BRANCH  31  37
ATOM     37  C50 UNL     1      26.402   8.467   2.013 -0.37 +0.00    +0.265 C 
ATOM     38  N9  UNL     1      26.175   7.724   0.880 -0.18 -0.00    -0.309 N 
ATOM     39  H57 UNL     1      25.223   7.558   0.582 +0.13 +0.00    +0.170 HD
ATOM     40  O10 UNL     1      27.490   8.850   2.430 -0.35 -0.00    -0.267 OA
BRANCH  38  41
ATOM     41  C51 UNL     1      27.108   7.203  -0.018 -0.28 +0.00    +0.110 A 
ATOM     42  C55 UNL     1      26.956   5.995  -0.685 -0.28 +0.00    +0.085 A 
ATOM     43  C54 UNL     1      27.958   5.585  -1.563 -0.22 +0.00    +0.073 A 
ATOM     44  C53 UNL     1      29.072   6.394  -1.745 -0.20 +0.00    +0.053 A 
ATOM     45  C52 UNL     1      29.139   7.582  -1.044 -0.21 +0.00    +0.092 A 
ATOM     46  N10 UNL     1      28.184   8.002  -0.189 -0.13 -0.00    -0.352 N 
ATOM     47  H10 UNL     1      28.271   8.888   0.309 +0.08 +0.00    +0.166 HD
BRANCH  43  48
ATOM     48  O11 UNL     1      27.964   4.429  -2.294 -0.10 -0.00    -0.356 OA
ATOM     49  C56 UNL     1      28.578   3.293  -1.693 -0.16 +0.00    +0.210 C 
ENDBRANCH  43  48
ENDBRANCH  38  41
ENDBRANCH  31  37
BRANCH  26  50
ATOM     50  O9  UNL     1      23.996   7.078   1.611 -0.18 -0.00    -0.359 OA
ATOM     51  H59 UNL     1      24.785   6.524   1.752 +0.17 +0.00    +0.217 HD
ENDBRANCH  26  50
ENDBRANCH  20  22
ENDBRANCH  13  16
ENDBRANCH   8  12
BRANCH   7  52
ATOM     52  O12 UNL     1      13.419   6.099   4.042 +0.19 -0.00    -0.359 OA
ATOM     53  H60 UNL     1      12.542   6.050   3.596 +0.12 +0.00    +0.217 HD
ENDBRANCH   7  52
BRANCH  10  54
ATOM     54  C4  UNL     1      12.334   8.275   9.173 +9.45 +0.00    +0.136 C 
BRANCH  54  55
ATOM     55  C2  UNL     1      13.027   9.632   9.419 +2.98 -0.00    -0.004 C 
ATOM     56  C1  UNL     1      14.001   9.928   8.276 +1.88 +0.00    +0.011 C 
ATOM     57  C3  UNL     1      12.024  10.779   9.554 +7.76 +0.00    +0.011 C 
ENDBRANCH  54  55
ENDBRANCH  10  54
BRANCH   4  58
ATOM     58  C11 UNL     1       8.345   6.448   4.175 -0.09 +0.00    +0.046 A 
ATOM     59  C15 UNL     1       7.076   7.013   4.265 +6.51 +0.00    +0.059 A 
ATOM     60  C14 UNL     1       6.080   6.673   3.341 +0.54 +0.00    +0.036 A 
ATOM     61  C13 UNL     1       6.421   5.753   2.348 -0.17 +0.00    +0.078 A 
ATOM     62  C12 UNL     1       7.699   5.214   2.316 -0.11 +0.00    +0.110 A 
ATOM     63  N2  UNL     1       8.647   5.545   3.212 -0.05 -0.00    -0.342 N 
ATOM     64  H2  UNL     1       9.575   5.123   3.166 +0.06 +0.00    +0.167 HD
BRANCH  60  65
ATOM     65  N3  UNL     1       4.810   7.260   3.457 +1.38 -0.00    -0.377 N 
ATOM     66  C16 UNL     1       4.808   8.712   3.143+14.79 +0.00    +0.149 C 
ATOM     67  C17 UNL     1       3.528   9.382   3.668 +0.59 +0.00    +0.187 C 
ATOM     68  O1  UNL     1       3.371   9.267   5.091 +0.35 -0.00    -0.388 OA
ATOM     69  C18 UNL     1       3.880   8.031   5.621 +6.78 +0.00    +0.187 C 
ATOM     70  C19 UNL     1       3.928   6.896   4.588 +0.41 +0.00    +0.149 C 
ENDBRANCH  60  65
BRANCH  62  71
ATOM     71  N4  UNL     1       8.136   4.279   1.374 -0.02 -0.00    -0.309 N 
ATOM     72  C20 UNL     1       9.405   4.028   0.927 +0.39 +0.00    +0.265 C 
ATOM     73  O2  UNL     1      10.415   4.624   1.304 +5.19 -0.00    -0.267 OA
ATOM     74  H55 UNL     1       7.365   3.725   1.000 +0.07 +0.00    +0.170 HD
BRANCH  72  75
ATOM     75  C21 UNL     1       9.538   2.930  -0.100 -0.01 +0.00    +0.134 A 
ATOM     76  C22 UNL     1       8.425   2.273  -0.489 -0.09 +0.00    +0.099 A 
ATOM     77  C23 UNL     1       8.487   1.198  -1.491 -0.13 +0.00    +0.025 A 
ATOM     78  C24 UNL     1       7.319   0.520  -1.889 -0.15 +0.00    +0.016 A 
ATOM     79  C28 UNL     1       9.719   0.842  -2.059 -0.20 +0.00    +0.050 A 
ATOM     80  C25 UNL     1       7.365  -0.499  -2.837 -0.20 +0.00    +0.001 A 
ATOM     81  C26 UNL     1       8.583  -0.854  -3.400 -0.26 +0.00    +0.002 A 
ATOM     82  C27 UNL     1       9.750  -0.190  -3.015 -0.25 +0.00    +0.031 A 
ATOM     83  N5  UNL     1      10.898   1.535  -1.645 -0.16 -0.00    -0.312 N 
ATOM     84  C29 UNL     1      10.854   2.552  -0.696 +0.27 +0.00    +0.266 A 
ATOM     85  O3  UNL     1      11.868   3.154  -0.332 +3.43 -0.00    -0.267 OA
BRANCH  76  86
ATOM     86  O4  UNL     1       7.151   2.534  -0.006 -0.02 -0.00    -0.359 OA
ATOM     87  H58 UNL     1       6.781   1.705   0.372 +0.08 +0.00    +0.217 HD
ENDBRANCH  76  86
BRANCH  83  88
ATOM     88  C30 UNL     1      12.204   1.200  -2.227 +1.96 +0.00    +0.136 C 
BRANCH  88  89
ATOM     89  C31 UNL     1      13.091   0.334  -1.306 +0.32 -0.00    -0.004 C 
ATOM     90  C32 UNL     1      12.280  -0.125  -0.093+11.85 +0.00    +0.011 C 
ATOM     91  C33 UNL     1      14.343   1.080  -0.841 +1.64 +0.00    +0.011 C 
ENDBRANCH  88  89
ENDBRANCH  83  88
ENDBRANCH  72  75
ENDBRANCH  62  71
ENDBRANCH   4  58
TORSDOF 19
TER
