USER    Run = 1
USER    DPF = ligand_528_receptor.dpf
USER  
USER    Estimated Free Energy of Binding    =  +1.42e+003 kcal/mol  [=(1)+(2)+(3)-(4)]
USER    
USER    (1) Final Intermolecular Energy     =  +1.42e+003 kcal/mol
USER        vdW + Hbond + desolv Energy     =  +1.42e+003 kcal/mol
USER        Electrostatic Energy            =   +0.00 kcal/mol
USER    (2) Final Total Internal Energy     =   +0.00 kcal/mol
USER    (3) Torsional Free Energy           =   +1.19 kcal/mol
USER    (4) Unbound System's Energy  [=(2)] =   +0.00 kcal/mol
USER    
USER    
USER    NEWDPF move ligand_528.pdbqt
USER    NEWDPF about 0.000000 0.000000 0.000000
USER    NEWDPF tran0 14.229358 6.246167 4.291310
USER    NEWDPF quaternion0 0.876525 -0.244736 -0.412776 0.037732
USER    NEWDPF axisangle0 0.877150 -0.244911 -0.413070 175.675160
USER    NEWDPF quat0 0.877150 -0.244911 -0.413070 175.675160
USER  keepresnum = 1 
USER  
REMARK  0 active torsions:
REMARK  status: ('A' for Active; 'I' for Inactive)
REMARK       I    between atoms: C2_2  and  C3_3 
REMARK       I    between atoms: C3_3  and  C5_5 
REMARK       I    between atoms: C5_5  and  C6_6 
REMARK       I    between atoms: C5_5  and  N3_84 
REMARK       I    between atoms: C6_6  and  C7_7 
REMARK       I    between atoms: C6_6  and  O5_71 
REMARK       I    between atoms: C7_7  and  C8_8 
REMARK       I    between atoms: C8_8  and  N1_82 
REMARK       I    between atoms: C12_12  and  C13_13 
REMARK       I    between atoms: C13_13  and  C14_14 
REMARK       I    between atoms: C13_13  and  O4_70 
REMARK       I    between atoms: C14_14  and  C16_16 
REMARK       I    between atoms: C16_16  and  N2_83 
REMARK       I    between atoms: C17_17  and  C19_19 
REMARK       I    between atoms: C17_17  and  N2_83 
REMARK       I    between atoms: C19_19  and  C20_20 
REMARK       I    between atoms: C19_19  and  O3_69 
REMARK       I    between atoms: C29_29  and  C30_30 
REMARK       I    between atoms: C29_29  and  N3_84 
REMARK       I    between atoms: C30_30  and  C31_31 
REMARK       I    between atoms: C30_30  and  N6_87 
REMARK       I    between atoms: C31_31  and  C32_32 
REMARK       I    between atoms: C32_32  and  C33_33 
REMARK       I    between atoms: C33_33  and  N4_85 
REMARK       I    between atoms: C34_34  and  N4_85 
REMARK       I    between atoms: C34_34  and  N5_86 
REMARK       I    between atoms: C35_35  and  C36_36 
REMARK       I    between atoms: C35_35  and  N6_87 
REMARK       I    between atoms: C36_36  and  C37_37 
REMARK       I    between atoms: C36_36  and  N7_88 
REMARK       I    between atoms: C41_41  and  O10_76 
REMARK       I    between atoms: C41_41  and  N7_88 
REMARK       I    between atoms: C42_42  and  C43_43 
REMARK       I    between atoms: C42_42  and  O10_76 
REMARK       I    between atoms: C46_46  and  N8_89 
REMARK       I    between atoms: C49_49  and  C50_50 
REMARK       I    between atoms: C49_49  and  N8_89 
REMARK       I    between atoms: C50_50  and  N9_90 
REMARK       I    between atoms: C52_52  and  C53_53 
REMARK       I    between atoms: C52_52  and  N9_90 
REMARK       I    between atoms: C53_53  and  C54_54 
REMARK       I    between atoms: C53_53  and  N10_91 
REMARK       I    between atoms: C57_57  and  C58_58 
REMARK       I    between atoms: C57_57  and  N10_91 
REMARK       I    between atoms: C58_58  and  C59_59 
REMARK       I    between atoms: C59_59  and  C60_60 
REMARK       I    between atoms: C60_60  and  C61_61 
REMARK       I    between atoms: C61_61  and  C62_62 
REMARK       I    between atoms: C62_62  and  N11_92 
REMARK       I    between atoms: C63_63  and  O15_81 
USER                              x       y       z     vdW  Elec       q    Type
USER                           _______ _______ _______ _____ _____    ______ ____
ROOT
ATOM      1  C1  UNL     1       7.542  -0.079  10.121+10.01 +0.00    +0.005 C 
ATOM      2  C2  UNL     1       7.991   0.949   9.089+11.79 +0.00    +0.002 C 
ATOM      3  C3  UNL     1       8.811   2.110   9.692 +5.41 +0.00    +0.006 C 
ATOM      4  C4  UNL     1       7.967   2.916  10.691+17.55 +0.00    +0.012 C 
ATOM      5  C5  UNL     1       9.467   3.054   8.615 +0.74 +0.00    +0.119 C 
ATOM      6  C6  UNL     1      10.646   2.339   7.861 +1.67 +0.00    +0.152 C 
ATOM      7  C7  UNL     1      11.320   3.119   6.726 +0.31 +0.00    +0.137 C 
ATOM      8  C8  UNL     1      11.737   4.539   7.056 -0.36 +0.00    +0.222 C 
ATOM      9  C9  UNL     1      14.162   3.907   7.284 +0.08 +0.00    +0.126 C 
ATOM     10  C10 UNL     1      15.250   4.768   7.904+10.82 +0.00    +0.022 C 
ATOM     11  C11 UNL     1      15.073   6.102   7.192 +0.16 +0.00    +0.029 C 
ATOM     12  C12 UNL     1      13.547   6.240   7.069 -0.50 +0.00    +0.117 C 
ATOM     13  C13 UNL     1      13.050   7.098   5.857 -0.37 +0.00    +0.156 C 
ATOM     14  C14 UNL     1      12.877   8.605   6.152 -0.07 +0.00    +0.105 C 
ATOM     15  C15 UNL     1      11.805   8.886   7.206 -0.11 +0.00    +0.022 C 
ATOM     16  C16 UNL     1      14.193   9.250   6.546+11.30 +0.00    +0.224 C 
ATOM     17  C17 UNL     1      16.298  10.227   5.676+17.58 +0.00    +0.113 C 
ATOM     18  C18 UNL     1      16.594  11.277   4.608+12.61 +0.00    +0.035 C 
ATOM     19  C19 UNL     1      17.311   9.041   5.671+52.75 +0.00    +0.173 C 
ATOM     20  C20 UNL     1      18.752   9.369   6.029+99.99 -0.00    -0.028 A 
ATOM     21  C21 UNL     1      19.809   8.628   5.471+21.83 +0.00    +0.010 A 
ATOM     22  C22 UNL     1      21.139   8.893   5.805+30.15 +0.00    +0.001 A 
ATOM     23  C23 UNL     1      21.440   9.888   6.727+28.90 +0.00    +0.000 A 
ATOM     24  C24 UNL     1      20.410  10.608   7.324+97.02 +0.00    +0.001 A 
ATOM     25  C25 UNL     1      19.078  10.345   6.985+99.99 +0.00    +0.010 A 
ATOM     26  C26 UNL     1      13.624   5.823   3.916 +8.44 +0.00    +0.202 C 
ATOM     27  C27 UNL     1      12.203   0.698   8.635+73.54 +0.00    +0.202 C 
ATOM     28  C28 UNL     1       8.051   5.079   8.188 -0.32 +0.00    +0.153 C 
ATOM     29  C29 UNL     1       7.979   3.166   6.586 +2.25 +0.00    +0.242 C 
ATOM     30  C30 UNL     1       6.930   3.955   5.761 -0.19 +0.00    +0.176 C 
ATOM     31  C31 UNL     1       5.491   3.735   6.273 -0.36 +0.00    +0.036 C 
ATOM     32  C32 UNL     1       4.658   2.667   5.551 -0.21 +0.00    +0.022 C 
ATOM     33  C33 UNL     1       5.129   1.234   5.792+43.96 +0.00    +0.124 C 
ATOM     34  C34 UNL     1       5.193   0.291   3.551 -0.04 +0.00    +0.291 C 
ATOM     35  C35 UNL     1       6.873   4.610   3.375 -0.11 +0.00    +0.241 C 
ATOM     36  C36 UNL     1       7.159   4.133   1.927 -0.09 +0.00    +0.184 C 
ATOM     37  C37 UNL     1       8.651   3.827   1.586 -0.18 +0.00    +0.010 C 
ATOM     38  C38 UNL     1       9.679   4.334   2.604 +0.59 +0.00    +0.012 C 
ATOM     39  C39 UNL     1       8.861   2.319   1.387 -0.25 +0.00    +0.012 C 
ATOM     40  C40 UNL     1       5.144   4.642   0.542 -0.16 +0.00    +0.156 C 
ATOM     41  C41 UNL     1       6.885   6.327   0.696 -0.15 +0.00    +0.363 C 
ATOM     42  C42 UNL     1       8.529   7.976   1.078 +0.67 +0.00    +0.219 C 
ATOM     43  C43 UNL     1      10.036   7.971   0.999 +3.37 -0.00    -0.034 A 
ATOM     44  C44 UNL     1      10.672   7.409  -0.115 +0.05 +0.00    +0.011 A 
ATOM     45  C45 UNL     1      12.065   7.401  -0.205 +2.05 +0.00    +0.030 A 
ATOM     46  C46 UNL     1      12.853   7.950   0.814+99.99 +0.00    +0.034 A 
ATOM     47  C47 UNL     1      12.221   8.511   1.922+77.77 +0.00    +0.030 A 
ATOM     48  C48 UNL     1      10.823   8.518   2.017+39.42 +0.00    +0.011 A 
ATOM     49  C49 UNL     1      15.248   8.319   1.506 +1.95 +0.00    +0.244 C 
ATOM     50  C50 UNL     1      16.657   8.002   0.948 -0.08 +0.00    +0.172 C 
ATOM     51  C51 UNL     1      16.954   6.512   1.109+31.58 +0.00    +0.042 C 
ATOM     52  C52 UNL     1      18.874   9.075   0.956 +4.54 +0.00    +0.241 C 
ATOM     53  C53 UNL     1      19.915   9.835   1.804 -0.24 +0.00    +0.180 C 
ATOM     54  C54 UNL     1      19.545  11.329   1.929 -0.62 +0.00    +0.009 C 
ATOM     55  C55 UNL     1      20.432  12.025   2.966+10.17 +0.00    +0.012 C 
ATOM     56  C56 UNL     1      19.608  12.089   0.600 -0.75 +0.00    +0.012 C 
ATOM     57  C57 UNL     1      22.011   8.558   1.580 +0.80 +0.00    +0.218 C 
ATOM     58  C58 UNL     1      23.233   8.386   0.696 -0.45 +0.00    +0.103 C 
ATOM     59  C59 UNL     1      24.261   7.404   1.254 -0.49 +0.00    +0.009 C 
ATOM     60  C60 UNL     1      24.940   7.835   2.562 -0.48 +0.00    +0.002 C 
ATOM     61  C61 UNL     1      25.631   9.204   2.547 -0.65 +0.00    +0.020 C 
ATOM     62  C62 UNL     1      26.722   9.360   1.488 +0.22 +0.00    +0.129 C 
ATOM     63  C63 UNL     1      28.845   8.604   2.634 +3.19 +0.00    +0.266 A 
ATOM     64  C64 UNL     1      29.921   7.694   2.145 -0.36 +0.00    +0.060 A 
ATOM     65  C65 UNL     1      29.623   7.121   0.977 -0.26 +0.00    +0.096 A 
ATOM     66  C66 UNL     1      28.292   7.643   0.594 -0.19 +0.00    +0.264 A 
ATOM     67  O1  UNL     1      10.900   5.421   7.254 -0.22 -0.00    -0.273 OA
ATOM     68  O2  UNL     1      14.572   9.331   7.711+62.13 -0.00    -0.273 OA
ATOM     69  O3  UNL     1      17.258   8.412   4.374 -0.29 -0.00    -0.389 OA
ATOM     70  O4  UNL     1      13.909   6.974   4.703 -0.25 -0.00    -0.388 OA
ATOM     71  O5  UNL     1      11.656   1.996   8.838+20.66 -0.00    -0.388 OA
ATOM     72  O6  UNL     1       8.363   2.060   6.194+20.79 -0.00    -0.271 OA
ATOM     73  O7  UNL     1       6.066   1.046   3.149 -0.32 -0.00    -0.254 OA
ATOM     74  O8  UNL     1       6.489   5.745   3.655 -0.13 -0.00    -0.271 OA
ATOM     75  O9  UNL     1       6.225   7.127   0.040 -0.32 -0.00    -0.238 OA
ATOM     76  O10 UNL     1       8.089   6.625   1.240 -0.15 -0.00    -0.299 OA
ATOM     77  O11 UNL     1      15.083   8.844   2.606 -0.21 -0.00    -0.271 OA
ATOM     78  O12 UNL     1      19.072   8.789  -0.226 +5.19 -0.00    -0.271 OA
ATOM     79  O13 UNL     1      21.743   7.821   2.521 +3.06 -0.00    -0.274 OA
ATOM     80  O14 UNL     1      27.725   7.430  -0.462 -0.23 -0.00    -0.267 OA
ATOM     81  O15 UNL     1      28.326   8.175   3.867+54.00 -0.00    -0.372 OA
ATOM     82  N1  UNL     1      13.082   4.840   7.001 -0.27 -0.00    -0.345 N 
ATOM     83  N2  UNL     1      14.935   9.718   5.482 +8.48 -0.00    -0.354 N 
ATOM     84  N3  UNL     1       8.444   3.731   7.774 -0.31 -0.00    -0.347 N 
ATOM     85  N4  UNL     1       4.612   0.324   4.789 +0.42 -0.00    -0.348 N 
ATOM     86  N5  UNL     1       4.679  -0.697   2.777 +4.60 -0.00    -0.254 NA
ATOM     87  N6  UNL     1       7.094   3.658   4.345 -0.10 -0.00    -0.346 N 
ATOM     88  N7  UNL     1       6.487   5.020   0.943 -0.05 -0.00    -0.319 N 
ATOM     89  N8  UNL     1      14.249   7.885   0.642 +9.16 -0.00    -0.325 N 
ATOM     90  N9  UNL     1      17.686   8.801   1.596 -0.16 -0.00    -0.346 N 
ATOM     91  N10 UNL     1      21.231   9.631   1.199 -0.14 -0.00    -0.347 N 
ATOM     92  N11 UNL     1      27.834   8.433   1.638 -0.21 -0.00    -0.316 N 
ATOM     93 BR1  UNL     1      30.589   5.965  -0.066 -0.28 -0.00    -0.044 Br
ATOM     94 BR2  UNL     1      31.470   7.513   3.134+77.76 -0.00    -0.049 Br
ATOM     95  H92 UNL     1      16.314   8.178   4.249 +0.14 +0.00    +0.210 HD
ATOM     96  H93 UNL     1      27.721   7.446   3.653 -0.40 +0.00    +0.212 HD
ATOM     97  H94 UNL     1      14.667   9.422   4.541 +0.11 +0.00    +0.163 HD
ATOM     98  H95 UNL     1       4.319  -0.586   5.116 +0.29 +0.00    +0.163 HD
ATOM     99  H96 UNL     1       5.004  -0.661   1.818 +3.22 +0.00    +0.128 HD
ATOM    100  H97 UNL     1       3.687  -0.860   2.872 +0.04 +0.00    +0.128 HD
ATOM    101  H98 UNL     1       7.220   2.681   4.075 -0.13 +0.00    +0.163 HD
ATOM    102  H99 UNL     1      14.556   7.473  -0.231 -0.22 +0.00    +0.169 HD
ATOM    103  HA0 UNL     1      17.656   8.849   2.618 +0.12 +0.00    +0.163 HD
ATOM    104  HA1 UNL     1      21.286   9.876   0.217 +0.12 +0.00    +0.163 HD
ENDROOT
TORSDOF 40
TER
