USER    Run = 1
USER    DPF = ligand_526_receptor.dpf
USER  
USER    Estimated Free Energy of Binding    =  +41.66 kcal/mol  [=(1)+(2)+(3)-(4)]
USER    
USER    (1) Final Intermolecular Energy     =  +40.47 kcal/mol
USER        vdW + Hbond + desolv Energy     =  +40.47 kcal/mol
USER        Electrostatic Energy            =   +0.00 kcal/mol
USER    (2) Final Total Internal Energy     =   +2.22 kcal/mol
USER    (3) Torsional Free Energy           =   +1.19 kcal/mol
USER    (4) Unbound System's Energy  [=(2)] =   +2.22 kcal/mol
USER    
USER    
USER    NEWDPF move ligand_526.pdbqt
USER    NEWDPF about 0.000000 0.000000 0.000000
USER    NEWDPF tran0 21.482741 9.048183 0.679925
USER    NEWDPF quaternion0 0.385387 -0.023375 0.900154 -0.201626
USER    NEWDPF axisangle0 0.393468 -0.023865 0.919029 -156.735933
USER    NEWDPF quat0 0.393468 -0.023865 0.919029 -156.735933
USER    NEWDPF dihe0 145.01 -71.27 -70.92 -177.69 -42.29 46.67 -66.68 54.51 167.04 -97.95 68.09 -154.11 -13.00 118.99 102.81 9.23 -180.00 55.98 -14.86 113.32 57.44 -92.65 46.17 
USER  keepresnum = 1 
USER  
REMARK  23 active torsions:
REMARK  status: ('A' for Active; 'I' for Inactive)
REMARK    1  A    between atoms: C3_3  and  N13_61 
REMARK    2  A    between atoms: C5_5  and  C6_6 
REMARK       I    between atoms: C6_6  and  N2_48 
REMARK    3  A    between atoms: C7_7  and  N2_48 
REMARK    4  A    between atoms: C9_9  and  C10_10 
REMARK       I    between atoms: C10_10  and  N5_52 
REMARK    5  A    between atoms: C11_11  and  N5_52 
REMARK    6  A    between atoms: C13_13  and  C14_14 
REMARK       I    between atoms: C14_14  and  N8_56 
REMARK    7  A    between atoms: C15_15  and  N8_56 
REMARK    8  A    between atoms: C17_17  and  C19_19 
REMARK       I    between atoms: C19_19  and  N10_58 
REMARK    9  A    between atoms: C20_20  and  C21_21 
REMARK   10  A    between atoms: C20_20  and  N10_58 
REMARK   11  A    between atoms: C21_21  and  C22_22 
REMARK       I    between atoms: C22_22  and  N11_59 
REMARK   12  A    between atoms: C23_23  and  C24_24 
REMARK   13  A    between atoms: C23_23  and  N11_59 
REMARK   14  A    between atoms: C24_24  and  C25_25 
REMARK   15  A    between atoms: C25_25  and  N12_60 
REMARK   16  A    between atoms: C31_31  and  C32_32 
REMARK       I    between atoms: C31_31  and  N13_61 
REMARK   17  A    between atoms: C32_32  and  C33_33 
REMARK   18  A    between atoms: C33_33  and  C34_34 
REMARK   19  A    between atoms: C34_34  and  N14_62 
REMARK   20  A    between atoms: C35_35  and  C36_36 
REMARK       I    between atoms: C35_35  and  N14_62 
REMARK   21  A    between atoms: C38_38  and  N16_64 
REMARK   22  A    between atoms: C41_41  and  C42_42 
REMARK       I    between atoms: C41_41  and  N16_64 
REMARK   23  A    between atoms: C44_44  and  N18_66 
USER                              x       y       z     vdW  Elec       q    Type
USER                           _______ _______ _______ _____ _____    ______ ____
ROOT
ATOM      1  C7  UNL     1      22.532   9.604   0.089 -0.38 +0.00    +0.125 A 
ATOM      2  C8  UNL     1      21.762  10.555  -0.539 +1.18 +0.00    +0.140 A 
ATOM      3  C9  UNL     1      20.845   9.924   1.379 -0.24 +0.00    +0.178 A 
ATOM      4  C30 UNL     1      19.598  11.662   0.061 -0.53 +0.00    +0.157 C 
ATOM      5  N3  UNL     1      20.690  10.749   0.291 -0.26 -0.00    -0.339 N 
ATOM      6  N4  UNL     1      21.964   9.223   1.264 -0.16 -0.00    -0.323 N 
ATOM      7  H4  UNL     1      22.327   8.536   1.925 +0.12 +0.00    +0.169 HD
ENDROOT
BRANCH   1   8
ATOM      8  N2  UNL     1      23.714   9.110  -0.400 -0.12 -0.00    -0.306 N 
ATOM      9  C6  UNL     1      24.041   7.769  -0.461 -0.34 +0.00    +0.274 C 
ATOM     10  O1  UNL     1      23.307   6.852  -0.104 -0.37 -0.00    -0.266 OA
ATOM     11  H51 UNL     1      24.363   9.790  -0.759 +0.80 +0.00    +0.170 HD
BRANCH   9  12
ATOM     12  C5  UNL     1      25.371   7.513  -1.020 +0.12 +0.00    +0.105 A 
ATOM     13  C4  UNL     1      26.630   7.798  -0.500 -0.14 +0.00    +0.066 A 
ATOM     14  C3  UNL     1      27.617   7.364  -1.415 -0.14 +0.00    +0.052 A 
ATOM     15  C2  UNL     1      26.952   6.805  -2.479 +5.14 +0.00    +0.120 A 
ATOM     16  N1  UNL     1      25.603   6.889  -2.236 +0.28 -0.00    -0.354 N 
ATOM     17  C1  UNL     1      24.589   6.400  -3.148 +1.33 +0.00    +0.156 C 
BRANCH  14  18
ATOM     18  N13 UNL     1      28.993   7.439  -1.343 -0.13 -0.00    -0.326 N 
ATOM     19  C31 UNL     1      29.696   8.244  -0.463 -0.17 +0.00    +0.222 C 
ATOM     20  O6  UNL     1      29.211   8.981   0.390 -0.08 -0.00    -0.273 OA
ATOM     21  H56 UNL     1      29.508   6.867  -2.000 +0.06 +0.00    +0.169 HD
BRANCH  19  22
ATOM     22  C32 UNL     1      31.198   8.087  -0.639 -0.16 +0.00    +0.105 C 
BRANCH  22  23
ATOM     23  C33 UNL     1      31.578   6.899  -1.525 -0.08 +0.00    +0.029 C 
BRANCH  23  24
ATOM     24  C34 UNL     1      31.106   5.558  -0.965 -0.05 +0.00    +0.123 C 
BRANCH  24  25
ATOM     25  N14 UNL     1      29.812   5.674  -0.321 -0.02 -0.00    -0.356 N 
ATOM     26  C35 UNL     1      29.693   6.191   0.953 -0.15 +0.00    +0.268 C 
ATOM     27  O7  UNL     1      30.672   6.467   1.639 -0.23 -0.00    -0.266 OA
ATOM     28  H57 UNL     1      28.999   5.754  -0.916 +0.07 +0.00    +0.162 HD
BRANCH  26  29
ATOM     29  C36 UNL     1      28.324   6.398   1.396 +1.36 +0.00    +0.104 A 
ATOM     30  C37 UNL     1      27.780   7.449   2.131 -0.03 +0.00    +0.066 A 
ATOM     31  C38 UNL     1      26.400   7.209   2.322 -0.09 +0.00    +0.053 A 
ATOM     32  C39 UNL     1      26.112   6.024   1.690 +0.68 +0.00    +0.120 A 
ATOM     33  N15 UNL     1      27.269   5.544   1.126 +1.24 -0.00    -0.354 N 
ATOM     34  C40 UNL     1      27.355   4.307   0.376 -0.01 +0.00    +0.156 C 
BRANCH  31  35
ATOM     35  N16 UNL     1      25.447   7.958   2.982 -0.27 -0.00    -0.320 N 
ATOM     36  C41 UNL     1      24.965   7.690   4.249 +1.30 +0.00    +0.273 C 
ATOM     37  O8  UNL     1      25.256   6.711   4.926 +1.24 -0.00    -0.266 OA
ATOM     38  H58 UNL     1      25.022   8.705   2.453 +0.14 +0.00    +0.169 HD
BRANCH  36  39
ATOM     39  C42 UNL     1      24.007   8.680   4.715 +0.09 +0.00    +0.105 A 
ATOM     40  C43 UNL     1      23.361   8.684   5.945+12.40 +0.00    +0.073 A 
ATOM     41  C44 UNL     1      22.509   9.816   5.997 +1.10 +0.00    +0.120 A 
ATOM     42  C45 UNL     1      22.678  10.502   4.809 +0.26 +0.00    +0.127 A 
ATOM     43  N17 UNL     1      23.613   9.831   4.059 -0.33 -0.00    -0.354 N 
ATOM     44  C46 UNL     1      24.156  10.336   2.814 -0.02 +0.00    +0.156 C 
BRANCH  41  45
ATOM     45  N18 UNL     1      21.632  10.205   7.073 +3.65 -0.00    -0.114 N 
ATOM     46  O9  UNL     1      21.513  11.419   7.286 +2.74 -0.00    -0.532 OA
ATOM     47  O10 UNL     1      21.073   9.298   7.703 +0.02 -0.00    -0.532 OA
ENDBRANCH  41  45
ENDBRANCH  36  39
ENDBRANCH  31  35
ENDBRANCH  26  29
ENDBRANCH  24  25
ENDBRANCH  23  24
ENDBRANCH  22  23
ENDBRANCH  19  22
ENDBRANCH  14  18
ENDBRANCH   9  12
ENDBRANCH   1   8
BRANCH   3  48
ATOM     48  C10 UNL     1      19.953   9.786   2.523 -0.22 +0.00    +0.291 C 
ATOM     49  N5  UNL     1      18.977   8.848   2.267 +0.25 -0.00    -0.305 N 
ATOM     50  H52 UNL     1      19.018   8.406   1.353 +1.07 +0.00    +0.170 HD
ATOM     51  O2  UNL     1      20.092  10.438   3.553 +3.84 -0.00    -0.264 OA
BRANCH  49  52
ATOM     52  C11 UNL     1      17.985   8.481   3.131 -0.44 +0.00    +0.125 A 
ATOM     53  C12 UNL     1      18.183   7.816   4.316 +0.19 +0.00    +0.140 A 
ATOM     54  N6  UNL     1      16.932   7.657   4.848 +0.13 -0.00    -0.339 N 
ATOM     55  C13 UNL     1      16.029   8.222   3.978 -0.39 +0.00    +0.178 A 
ATOM     56  C29 UNL     1      16.622   7.010   6.099 +9.83 +0.00    +0.157 C 
ATOM     57  N7  UNL     1      16.661   8.727   2.929 -0.26 -0.00    -0.323 N 
ATOM     58  H7  UNL     1      16.241   9.203   2.131 +0.11 +0.00    +0.169 HD
BRANCH  55  59
ATOM     59  C14 UNL     1      14.581   8.291   4.126 -0.32 +0.00    +0.290 C 
ATOM     60  N8  UNL     1      13.942   7.726   3.039 -0.20 -0.00    -0.319 N 
ATOM     61  H53 UNL     1      14.561   7.358   2.318 -0.45 +0.00    +0.169 HD
ATOM     62  O3  UNL     1      14.034   8.794   5.104 -0.24 -0.00    -0.264 OA
BRANCH  60  63
ATOM     63  C15 UNL     1      12.584   7.615   2.843 -0.21 +0.00    +0.053 A 
ATOM     64  C16 UNL     1      11.575   7.809   3.754 -0.33 +0.00    +0.120 A 
ATOM     65  N9  UNL     1      10.372   7.616   3.118 -0.17 -0.00    -0.354 N 
ATOM     66  C17 UNL     1      10.588   7.232   1.808 -0.15 +0.00    +0.104 A 
ATOM     67  C28 UNL     1       9.095   7.887   3.745 -0.07 +0.00    +0.156 C 
ATOM     68  C18 UNL     1      11.964   7.276   1.618 +0.36 +0.00    +0.066 A 
BRANCH  66  69
ATOM     69  C19 UNL     1       9.602   6.908   0.799 -0.18 +0.00    +0.268 C 
ATOM     70  N10 UNL     1       8.385   7.526   0.962 -0.14 -0.00    -0.355 N 
ATOM     71  H54 UNL     1       8.222   8.094   1.781 +0.09 +0.00    +0.162 HD
ATOM     72  O4  UNL     1       9.815   6.124  -0.121 -0.15 -0.00    -0.266 OA
BRANCH  70  73
ATOM     73  C20 UNL     1       7.298   7.394   0.014 -0.39 +0.00    +0.132 C 
BRANCH  73  74
ATOM     74  C21 UNL     1       6.280   6.329   0.406 -0.26 +0.00    +0.122 C 
BRANCH  74  75
ATOM     75  C22 UNL     1       6.722   5.513   1.603 -0.12 +0.00    +0.219 C 
ATOM     76  N11 UNL     1       6.053   5.863   2.758 -0.06 -0.00    -0.361 N 
ATOM     77  H55 UNL     1       5.633   6.792   2.774 +0.06 +0.00    +0.162 HD
ATOM     78  O5  UNL     1       7.574   4.631   1.552 -0.05 -0.00    -0.274 OA
BRANCH  76  79
ATOM     79  C23 UNL     1       6.477   5.389   4.058 -0.18 +0.00    +0.124 C 
BRANCH  79  80
ATOM     80  C24 UNL     1       7.991   5.519   4.245 -0.25 +0.00    +0.050 C 
BRANCH  80  81
ATOM     81  C25 UNL     1       8.724   4.165   4.257 -0.19 +0.00    +0.273 C 
BRANCH  81  82
ATOM     82  N12 UNL     1       9.681   3.996   5.369 -0.34 +0.00    +0.080 N 
ATOM     83  C26 UNL     1      10.861   3.225   4.947 -0.27 +0.00    +0.309 C 
ATOM     84  C27 UNL     1       9.031   3.299   6.485 -0.22 +0.00    +0.309 C 
ENDBRANCH  81  82
ENDBRANCH  80  81
ENDBRANCH  79  80
ENDBRANCH  76  79
ENDBRANCH  74  75
ENDBRANCH  73  74
ENDBRANCH  70  73
ENDBRANCH  66  69
ENDBRANCH  60  63
ENDBRANCH  55  59
ENDBRANCH  49  52
ENDBRANCH   3  48
TORSDOF 23
TER
