USER    Run = 1
USER    DPF = ligand_413_receptor.dpf
USER  
USER    Estimated Free Energy of Binding    =  +2.59e+004 kcal/mol  [=(1)+(2)+(3)-(4)]
USER    
USER    (1) Final Intermolecular Energy     =  +2.59e+004 kcal/mol
USER        vdW + Hbond + desolv Energy     =  +2.59e+004 kcal/mol
USER        Electrostatic Energy            =   +0.00 kcal/mol
USER    (2) Final Total Internal Energy     =   +0.00 kcal/mol
USER    (3) Torsional Free Energy           =   +1.19 kcal/mol
USER    (4) Unbound System's Energy  [=(2)] =   +0.00 kcal/mol
USER    
USER    
USER    NEWDPF move ligand_413.pdbqt
USER    NEWDPF about 0.000000 0.000000 0.000000
USER    NEWDPF tran0 16.020134 6.802917 2.973875
USER    NEWDPF quaternion0 0.031751 0.313993 -0.090492 0.944569
USER    NEWDPF axisangle0 0.096709 0.956387 -0.275629 38.332678
USER    NEWDPF quat0 0.096709 0.956387 -0.275629 38.332678
USER  keepresnum = 1 
USER  
REMARK  0 active torsions:
REMARK  status: ('A' for Active; 'I' for Inactive)
REMARK       I    between atoms: C1_1  and  C2_2 
REMARK       I    between atoms: C1_1  and  C69_69 
REMARK       I    between atoms: C1_1  and  N18_101 
REMARK       I    between atoms: C2_2  and  N1_84 
REMARK       I    between atoms: C3_3  and  C4_4 
REMARK       I    between atoms: C3_3  and  C65_65 
REMARK       I    between atoms: C3_3  and  N1_84 
REMARK       I    between atoms: C4_4  and  N2_85 
REMARK       I    between atoms: C5_5  and  C6_6 
REMARK       I    between atoms: C5_5  and  C61_61 
REMARK       I    between atoms: C5_5  and  N2_85 
REMARK       I    between atoms: C6_6  and  N3_86 
REMARK       I    between atoms: C7_7  and  C8_8 
REMARK       I    between atoms: C7_7  and  C57_57 
REMARK       I    between atoms: C7_7  and  N3_86 
REMARK       I    between atoms: C8_8  and  N4_87 
REMARK       I    between atoms: C9_9  and  C10_10 
REMARK       I    between atoms: C9_9  and  C54_54 
REMARK       I    between atoms: C9_9  and  N4_87 
REMARK       I    between atoms: C10_10  and  N5_88 
REMARK       I    between atoms: C11_11  and  C12_12 
REMARK       I    between atoms: C11_11  and  N5_88 
REMARK       I    between atoms: C12_12  and  N6_89 
REMARK       I    between atoms: C13_13  and  C14_14 
REMARK       I    between atoms: C13_13  and  C50_50 
REMARK       I    between atoms: C13_13  and  N6_89 
REMARK       I    between atoms: C14_14  and  N7_90 
REMARK       I    between atoms: C15_15  and  C16_16 
REMARK       I    between atoms: C15_15  and  C46_46 
REMARK       I    between atoms: C15_15  and  N7_90 
REMARK       I    between atoms: C16_16  and  N8_91 
REMARK       I    between atoms: C17_17  and  C18_18 
REMARK       I    between atoms: C17_17  and  C42_42 
REMARK       I    between atoms: C17_17  and  N8_91 
REMARK       I    between atoms: C18_18  and  N9_92 
REMARK       I    between atoms: C19_19  and  C20_20 
REMARK       I    between atoms: C19_19  and  C33_33 
REMARK       I    between atoms: C19_19  and  N9_92 
REMARK       I    between atoms: C20_20  and  N10_93 
REMARK       I    between atoms: C21_21  and  C22_22 
REMARK       I    between atoms: C21_21  and  C29_29 
REMARK       I    between atoms: C21_21  and  N10_93 
REMARK       I    between atoms: C22_22  and  N11_94 
REMARK       I    between atoms: C23_23  and  C24_24 
REMARK       I    between atoms: C23_23  and  C25_25 
REMARK       I    between atoms: C23_23  and  N11_94 
REMARK       I    between atoms: C24_24  and  N12_95 
REMARK       I    between atoms: C25_25  and  C26_26 
REMARK       I    between atoms: C26_26  and  C27_27 
REMARK       I    between atoms: C27_27  and  C28_28 
REMARK       I    between atoms: C28_28  and  N13_96 
REMARK       I    between atoms: C29_29  and  C30_30 
REMARK       I    between atoms: C30_30  and  C31_31 
REMARK       I    between atoms: C31_31  and  C32_32 
REMARK       I    between atoms: C32_32  and  N14_97 
REMARK       I    between atoms: C33_33  and  C34_34 
REMARK       I    between atoms: C42_42  and  C44_44 
REMARK       I    between atoms: C46_46  and  C47_47 
REMARK       I    between atoms: C47_47  and  C48_48 
REMARK       I    between atoms: C48_48  and  C49_49 
REMARK       I    between atoms: C49_49  and  N16_99 
REMARK       I    between atoms: C57_57  and  C58_58 
REMARK       I    between atoms: C61_61  and  C62_62 
REMARK       I    between atoms: C65_65  and  C66_66 
REMARK       I    between atoms: C66_66  and  C67_67 
REMARK       I    between atoms: C67_67  and  C68_68 
REMARK       I    between atoms: C68_68  and  N17_100 
USER                              x       y       z     vdW  Elec       q    Type
USER                           _______ _______ _______ _____ _____    ______ ____
ROOT
ATOM      1  C1  UNL     1      28.695   3.837   1.467 +3.58 +0.00    +0.312 C 
ATOM      2  C2  UNL     1      27.814   5.063   1.107 +5.38 +0.00    +0.251 C 
ATOM      3  C3  UNL     1      27.159   7.351   1.895 -0.13 +0.00    +0.176 C 
ATOM      4  C4  UNL     1      25.910   7.037   2.759 -0.04 +0.00    +0.241 C 
ATOM      5  C5  UNL     1      23.974   8.039   3.958 +3.12 +0.00    +0.177 C 
ATOM      6  C6  UNL     1      23.128   9.235   3.490 -0.38 +0.00    +0.241 C 
ATOM      7  C7  UNL     1      21.471   9.968   1.776 -0.33 +0.00    +0.180 C 
ATOM      8  C8  UNL     1      20.093   9.385   1.372 +1.87 +0.00    +0.241 C 
ATOM      9  C9  UNL     1      18.324   7.789   2.132 +5.60 +0.00    +0.180 C 
ATOM     10  C10 UNL     1      17.982   7.246   3.537 +0.40 +0.00    +0.241 C 
ATOM     11  C11 UNL     1      16.135   6.555   5.041+10.28 +0.00    +0.172 C 
ATOM     12  C12 UNL     1      14.799   5.826   4.776+27.71 +0.00    +0.240 C 
ATOM     13  C13 UNL     1      12.919   4.619   5.847 -0.32 +0.00    +0.180 C 
ATOM     14  C14 UNL     1      12.113   5.308   6.964 -0.31 +0.00    +0.241 C 
ATOM     15  C15 UNL     1       9.818   5.921   7.713 +1.19 +0.00    +0.176 C 
ATOM     16  C16 UNL     1       8.602   4.983   7.916 -0.37 +0.00    +0.241 C 
ATOM     17  C17 UNL     1       7.056   3.406   6.701 +2.03 +0.00    +0.180 C 
ATOM     18  C18 UNL     1       7.017   2.971   5.216 +8.49 +0.00    +0.241 C 
ATOM     19  C19 UNL     1       7.634   3.871   2.989 -0.16 +0.00    +0.181 C 
ATOM     20  C20 UNL     1       9.133   4.273   3.136 -0.14 +0.00    +0.241 C 
ATOM     21  C21 UNL     1      11.228   4.804   1.959+76.65 +0.00    +0.176 C 
ATOM     22  C22 UNL     1      11.160   6.351   1.929 -0.23 +0.00    +0.241 C 
ATOM     23  C23 UNL     1      12.489   8.424   2.210+31.46 +0.00    +0.176 C 
ATOM     24  C24 UNL     1      13.900   8.762   1.706+99.99 +0.00    +0.238 C 
ATOM     25  C25 UNL     1      12.270   8.845   3.666 +0.21 +0.00    +0.035 C 
ATOM     26  C26 UNL     1      12.309  10.356   3.927+99.99 +0.00    +0.004 C 
ATOM     27  C27 UNL     1      11.169  11.140   3.262+39.73 +0.00    +0.030 C 
ATOM     28  C28 UNL     1      11.610  11.859   1.987+99.99 +0.00    +0.267 C 
ATOM     29  C29 UNL     1      12.070   4.242   0.805+99.99 +0.00    +0.035 C 
ATOM     30  C30 UNL     1      11.554   4.621  -0.590 +0.16 +0.00    +0.004 C 
ATOM     31  C31 UNL     1      12.542   4.188  -1.678+99.99 +0.00    +0.030 C 
ATOM     32  C32 UNL     1      12.061   4.496  -3.096+99.99 +0.00    +0.267 C 
ATOM     33  C33 UNL     1       6.870   4.759   1.997 -0.13 +0.00    +0.075 C 
ATOM     34  C34 UNL     1       6.973   4.317   0.565 -0.11 -0.00    -0.028 A 
ATOM     35  C35 UNL     1       6.611   3.081   0.065 -0.06 +0.00    +0.096 A 
ATOM     36  C36 UNL     1       7.345   4.286  -1.686 +0.08 +0.00    +0.042 A 
ATOM     37  C37 UNL     1       7.432   5.092  -0.550 -0.09 -0.00    -0.002 A 
ATOM     38  C38 UNL     1       7.917   6.408  -0.701 +0.01 +0.00    +0.014 A 
ATOM     39  C39 UNL     1       8.285   6.868  -1.970 +2.41 +0.00    +0.001 A 
ATOM     40  C40 UNL     1       8.181   6.040  -3.084 +8.01 +0.00    +0.002 A 
ATOM     41  C41 UNL     1       7.713   4.729  -2.962 +1.14 +0.00    +0.030 A 
ATOM     42  C42 UNL     1       5.682   3.869   7.248 -0.14 +0.00    +0.013 C 
ATOM     43  C43 UNL     1       5.143   5.137   6.576 -0.44 +0.00    +0.012 C 
ATOM     44  C44 UNL     1       4.661   2.711   7.176+99.99 +0.00    +0.002 C 
ATOM     45  C45 UNL     1       3.364   2.995   7.923 +0.34 +0.00    +0.005 C 
ATOM     46  C46 UNL     1       9.318   7.295   7.241+29.81 +0.00    +0.035 C 
ATOM     47  C47 UNL     1      10.403   8.372   7.118 +8.08 +0.00    +0.004 C 
ATOM     48  C48 UNL     1      10.995   8.800   8.462+99.99 +0.00    +0.030 C 
ATOM     49  C49 UNL     1      12.073   9.867   8.267 +0.23 +0.00    +0.267 C 
ATOM     50  C50 UNL     1      12.881   3.084   5.989+10.41 +0.00    +0.009 C 
ATOM     51  C51 UNL     1      13.576   2.577   7.256+66.93 +0.00    +0.012 C 
ATOM     52  C52 UNL     1      13.488   2.400   4.760+99.99 +0.00    +0.012 C 
ATOM     53  C53 UNL     1      15.954   7.697   6.035+99.99 +0.00    +0.042 C 
ATOM     54  C54 UNL     1      18.329   6.696   1.035+99.99 +0.00    +0.009 C 
ATOM     55  C55 UNL     1      16.925   6.187   0.702+61.63 +0.00    +0.012 C 
ATOM     56  C56 UNL     1      19.246   5.515   1.370+99.99 +0.00    +0.012 C 
ATOM     57  C57 UNL     1      22.294  10.577   0.614 +0.71 +0.00    +0.013 C 
ATOM     58  C58 UNL     1      21.708  11.873   0.017 +2.23 +0.00    +0.002 C 
ATOM     59  C59 UNL     1      21.518  12.991   1.031+99.99 +0.00    +0.005 C 
ATOM     60  C60 UNL     1      22.547   9.562  -0.511 -0.15 +0.00    +0.012 C 
ATOM     61  C61 UNL     1      24.331   8.104   5.449 +7.79 +0.00    +0.038 C 
ATOM     62  C62 UNL     1      23.248   7.518   6.380+99.99 -0.00    -0.020 C 
ATOM     63  C63 UNL     1      21.916   8.265   6.305+99.99 +0.00    +0.009 C 
ATOM     64  C64 UNL     1      23.756   7.518   7.825+99.99 +0.00    +0.009 C 
ATOM     65  C65 UNL     1      26.833   7.876   0.485 -0.42 +0.00    +0.035 C 
ATOM     66  C66 UNL     1      26.310   9.314   0.374 +4.58 +0.00    +0.004 C 
ATOM     67  C67 UNL     1      27.275  10.383   0.894+65.73 +0.00    +0.030 C 
ATOM     68  C68 UNL     1      26.708  11.803   0.774+62.23 +0.00    +0.267 C 
ATOM     69  C69 UNL     1      30.079   3.855   0.775 -0.29 +0.00    +0.020 C 
ATOM     70  C70 UNL     1      30.006   3.904  -0.755 -0.16 +0.00    +0.012 C 
ATOM     71  C71 UNL     1      30.963   4.997   1.285 -0.26 +0.00    +0.012 C 
ATOM     72  O1  UNL     1      26.999   5.024   0.188 -0.35 -0.00    -0.271 OA
ATOM     73  O2  UNL     1      25.600   5.902   3.115 +1.30 -0.00    -0.271 OA
ATOM     74  O3  UNL     1      23.318  10.382   3.885 -0.48 -0.00    -0.271 OA
ATOM     75  O4  UNL     1      19.412   9.800   0.439 -0.23 -0.00    -0.271 OA
ATOM     76  O5  UNL     1      18.855   6.970   4.361 +5.79 -0.00    -0.271 OA
ATOM     77  O6  UNL     1      14.242   5.821   3.675 +6.19 -0.00    -0.271 OA
ATOM     78  O7  UNL     1      12.651   5.754   7.976 -0.30 -0.00    -0.271 OA
ATOM     79  O8  UNL     1       8.037   4.867   8.999 +0.15 -0.00    -0.271 OA
ATOM     80  O9  UNL     1       6.928   1.802   4.857+99.99 -0.00    -0.271 OA
ATOM     81  O10 UNL     1       9.629   4.575   4.231 -0.18 -0.00    -0.271 OA
ATOM     82  O11 UNL     1      10.112   6.973   1.769 -0.22 -0.00    -0.271 OA
ATOM     83  O12 UNL     1      14.909   8.746   2.409 +0.15 -0.00    -0.271 OA
ATOM     84  N1  UNL     1      28.039   6.174   1.898+16.42 -0.00    -0.346 N 
ATOM     85  N2  UNL     1      25.181   8.139   3.137 -0.26 -0.00    -0.346 N 
ATOM     86  N3  UNL     1      22.244   8.930   2.478 -0.19 -0.00    -0.346 N 
ATOM     87  N4  UNL     1      19.633   8.425   2.245 +7.57 -0.00    -0.346 N 
ATOM     88  N5  UNL     1      16.645   7.059   3.775 +0.60 -0.00    -0.346 N 
ATOM     89  N6  UNL     1      14.271   5.167   5.863 +0.92 -0.00    -0.346 N 
ATOM     90  N7  UNL     1      10.754   5.342   6.741 -0.11 -0.00    -0.346 N 
ATOM     91  N8  UNL     1       8.117   4.429   6.750 -0.21 -0.00    -0.346 N 
ATOM     92  N9  UNL     1       7.066   4.035   4.331 -0.08 -0.00    -0.346 N 
ATOM     93  N10 UNL     1       9.881   4.242   1.979 +1.94 -0.00    -0.346 N 
ATOM     94  N11 UNL     1      12.376   6.975   2.084 -0.21 -0.00    -0.346 N 
ATOM     95  N12 UNL     1      13.998   8.966   0.358+99.99 -0.00    -0.368 N 
ATOM     96  N13 UNL     1      10.484  12.579   1.404+44.73 +0.00    +0.078 N 
ATOM     97  N14 UNL     1      11.894   5.930  -3.319 -0.25 +0.00    +0.078 N 
ATOM     98  N15 UNL     1       6.840   3.073  -1.284 -0.00 -0.00    -0.365 N 
ATOM     99  N16 UNL     1      12.657  10.262   9.544 +1.44 +0.00    +0.078 N 
ATOM    100  N17 UNL     1      26.455  12.173  -0.612+99.99 +0.00    +0.078 N 
ATOM    101  N18 UNL     1      27.950   2.602   1.132 +2.41 +0.00    +0.092 N 
ATOM    102  HA3 UNL     1      28.481   5.979   2.788+16.77 +0.00    +0.163 HD
ATOM    103  HA4 UNL     1      25.566   9.067   3.010 +0.11 +0.00    +0.163 HD
ATOM    104  HA5 UNL     1      22.302   8.016   2.041 +0.11 +0.00    +0.163 HD
ATOM    105  HA6 UNL     1      20.178   8.219   3.079 +0.11 +0.00    +0.163 HD
ATOM    106  HA7 UNL     1      15.976   7.540   3.168 -0.12 +0.00    +0.163 HD
ATOM    107  HA8 UNL     1      14.661   5.339   6.786 +0.09 +0.00    +0.163 HD
ATOM    108  HA9 UNL     1      10.439   5.192   5.782 +0.11 +0.00    +0.163 HD
ATOM    109  HB0 UNL     1       8.814   4.340   6.015 +0.10 +0.00    +0.163 HD
ATOM    110  HB1 UNL     1       7.238   4.936   4.768 +0.09 +0.00    +0.163 HD
ATOM    111  HB2 UNL     1       9.375   4.287   1.103 -0.09 +0.00    +0.163 HD
ATOM    112  HB3 UNL     1      13.142   6.430   2.495 -0.18 +0.00    +0.163 HD
ATOM    113  HB4 UNL     1      14.932   9.053  -0.024 -0.49 +0.00    +0.159 HD
ATOM    114  HB5 UNL     1      13.289   8.593  -0.264 +1.67 +0.00    +0.159 HD
ATOM    115  HB6 UNL     1       9.749  11.924   1.143+17.79 +0.00    +0.312 HD
ATOM    116  HB7 UNL     1      10.782  13.039   0.545 +4.18 +0.00    +0.312 HD
ATOM    117  HB8 UNL     1      11.078   6.251  -2.797 +0.18 +0.00    +0.312 HD
ATOM    118  HB9 UNL     1      11.664   6.085  -4.301 +0.18 +0.00    +0.312 HD
ATOM    119  HC0 UNL     1       6.650   2.296  -1.904 +0.05 +0.00    +0.165 HD
ATOM    120  HC1 UNL     1      13.057   9.442   9.998 +0.55 +0.00    +0.312 HD
ATOM    121  HC2 UNL     1      11.923  10.593  10.168 +2.99 +0.00    +0.312 HD
ATOM    122  HC3 UNL     1      26.114  13.132  -0.651 +0.77 +0.00    +0.312 HD
ATOM    123  HC4 UNL     1      27.327  12.158  -1.140 +4.76 +0.00    +0.312 HD
ATOM    124  HC5 UNL     1      27.072   2.620   1.657+99.99 +0.00    +0.313 HD
ATOM    125  HC6 UNL     1      27.636   2.697   0.161 +0.22 +0.00    +0.313 HD
ENDROOT
TORSDOF 55
TER
