USER    Run = 1
USER    DPF = ligand_236_receptor.dpf
USER  
USER    Estimated Free Energy of Binding    = +659.46 kcal/mol  [=(1)+(2)+(3)-(4)]
USER    
USER    (1) Final Intermolecular Energy     = +658.26 kcal/mol
USER        vdW + Hbond + desolv Energy     = +658.26 kcal/mol
USER        Electrostatic Energy            =   +0.00 kcal/mol
USER    (2) Final Total Internal Energy     =   +9.55 kcal/mol
USER    (3) Torsional Free Energy           =   +1.19 kcal/mol
USER    (4) Unbound System's Energy  [=(2)] =   +9.55 kcal/mol
USER    
USER    
USER    NEWDPF move ligand_236.pdbqt
USER    NEWDPF about 0.000000 0.000000 0.000000
USER    NEWDPF tran0 14.414257 6.638113 8.305534
USER    NEWDPF quaternion0 0.455665 -0.236173 -0.002109 0.858247
USER    NEWDPF axisangle0 0.887825 -0.460163 -0.004110 61.759387
USER    NEWDPF quat0 0.887825 -0.460163 -0.004110 61.759387
USER    NEWDPF dihe0 -180.00 -6.63 -178.23 69.46 -134.01 -179.97 147.25 -41.43 -180.00 37.25 13.70 88.68 -2.17 -114.88 33.08 62.24 133.32 13.12 -30.26 -123.44 -10.13 -89.67 -59.18 
USER  keepresnum = 1 
USER  
REMARK  23 active torsions:
REMARK  status: ('A' for Active; 'I' for Inactive)
REMARK    1  A    between atoms: C3_3  and  C4_4 
REMARK    2  A    between atoms: C3_3  and  N1_64 
REMARK    3  A    between atoms: C5_5  and  C6_6 
REMARK    4  A    between atoms: C6_6  and  N2_65 
REMARK    5  A    between atoms: C6_6  and  O4_85 
REMARK    6  A    between atoms: C7_7  and  N2_65 
REMARK    7  A    between atoms: C10_10  and  C13_13 
REMARK       I    between atoms: C13_13  and  N3_66 
REMARK    8  A    between atoms: C14_14  and  N3_66 
REMARK    9  A    between atoms: C18_18  and  N4_67 
REMARK   10  A    between atoms: C20_20  and  N4_67 
REMARK   11  A    between atoms: C23_23  and  C24_24 
REMARK   12  A    between atoms: C30_30  and  C32_32 
REMARK   13  A    between atoms: C32_32  and  N8_73 
REMARK   14  A    between atoms: C34_34  and  C35_35 
REMARK   15  A    between atoms: C34_34  and  N8_73 
REMARK   16  A    between atoms: C36_36  and  C37_37 
REMARK       I    between atoms: C37_37  and  N9_74 
REMARK   17  A    between atoms: C38_38  and  C39_39 
REMARK   18  A    between atoms: C38_38  and  N9_74 
REMARK   19  A    between atoms: C42_42  and  C45_45 
REMARK       I    between atoms: C45_45  and  N10_75 
REMARK   20  A    between atoms: C46_46  and  N10_75 
REMARK   21  A    between atoms: C50_50  and  N11_76 
REMARK   22  A    between atoms: C52_52  and  N11_76 
REMARK   23  A    between atoms: C55_55  and  C56_56 
USER                              x       y       z     vdW  Elec       q    Type
USER                           _______ _______ _______ _____ _____    ______ ____
ROOT
ATOM      1  C32 UNL     1      11.684   4.534   8.663 -0.16 +0.00    +0.311 C 
ENDROOT
BRANCH   1   2
ATOM      2  C30 UNL     1      13.112   4.925   8.338 -0.48 -0.00    -0.028 A 
ATOM      3  C29 UNL     1      14.170   4.421   9.103+20.33 +0.00    +0.010 A 
ATOM      4  C28 UNL     1      15.497   4.762   8.816+34.90 +0.00    +0.015 A 
ATOM      5  C27 UNL     1      15.784   5.626   7.739+41.06 +0.00    +0.004 A 
ATOM      6  C24 UNL     1      16.988   6.164   7.174+75.17 +0.00    +0.019 A 
ATOM      7  C26 UNL     1      14.713   6.131   7.000 -0.31 +0.00    +0.043 A 
ATOM      8  C25 UNL     1      16.607   6.962   6.109+10.71 +0.00    +0.103 A 
ATOM      9  N7  UNL     1      15.240   6.930   6.015 +0.58 -0.00    -0.364 N 
ATOM     10  H54 UNL     1      14.692   7.408   5.313 +0.12 +0.00    +0.165 HD
ATOM     11  C31 UNL     1      13.378   5.814   7.281 -0.51 +0.00    +0.039 A 
BRANCH   6  12
ATOM     12  C23 UNL     1      18.376   5.941   7.565+64.52 +0.00    +0.063 A 
ATOM     13  C22 UNL     1      18.983   6.704   8.536+41.35 +0.00    +0.048 A 
ATOM     14  C21 UNL     1      20.288   6.384   8.806+34.01 +0.00    +0.108 A 
ATOM     15  N5  UNL     1      20.957   5.401   8.178+12.36 -0.00    -0.202 N 
ATOM     16  C20 UNL     1      20.293   4.705   7.244+16.08 +0.00    +0.683 A 
ATOM     17  H5  UNL     1      21.929   5.194   8.404 -0.28 +0.00    +0.183 HD
ATOM     18  N6  UNL     1      19.015   4.943   6.920+59.57 -0.00    -0.191 N 
ATOM     19  H6  UNL     1      18.540   4.389   6.208+47.95 +0.00    +0.184 HD
BRANCH  16  20
ATOM     20  N4  UNL     1      20.889   3.672   6.527 +8.97 -0.00    -0.192 N 
ATOM     21  H53 UNL     1      21.083   2.910   7.161 +1.28 +0.00    +0.184 HD
BRANCH  20  22
ATOM     22  C18 UNL     1      21.222   3.478   5.181+19.85 +0.00    +0.051 A 
ATOM     23  C17 UNL     1      20.267   2.899   4.333+33.45 +0.00    +0.030 A 
ATOM     24  C16 UNL     1      20.538   2.680   2.982 +5.96 +0.00    +0.004 A 
ATOM     25  C15 UNL     1      21.777   3.036   2.449 +1.28 +0.00    +0.029 A 
ATOM     26  C14 UNL     1      22.748   3.609   3.265 +4.52 +0.00    +0.037 A 
ATOM     27  C19 UNL     1      22.458   3.826   4.624+84.04 +0.00    +0.059 A 
BRANCH  26  28
ATOM     28  N3  UNL     1      24.025   4.006   2.812 +3.80 -0.00    -0.323 N 
ATOM     29  C13 UNL     1      24.358   4.505   1.566 +0.03 +0.00    +0.256 C 
ATOM     30  O1  UNL     1      23.616   4.629   0.599 -0.47 -0.00    -0.267 OA
ATOM     31  H52 UNL     1      24.782   3.842   3.463 +0.59 +0.00    +0.169 HD
BRANCH  29  32
ATOM     32  C10 UNL     1      25.792   4.884   1.406 +1.11 +0.00    +0.032 A 
ATOM     33  C9  UNL     1      26.312   6.064   1.945 +3.73 +0.00    +0.019 A 
ATOM     34  C8  UNL     1      27.665   6.382   1.766 +9.41 +0.00    +0.024 A 
ATOM     35  C7  UNL     1      28.530   5.526   1.068 +1.54 +0.00    +0.010 A 
ATOM     36  C12 UNL     1      27.975   4.378   0.485 -0.13 +0.00    +0.024 A 
ATOM     37  C11 UNL     1      26.625   4.050   0.656 +3.37 +0.00    +0.019 A 
BRANCH  35  38
ATOM     38  N2  UNL     1      29.869   5.829   0.798 -0.12 -0.00    -0.263 NA
ATOM     39  H51 UNL     1      29.960   6.732   0.340 +0.06 +0.00    +0.130 HD
BRANCH  38  40
ATOM     40  C6  UNL     1      30.744   4.832   0.230 -0.09 +0.00    +0.219 C 
BRANCH  40  41
ATOM     41  C5  UNL     1      29.889   3.806  -0.458 -0.19 +0.00    +0.018 C 
ATOM     42  C4  UNL     1      30.313   2.717  -1.127 -0.19 +0.00    +0.003 C 
BRANCH  42  43
ATOM     43  C3  UNL     1      29.403   1.722  -1.791 +0.17 +0.00    +0.298 C 
BRANCH  43  44
ATOM     44  N1  UNL     1      28.606   2.232  -2.910 -0.18 +0.00    +0.083 N 
ATOM     45  C1  UNL     1      29.426   2.839  -3.955 -0.05 +0.00    +0.309 C 
ATOM     46  C2  UNL     1      27.533   3.126  -2.491 -0.17 +0.00    +0.309 C 
ENDBRANCH  43  44
ENDBRANCH  42  43
ENDBRANCH  40  41
BRANCH  40  47
ATOM     47  O4  UNL     1      31.558   5.499  -0.701 +0.01 -0.00    -0.378 OA
ATOM     48  H59 UNL     1      32.207   4.804  -0.913 +0.04 +0.00    +0.212 HD
ENDBRANCH  40  47
ENDBRANCH  38  40
ENDBRANCH  35  38
ENDBRANCH  29  32
ENDBRANCH  26  28
ENDBRANCH  20  22
ENDBRANCH  16  20
ENDBRANCH   6  12
ENDBRANCH   1   2
BRANCH   1  49
ATOM     49  N8  UNL     1      10.692   5.617   8.459 +0.57 +0.00    +0.091 N 
ATOM     50  C33 UNL     1       9.507   5.036   7.804 -0.24 +0.00    +0.310 C 
BRANCH  49  51
ATOM     51  C34 UNL     1      11.210   6.709   7.610 +3.68 +0.00    +0.300 C 
BRANCH  51  52
ATOM     52  C35 UNL     1      12.021   7.733   8.347+10.95 +0.00    +0.008 C 
ATOM     53  C36 UNL     1      12.812   8.704   7.856 -0.53 +0.00    +0.072 C 
BRANCH  53  54
ATOM     54  C37 UNL     1      13.091   9.076   6.446 +0.94 +0.00    +0.241 C 
ATOM     55  N9  UNL     1      12.554   8.268   5.490 -0.10 -0.00    -0.353 N 
ATOM     56  H55 UNL     1      11.900   7.545   5.790 +0.12 +0.00    +0.163 HD
ATOM     57  O2  UNL     1      13.718  10.102   6.200 +6.62 -0.00    -0.269 OA
BRANCH  55  58
ATOM     58  C38 UNL     1      12.591   8.628   4.098 +0.09 +0.00    +0.161 C 
BRANCH  58  59
ATOM     59  C39 UNL     1      11.930   7.571   3.253 -0.36 -0.00    -0.040 A 
ATOM     60  C40 UNL     1      10.719   6.993   3.664 -0.35 +0.00    +0.010 A 
ATOM     61  C41 UNL     1      10.075   6.047   2.862 -0.25 +0.00    +0.017 A 
ATOM     62  C42 UNL     1      10.640   5.670   1.637 +0.08 +0.00    +0.032 A 
ATOM     63  C43 UNL     1      11.835   6.260   1.211 -0.35 +0.00    +0.017 A 
ATOM     64  C44 UNL     1      12.478   7.202   2.016 -0.01 +0.00    +0.010 A 
BRANCH  62  65
ATOM     65  C45 UNL     1       9.975   4.683   0.742 +0.88 +0.00    +0.256 C 
ATOM     66  N10 UNL     1       8.844   4.093   1.273 -0.02 -0.00    -0.323 N 
ATOM     67  H56 UNL     1       8.629   4.297   2.241 +0.06 +0.00    +0.169 HD
ATOM     68  O3  UNL     1      10.484   4.459  -0.349 -0.13 -0.00    -0.267 OA
BRANCH  66  69
ATOM     69  C46 UNL     1       7.987   3.159   0.650 -0.12 +0.00    +0.037 A 
ATOM     70  C47 UNL     1       8.099   2.772  -0.683 -0.09 +0.00    +0.029 A 
ATOM     71  C48 UNL     1       7.204   1.848  -1.220 -0.10 +0.00    +0.004 A 
ATOM     72  C49 UNL     1       6.192   1.310  -0.424 -0.14 +0.00    +0.030 A 
ATOM     73  C50 UNL     1       6.051   1.679   0.921 -0.15 +0.00    +0.051 A 
ATOM     74  C51 UNL     1       6.961   2.610   1.437 -0.14 +0.00    +0.059 A 
BRANCH  73  75
ATOM     75  N11 UNL     1       5.011   1.109   1.664 -0.15 -0.00    -0.192 N 
ATOM     76  H57 UNL     1       4.570   0.286   1.275 +0.05 +0.00    +0.184 HD
BRANCH  75  77
ATOM     77  C52 UNL     1       4.425   1.390   2.894 +0.03 +0.00    +0.683 A 
ATOM     78  N12 UNL     1       3.427   0.651   3.399 -0.20 -0.00    -0.200 N 
ATOM     79  C53 UNL     1       2.936   1.013   4.604 -0.20 +0.00    +0.132 A 
ATOM     80  H12 UNL     1       3.055  -0.152   2.893 +0.07 +0.00    +0.183 HD
ATOM     81  C54 UNL     1       3.391   2.085   5.333 -0.26 +0.00    +0.078 A 
ATOM     82  C55 UNL     1       4.414   2.792   4.734 -0.22 +0.00    +0.084 A 
ATOM     83 CL1  UNL     1       2.709   2.422   6.872 -0.48 -0.00    -0.080 Cl
ATOM     84  N13 UNL     1       4.939   2.452   3.530 -0.14 -0.00    -0.189 N 
ATOM     85  H13 UNL     1       5.704   2.989   3.121 +0.07 +0.00    +0.184 HD
BRANCH  82  86
ATOM     86  C56 UNL     1       5.039   3.959   5.337 -0.27 +0.00    +0.021 A 
ATOM     87  C57 UNL     1       6.387   4.049   5.625 -0.26 +0.00    +0.103 A 
ATOM     88  N14 UNL     1       6.618   5.269   6.204 -0.16 -0.00    -0.364 N 
ATOM     89  C58 UNL     1       5.441   5.970   6.325 -0.25 +0.00    +0.043 A 
ATOM     90  H58 UNL     1       7.519   5.607   6.514 +0.09 +0.00    +0.165 HD
ATOM     91  C59 UNL     1       5.200   7.241   6.861 +1.85 +0.00    +0.030 A 
ATOM     92  C63 UNL     1       4.427   5.167   5.800 -0.26 +0.00    +0.004 A 
ATOM     93  C60 UNL     1       3.881   7.705   6.863 -0.12 +0.00    +0.002 A 
ATOM     94  C61 UNL     1       2.846   6.926   6.349 -0.21 +0.00    +0.001 A 
ATOM     95  C62 UNL     1       3.105   5.659   5.816 -0.18 +0.00    +0.014 A 
ENDBRANCH  82  86
ENDBRANCH  75  77
ENDBRANCH  73  75
ENDBRANCH  66  69
ENDBRANCH  62  65
ENDBRANCH  58  59
ENDBRANCH  55  58
ENDBRANCH  53  54
ENDBRANCH  51  52
ENDBRANCH  49  51
ENDBRANCH   1  49
TORSDOF 23
TER
