USER    Run = 1
USER    DPF = ligand_215_receptor.dpf
USER  
USER    Estimated Free Energy of Binding    =  +62.11 kcal/mol  [=(1)+(2)+(3)-(4)]
USER    
USER    (1) Final Intermolecular Energy     =  +60.92 kcal/mol
USER        vdW + Hbond + desolv Energy     =  +60.92 kcal/mol
USER        Electrostatic Energy            =   +0.00 kcal/mol
USER    (2) Final Total Internal Energy     =  +12.73 kcal/mol
USER    (3) Torsional Free Energy           =   +1.19 kcal/mol
USER    (4) Unbound System's Energy  [=(2)] =  +12.73 kcal/mol
USER    
USER    
USER    NEWDPF move ligand_215.pdbqt
USER    NEWDPF about 0.000000 0.000000 0.000000
USER    NEWDPF tran0 17.581284 5.982478 3.365137
USER    NEWDPF quaternion0 0.756385 -0.232416 -0.191134 0.580803
USER    NEWDPF axisangle0 0.929170 -0.285508 -0.234795 108.985882
USER    NEWDPF quat0 0.929170 -0.285508 -0.234795 108.985882
USER    NEWDPF dihe0 171.42 180.00 72.77 106.57 43.93 -102.95 -77.17 -129.13 -126.84 -82.77 -180.00 -158.51 -41.78 48.65 -65.85 -164.64 93.78 -71.45 -133.42 170.54 115.04 -84.71 -164.09 -155.62 125.26 -1.08 
USER  keepresnum = 1 
USER  
REMARK  26 active torsions:
REMARK  status: ('A' for Active; 'I' for Inactive)
REMARK    1  A    between atoms: C3_3  and  C23_23 
REMARK    2  A    between atoms: C6_6  and  C7_7 
REMARK       I    between atoms: C7_7  and  N1_43 
REMARK    3  A    between atoms: C8_8  and  N1_43 
REMARK    4  A    between atoms: C9_9  and  S1_63 
REMARK    5  A    between atoms: C10_10  and  C15_15 
REMARK    6  A    between atoms: C12_12  and  C14_14 
REMARK       I    between atoms: C15_15  and  N2_44 
REMARK    7  A    between atoms: C16_16  and  C17_17 
REMARK    8  A    between atoms: C16_16  and  N2_44 
REMARK    9  A    between atoms: C17_17  and  C18_18 
REMARK   10  A    between atoms: C18_18  and  C19_19 
REMARK   11  A    between atoms: C19_19  and  N3_45 
REMARK       I    between atoms: C20_20  and  N4_47 
REMARK       I    between atoms: C20_20  and  N5_48 
REMARK   12  A    between atoms: C21_21  and  C22_22 
REMARK   13  A    between atoms: C21_21  and  S1_63 
REMARK   14  A    between atoms: C22_22  and  N6_49 
REMARK       I    between atoms: C23_23  and  N7_50 
REMARK   15  A    between atoms: C24_24  and  N7_50 
REMARK   16  A    between atoms: C25_25  and  S2_64 
REMARK   17  A    between atoms: C26_26  and  C31_31 
REMARK   18  A    between atoms: C28_28  and  C30_30 
REMARK       I    between atoms: C31_31  and  N8_51 
REMARK   19  A    between atoms: C32_32  and  C33_33 
REMARK   20  A    between atoms: C32_32  and  N8_51 
REMARK   21  A    between atoms: C33_33  and  C34_34 
REMARK   22  A    between atoms: C34_34  and  C35_35 
REMARK   23  A    between atoms: C35_35  and  N9_52 
REMARK       I    between atoms: C36_36  and  N10_54 
REMARK       I    between atoms: C36_36  and  N11_55 
REMARK   24  A    between atoms: C37_37  and  C38_38 
REMARK   25  A    between atoms: C37_37  and  S2_64 
REMARK   26  A    between atoms: C38_38  and  N12_56 
USER                              x       y       z     vdW  Elec       q    Type
USER                           _______ _______ _______ _____ _____    ______ ____
ROOT
ATOM      1  C1  UNL     1      17.719   7.200   3.936 +1.98 +0.00    +0.018 A 
ATOM      2  C2  UNL     1      19.064   7.061   3.569 +2.72 +0.00    +0.018 A 
ATOM      3  C3  UNL     1      19.866   8.196   3.383 +0.86 +0.00    +0.032 A 
ATOM      4  C4  UNL     1      19.317   9.466   3.600 +0.93 +0.00    +0.018 A 
ATOM      5  C5  UNL     1      17.975   9.605   3.965 -0.26 +0.00    +0.018 A 
ATOM      6  C6  UNL     1      17.164   8.474   4.119 -0.48 +0.00    +0.032 A 
ENDROOT
BRANCH   3   7
ATOM      7  C23 UNL     1      21.305   8.104   2.992 +3.88 +0.00    +0.256 C 
ATOM      8  O3  UNL     1      21.919   7.086   3.285 +7.08 -0.00    -0.267 OA
ATOM      9  N7  UNL     1      21.824   9.217   2.362 -0.21 -0.00    -0.322 N 
ATOM     10  H41 UNL     1      21.226  10.032   2.260 +0.13 +0.00    +0.169 HD
BRANCH   9  11
ATOM     11  C24 UNL     1      23.149   9.428   1.902 -0.39 +0.00    +0.053 A 
ATOM     12  C25 UNL     1      23.957   8.287   1.656 -0.41 +0.00    +0.043 A 
ATOM     13  C26 UNL     1      25.270   8.473   1.181 -0.39 +0.00    +0.051 A 
ATOM     14  C27 UNL     1      25.787   9.767   1.008 +2.95 +0.00    +0.034 A 
ATOM     15  C28 UNL     1      24.998  10.893   1.259 +5.97 +0.00    +0.051 A 
ATOM     16  C29 UNL     1      23.680  10.710   1.704+14.25 +0.00    +0.047 A 
BRANCH  12  17
ATOM     17  S2  UNL     1      23.255   6.651   1.981 +4.03 -0.00    -0.125 SA
BRANCH  17  18
ATOM     18  C37 UNL     1      23.453   5.886   0.325 -0.47 +0.00    +0.109 C 
BRANCH  18  19
ATOM     19  C38 UNL     1      23.943   6.861  -0.756 -0.38 +0.00    +0.277 C 
BRANCH  19  20
ATOM     20  N12 UNL     1      25.005   6.309  -1.605 -0.46 +0.00    +0.079 N 
ATOM     21  H47 UNL     1      25.358   5.459  -1.162 +0.23 +0.00    +0.312 HD
ATOM     22  H48 UNL     1      25.790   6.961  -1.618 +0.21 +0.00    +0.312 HD
ENDBRANCH  19  20
ENDBRANCH  18  19
ENDBRANCH  17  18
ENDBRANCH  12  17
BRANCH  13  23
ATOM     23  C31 UNL     1      26.201   7.367   0.844 -0.27 +0.00    +0.253 C 
ATOM     24  O4  UNL     1      25.963   6.239   1.257 -0.25 -0.00    -0.268 OA
ATOM     25  N8  UNL     1      27.315   7.715   0.118 -0.14 -0.00    -0.357 N 
ATOM     26  H42 UNL     1      27.427   8.673  -0.189 +0.09 +0.00    +0.162 HD
BRANCH  25  27
ATOM     27  C32 UNL     1      28.341   6.758  -0.248 -0.25 +0.00    +0.123 C 
BRANCH  27  28
ATOM     28  C33 UNL     1      28.575   6.710  -1.758 -0.29 +0.00    +0.021 C 
BRANCH  28  29
ATOM     29  C34 UNL     1      29.896   6.029  -2.131 -0.16 +0.00    +0.021 C 
BRANCH  29  30
ATOM     30  C35 UNL     1      29.682   4.706  -2.866 -0.11 +0.00    +0.121 C 
BRANCH  30  31
ATOM     31  N9  UNL     1      29.948   3.568  -1.992 +0.01 -0.00    -0.372 N 
ATOM     32  C36 UNL     1      28.989   2.994  -1.374 -0.20 +0.00    +0.121 C 
ATOM     33  N10 UNL     1      27.662   3.242  -1.387 -0.26 -0.00    -0.279 NA
ATOM     34  N11 UNL     1      29.248   1.944  -0.567 -0.07 -0.00    -0.279 NA
ATOM     35  H43 UNL     1      27.398   4.128  -1.799 +0.06 +0.00    +0.126 HD
ATOM     36  H44 UNL     1      27.242   3.130  -0.471 +0.07 +0.00    +0.126 HD
ATOM     37  H45 UNL     1      28.622   1.167  -0.741 -0.41 +0.00    +0.126 HD
ATOM     38  H46 UNL     1      30.214   1.655  -0.686 +0.03 +0.00    +0.126 HD
ATOM     39  H9  UNL     1      30.903   3.230  -1.874 +0.05 +0.00    +0.161 HD
ENDBRANCH  30  31
ENDBRANCH  29  30
ENDBRANCH  28  29
ENDBRANCH  27  28
ENDBRANCH  25  27
ENDBRANCH  13  23
BRANCH  15  40
ATOM     40  C30 UNL     1      25.553  12.287   1.088 +8.12 +0.00    +0.417 C 
ATOM     41  F4  UNL     1      24.811  13.059   0.245 +1.50 -0.00    -0.166 F 
ATOM     42  F5  UNL     1      25.622  12.979   2.257 +2.20 -0.00    -0.166 F 
ATOM     43  F6  UNL     1      26.814  12.280   0.576 +4.42 -0.00    -0.166 F 
ENDBRANCH  15  40
ENDBRANCH   9  11
ENDBRANCH   3   7
BRANCH   6  44
ATOM     44  C7  UNL     1      15.737   8.664   4.512 -0.01 +0.00    +0.256 C 
ATOM     45  O1  UNL     1      15.404   9.703   5.066 +2.16 -0.00    -0.267 OA
ATOM     46  N1  UNL     1      14.876   7.650   4.110 -0.28 -0.00    -0.322 N 
ATOM     47  H33 UNL     1      15.143   7.231   3.227 -0.38 +0.00    +0.169 HD
BRANCH  46  48
ATOM     48  C8  UNL     1      13.488   7.655   4.405 -0.43 +0.00    +0.053 A 
ATOM     49  C9  UNL     1      12.491   7.024   3.615 -0.39 +0.00    +0.043 A 
ATOM     50  C10 UNL     1      11.166   7.040   4.103 -0.33 +0.00    +0.051 A 
ATOM     51  C11 UNL     1      10.837   7.702   5.300 -0.35 +0.00    +0.034 A 
ATOM     52  C12 UNL     1      11.806   8.399   6.023 -0.09 +0.00    +0.051 A 
ATOM     53  C13 UNL     1      13.128   8.373   5.561 -0.25 +0.00    +0.047 A 
BRANCH  49  54
ATOM     54  S1  UNL     1      12.860   6.263   2.021 +0.69 -0.00    -0.125 SA
BRANCH  54  55
ATOM     55  C21 UNL     1      11.328   6.626   1.089 -0.33 +0.00    +0.109 C 
BRANCH  55  56
ATOM     56  C22 UNL     1      11.598   7.107  -0.343 +0.23 +0.00    +0.277 C 
BRANCH  56  57
ATOM     57  N6  UNL     1      11.157   6.167  -1.380 -0.30 +0.00    +0.079 N 
ATOM     58  H39 UNL     1      11.962   5.876  -1.936 +0.17 +0.00    +0.312 HD
ATOM     59  H40 UNL     1      10.819   5.316  -0.925 +0.15 +0.00    +0.312 HD
ENDBRANCH  56  57
ENDBRANCH  55  56
ENDBRANCH  54  55
ENDBRANCH  49  54
BRANCH  50  60
ATOM     60  C15 UNL     1      10.012   6.392   3.429 -0.20 +0.00    +0.253 C 
ATOM     61  O2  UNL     1      10.155   5.286   2.918 -0.14 -0.00    -0.268 OA
ATOM     62  N2  UNL     1       8.811   7.048   3.536 -0.12 -0.00    -0.357 N 
ATOM     63  H34 UNL     1       8.780   7.934   4.046 +0.09 +0.00    +0.162 HD
BRANCH  62  64
ATOM     64  C16 UNL     1       7.587   6.520   2.980 -0.23 +0.00    +0.123 C 
BRANCH  64  65
ATOM     65  C17 UNL     1       7.176   7.275   1.720 -0.44 +0.00    +0.021 C 
BRANCH  65  66
ATOM     66  C18 UNL     1       7.407   6.432   0.469 -0.31 +0.00    +0.021 C 
BRANCH  66  67
ATOM     67  C19 UNL     1       7.659   4.969   0.827 -0.12 +0.00    +0.121 C 
BRANCH  67  68
ATOM     68  N3  UNL     1       8.803   4.459   0.077 +0.00 -0.00    -0.372 N 
ATOM     69  C20 UNL     1       8.690   4.216  -1.172 -0.12 +0.00    +0.121 C 
ATOM     70  N4  UNL     1       7.628   4.329  -1.998 -0.01 -0.00    -0.279 NA
ATOM     71  N5  UNL     1       9.752   3.743  -1.859 -0.08 -0.00    -0.279 NA
ATOM     72  H35 UNL     1       7.887   4.668  -2.916 -0.13 +0.00    +0.126 HD
ATOM     73  H36 UNL     1       6.851   4.859  -1.624 -0.46 +0.00    +0.126 HD
ATOM     74  H37 UNL     1      10.492   3.498  -1.207 +0.03 +0.00    +0.126 HD
ATOM     75  H38 UNL     1       9.507   2.944  -2.430 +0.05 +0.00    +0.126 HD
ATOM     76  H3  UNL     1       9.691   4.296   0.550 -0.13 +0.00    +0.161 HD
ENDBRANCH  67  68
ENDBRANCH  66  67
ENDBRANCH  65  66
ENDBRANCH  64  65
ENDBRANCH  62  64
ENDBRANCH  50  60
BRANCH  52  77
ATOM     77  C14 UNL     1      11.451   9.118   7.301 +0.84 +0.00    +0.417 C 
ATOM     78  F1  UNL     1      10.108   9.232   7.479 +1.18 -0.00    -0.166 F 
ATOM     79  F2  UNL     1      11.954  10.381   7.363 +3.22 -0.00    -0.166 F 
ATOM     80  F3  UNL     1      11.922   8.476   8.407 +1.84 -0.00    -0.166 F 
ENDBRANCH  52  77
ENDBRANCH  46  48
ENDBRANCH   6  44
TORSDOF 26
TER
