USER    Run = 1
USER    DPF = ligand_282_receptor.dpf
USER  
USER    Estimated Free Energy of Binding    =   -9.33 kcal/mol  [=(1)+(2)+(3)-(4)]
USER    Estimated Inhibition Constant, Ki   =  145.13 nM (nanomolar)  [Temperature = 298.15 K]
USER    
USER    (1) Final Intermolecular Energy     =  -10.52 kcal/mol
USER        vdW + Hbond + desolv Energy     =  -10.52 kcal/mol
USER        Electrostatic Energy            =   +0.00 kcal/mol
USER    (2) Final Total Internal Energy     =   -2.87 kcal/mol
USER    (3) Torsional Free Energy           =   +1.19 kcal/mol
USER    (4) Unbound System's Energy  [=(2)] =   -2.87 kcal/mol
USER    
USER    
USER    NEWDPF move ligand_282.pdbqt
USER    NEWDPF about 0.000000 0.000000 0.000000
USER    NEWDPF tran0 18.734320 8.687886 2.826424
USER    NEWDPF quaternion0 -0.782670 -0.008175 -0.148451 -0.604419
USER    NEWDPF axisangle0 -0.982432 -0.010262 -0.186340 -105.625879
USER    NEWDPF quat0 -0.982432 -0.010262 -0.186340 -105.625879
USER    NEWDPF dihe0 -98.43 -145.41 93.04 56.62 127.88 -180.00 -68.31 -132.13 78.21 138.82 -91.92 -41.27 94.42 119.64 145.43 
USER  keepresnum = 1 
USER  
REMARK  15 active torsions:
REMARK  status: ('A' for Active; 'I' for Inactive)
REMARK    1  A    between atoms: C3_3  and  N5_40 
REMARK    2  A    between atoms: C5_5  and  C6_6 
REMARK       I    between atoms: C6_6  and  N2_36 
REMARK    3  A    between atoms: C7_7  and  C8_8 
REMARK    4  A    between atoms: C7_7  and  N2_36 
REMARK    5  A    between atoms: C8_8  and  C9_9 
REMARK    6  A    between atoms: C9_9  and  N4_39 
REMARK    7  A    between atoms: C10_10  and  C11_11 
REMARK       I    between atoms: C10_10  and  N5_40 
REMARK    8  A    between atoms: C13_13  and  N7_42 
REMARK    9  A    between atoms: C16_16  and  C17_17 
REMARK       I    between atoms: C16_16  and  N7_42 
REMARK   10  A    between atoms: C19_19  and  N9_44 
REMARK   11  A    between atoms: C22_22  and  C23_23 
REMARK       I    between atoms: C22_22  and  N9_44 
REMARK   12  A    between atoms: C25_25  and  N11_46 
REMARK   13  A    between atoms: C28_28  and  C29_29 
REMARK       I    between atoms: C28_28  and  N11_46 
REMARK   14  A    between atoms: C31_31  and  N13_48 
REMARK   15  A    between atoms: C34_34  and  N14_50 
USER                              x       y       z     vdW  Elec       q    Type
USER                           _______ _______ _______ _____ _____    ______ ____
ROOT
ATOM      1  C16 UNL     1      19.134   8.526   3.655 -0.27 +0.00    +0.273 C 
ATOM      2  N7  UNL     1      19.885   9.059   2.621 -0.01 -0.00    -0.320 N 
ATOM      3  O3  UNL     1      19.618   8.091   4.697 +0.24 -0.00    -0.266 OA
ATOM      4  H36 UNL     1      19.406   9.415   1.809 +0.12 +0.00    +0.169 HD
ENDROOT
BRANCH   1   5
ATOM      5  C17 UNL     1      17.691   8.527   3.413 -0.47 +0.00    +0.105 A 
ATOM      6  C18 UNL     1      16.700   7.684   3.909 -0.40 +0.00    +0.066 A 
ATOM      7  C19 UNL     1      15.448   8.085   3.388 -0.43 +0.00    +0.053 A 
ATOM      8  C20 UNL     1      15.685   9.172   2.584 -0.29 +0.00    +0.120 A 
ATOM      9  N8  UNL     1      17.032   9.438   2.604 -0.19 -0.00    -0.354 N 
ATOM     10  C21 UNL     1      17.648  10.521   1.863 -0.42 +0.00    +0.156 C 
BRANCH   7  11
ATOM     11  N9  UNL     1      14.184   7.561   3.583 -0.26 -0.00    -0.320 N 
ATOM     12  C22 UNL     1      13.266   8.007   4.517 -0.29 +0.00    +0.273 C 
ATOM     13  O4  UNL     1      13.470   8.946   5.283 -0.03 -0.00    -0.266 OA
ATOM     14  H37 UNL     1      13.923   6.803   2.971 -0.38 +0.00    +0.169 HD
BRANCH  12  15
ATOM     15  C23 UNL     1      12.003   7.268   4.518 -0.32 +0.00    +0.105 A 
ATOM     16  C24 UNL     1      10.881   7.413   3.708 -0.35 +0.00    +0.066 A 
ATOM     17  C25 UNL     1       9.906   6.463   4.092 -0.26 +0.00    +0.053 A 
ATOM     18  C26 UNL     1      10.447   5.740   5.127 -0.22 +0.00    +0.120 A 
ATOM     19  N10 UNL     1      11.706   6.223   5.379 -0.10 -0.00    -0.354 N 
ATOM     20  C27 UNL     1      12.576   5.701   6.415 -0.38 +0.00    +0.156 C 
BRANCH  17  21
ATOM     21  N11 UNL     1       8.642   6.223   3.590 -0.09 -0.00    -0.320 N 
ATOM     22  C28 UNL     1       8.361   5.575   2.401 -0.10 +0.00    +0.273 C 
ATOM     23  O5  UNL     1       9.217   5.163   1.623 -0.11 -0.00    -0.266 OA
ATOM     24  H38 UNL     1       7.874   6.598   4.126 +0.08 +0.00    +0.169 HD
BRANCH  22  25
ATOM     25  C29 UNL     1       6.933   5.432   2.127 -0.12 +0.00    +0.105 A 
ATOM     26  C30 UNL     1       6.038   4.456   2.555 -0.10 +0.00    +0.066 A 
ATOM     27  C31 UNL     1       4.779   4.755   2.008 -0.14 +0.00    +0.050 A 
ATOM     28  C32 UNL     1       4.883   5.907   1.278 -0.03 +0.00    +0.120 A 
ATOM     29  N12 UNL     1       6.196   6.302   1.333 -0.12 -0.00    -0.354 N 
ATOM     30  C33 UNL     1       6.705   7.490   0.677 -0.38 +0.00    +0.156 C 
BRANCH  27  31
ATOM     31  N13 UNL     1       3.621   4.020   2.247 -0.04 -0.00    -0.356 N 
ATOM     32  C34 UNL     1       3.888   2.835   2.678 -0.09 +0.00    +0.146 C 
ATOM     33  H13 UNL     1       2.676   4.376   2.098 +0.02 +0.00    +0.166 HD
BRANCH  32  34
ATOM     34  N14 UNL     1       2.923   1.922   2.975 -0.03 -0.00    -0.299 NA
ATOM     35  H39 UNL     1       2.856   1.728   3.968 +0.05 +0.00    +0.124 HD
ATOM     36  H40 UNL     1       2.883   1.096   2.390 +0.04 +0.00    +0.124 HD
ENDBRANCH  32  34
ENDBRANCH  27  31
ENDBRANCH  22  25
ENDBRANCH  17  21
ENDBRANCH  12  15
ENDBRANCH   7  11
ENDBRANCH   1   5
BRANCH   2  37
ATOM     37  C13 UNL     1      21.262   9.167   2.605 -0.27 +0.00    +0.053 A 
ATOM     38  C12 UNL     1      22.217   8.617   1.720 +0.02 +0.00    +0.066 A 
ATOM     39  C11 UNL     1      23.490   9.019   2.116 -0.38 +0.00    +0.105 A 
ATOM     40  N6  UNL     1      23.298   9.798   3.245 -0.23 -0.00    -0.354 N 
ATOM     41  C14 UNL     1      21.960   9.894   3.538 -0.19 +0.00    +0.120 A 
ATOM     42  C15 UNL     1      24.339  10.446   4.020 -0.03 +0.00    +0.156 C 
BRANCH  39  43
ATOM     43  C10 UNL     1      24.796   8.717   1.531 -0.29 +0.00    +0.273 C 
ATOM     44  N5  UNL     1      24.880   7.468   0.942 -0.16 -0.00    -0.320 N 
ATOM     45  H35 UNL     1      24.058   6.883   0.930 +0.13 +0.00    +0.169 HD
ATOM     46  O2  UNL     1      25.724   9.523   1.562 -0.32 -0.00    -0.266 OA
BRANCH  44  47
ATOM     47  C3  UNL     1      26.002   6.944   0.329 -0.34 +0.00    +0.053 A 
ATOM     48  C2  UNL     1      26.831   7.693  -0.470 -0.18 +0.00    +0.120 A 
ATOM     49  N1  UNL     1      27.842   6.882  -0.921 -0.13 -0.00    -0.354 N 
ATOM     50  C1  UNL     1      28.904   7.333  -1.798 -0.24 +0.00    +0.156 C 
ATOM     51  C5  UNL     1      27.691   5.599  -0.422 -0.22 +0.00    +0.104 A 
ATOM     52  C4  UNL     1      26.537   5.635   0.357 -0.30 +0.00    +0.066 A 
BRANCH  51  53
ATOM     53  C6  UNL     1      28.591   4.492  -0.704 -0.14 +0.00    +0.268 C 
ATOM     54  N2  UNL     1      29.933   4.779  -0.615 -0.00 -0.00    -0.355 N 
ATOM     55  H31 UNL     1      30.218   5.730  -0.431 +0.06 +0.00    +0.162 HD
ATOM     56  O1  UNL     1      28.205   3.365  -1.018 -0.24 -0.00    -0.266 OA
BRANCH  54  57
ATOM     57  C7  UNL     1      30.976   3.798  -0.857 -0.07 +0.00    +0.130 C 
BRANCH  57  58
ATOM     58  C8  UNL     1      31.295   2.948   0.364 -0.20 +0.00    +0.089 C 
BRANCH  58  59
ATOM     59  C9  UNL     1      30.128   2.304   1.096 -0.44 +0.00    +0.049 C 
ATOM     60  N3  UNL     1      30.145   2.346   2.388 +0.30 -0.00    -0.393 N 
ATOM     61  H32 UNL     1      29.288   1.928   2.757 -0.29 +0.00    +0.157 HD
ATOM     62  H3  UNL     1      30.899   2.738   2.954 -0.31 +0.00    +0.157 HD
BRANCH  59  63
ATOM     63  N4  UNL     1      29.075   1.745   0.440 -0.03 -0.00    -0.293 NA
ATOM     64  H33 UNL     1      28.172   2.216   0.565 +0.02 +0.00    +0.125 HD
ATOM     65  H34 UNL     1      29.220   1.557  -0.544 -0.19 +0.00    +0.125 HD
ENDBRANCH  59  63
ENDBRANCH  58  59
ENDBRANCH  57  58
ENDBRANCH  54  57
ENDBRANCH  51  53
ENDBRANCH  44  47
ENDBRANCH  39  43
ENDBRANCH   2  37
TORSDOF 15
TER
