USER    Run = 1
USER    DPF = ligand_144_receptor.dpf
USER  
USER    Estimated Free Energy of Binding    =  +4.12e+004 kcal/mol  [=(1)+(2)+(3)-(4)]
USER    
USER    (1) Final Intermolecular Energy     =  +4.12e+004 kcal/mol
USER        vdW + Hbond + desolv Energy     =  +4.12e+004 kcal/mol
USER        Electrostatic Energy            =   +0.00 kcal/mol
USER    (2) Final Total Internal Energy     = +182.75 kcal/mol
USER    (3) Torsional Free Energy           =   +1.19 kcal/mol
USER    (4) Unbound System's Energy  [=(2)] = +182.75 kcal/mol
USER    
USER    
USER    NEWDPF move ligand_144.pdbqt
USER    NEWDPF about 0.000000 0.000000 0.000000
USER    NEWDPF tran0 15.047439 6.175398 3.012991
USER    NEWDPF quaternion0 -0.343116 -0.248852 -0.033889 0.905094
USER    NEWDPF axisangle0 -0.806931 -0.585243 -0.079698 50.328051
USER    NEWDPF quat0 -0.806931 -0.585243 -0.079698 50.328051
USER    NEWDPF dihe0 -104.06 106.90 -142.61 -41.32 -104.03 109.35 28.65 -81.32 -106.73 -74.62 177.31 69.10 -79.45 -160.55 -109.09 179.55 180.00 
USER  keepresnum = 1 
USER  
REMARK  17 active torsions:
REMARK  status: ('A' for Active; 'I' for Inactive)
REMARK    1  A    between atoms: C2_2  and  C3_3 
REMARK    2  A    between atoms: C5_5  and  C67_67 
REMARK    3  A    between atoms: C11_11  and  C57_57 
REMARK    4  A    between atoms: C13_13  and  C54_54 
REMARK    5  A    between atoms: C15_15  and  C51_51 
REMARK    6  A    between atoms: C17_17  and  C50_50 
REMARK    7  A    between atoms: C30_30  and  C46_46 
REMARK    8  A    between atoms: C32_32  and  C39_39 
REMARK    9  A    between atoms: C39_39  and  C40_40 
REMARK   10  A    between atoms: C43_43  and  O12_86 
REMARK       I    between atoms: C50_50  and  N12_104 
REMARK   11  A    between atoms: C51_51  and  O14_88 
REMARK   12  A    between atoms: C57_57  and  C58_58 
REMARK   13  A    between atoms: C61_61  and  O18_92 
REMARK   14  A    between atoms: C67_67  and  C68_68 
REMARK   15  A    between atoms: O14_88  and  P1_110 
REMARK   16  A    between atoms: O16_90  and  P1_110 
REMARK   17  A    between atoms: O17_91  and  P1_110 
USER                              x       y       z     vdW  Elec       q    Type
USER                           _______ _______ _______ _____ _____    ______ ____
ROOT
ATOM      1  C3  UNL     1      19.103   2.494  -1.038+19.47 +0.00    +0.176 C 
ATOM      2  C4  UNL     1      17.776   2.352  -1.817+99.99 +0.00    +0.241 C 
ATOM      3  C5  UNL     1      15.523   1.342  -1.808+99.99 +0.00    +0.181 C 
ATOM      4  C6  UNL     1      14.608   2.296  -1.018+99.99 +0.00    +0.241 C 
ATOM      5  C7  UNL     1      12.335   3.333  -0.969+43.91 +0.00    +0.106 C 
ATOM      6  C8  UNL     1      11.721   2.295   0.021+28.23 +0.00    +0.246 C 
ATOM      7  C9  UNL     1      10.434   1.982   2.133+29.38 +0.00    +0.172 C 
ATOM      8  C10 UNL     1       9.549   2.921   2.984 +0.48 +0.00    +0.240 C 
ATOM      9  C11 UNL     1       8.372   3.248   5.134 -0.16 +0.00    +0.180 C 
ATOM     10  C12 UNL     1       9.518   4.017   5.824 -0.30 +0.00    +0.241 C 
ATOM     11  C13 UNL     1      11.089   5.945   5.420 -0.29 +0.00    +0.113 C 
ATOM     12  C14 UNL     1      11.221   6.298   6.945 -0.15 +0.00    +0.246 C 
ATOM     13  C15 UNL     1      12.849   6.811   8.797 -0.31 +0.00    +0.205 C 
ATOM     14  C16 UNL     1      12.609   8.309   9.099 +3.09 +0.00    +0.243 C 
ATOM     15  C17 UNL     1      10.914  10.140   9.020+27.50 +0.00    +0.185 C 
ATOM     16  C18 UNL     1      11.341  10.911   7.760+99.99 +0.00    +0.109 C 
ATOM     17  C19 UNL     1      12.833  12.958   9.009 +6.99 +0.00    +0.112 C 
ATOM     18  C20 UNL     1      14.157  12.511   8.435 +9.53 -0.00    -0.048 A 
ATOM     19  C21 UNL     1      15.049  11.784   9.237+61.46 +0.00    +0.008 A 
ATOM     20  C22 UNL     1      16.297  11.401   8.748+99.99 +0.00    +0.001 A 
ATOM     21  C23 UNL     1      16.679  11.747   7.453 +4.19 +0.00    +0.008 A 
ATOM     22  C24 UNL     1      15.819  12.491   6.635+33.07 -0.00    -0.048 A 
ATOM     23  C25 UNL     1      14.567  12.876   7.142+15.44 +0.00    +0.015 A 
ATOM     24  C26 UNL     1      16.255  12.921   5.258+99.99 +0.00    +0.112 C 
ATOM     25  C27 UNL     1      15.654  10.447   4.012+16.32 +0.00    +0.083 C 
ATOM     26  C28 UNL     1      17.127  10.075   3.903 -0.42 +0.00    +0.113 C 
ATOM     27  C29 UNL     1      17.734  10.512   2.590 -0.36 +0.00    +0.219 C 
ATOM     28  C30 UNL     1      19.482  11.940   1.555 -0.57 +0.00    +0.184 C 
ATOM     29  C31 UNL     1      20.715  11.024   1.349 -0.19 +0.00    +0.241 C 
ATOM     30  C32 UNL     1      21.419   8.730   0.695 +8.02 +0.00    +0.181 C 
ATOM     31  C33 UNL     1      20.820   7.603  -0.173+99.99 +0.00    +0.243 C 
ATOM     32  C34 UNL     1      23.120   6.877  -0.989 -0.51 +0.00    +0.127 C 
ATOM     33  C35 UNL     1      23.370   6.299  -2.372 +3.26 +0.00    +0.022 C 
ATOM     34  C36 UNL     1      22.364   5.160  -2.457+99.99 +0.00    +0.037 C 
ATOM     35  C37 UNL     1      21.152   5.671  -1.665+99.90 +0.00    +0.179 C 
ATOM     36  C38 UNL     1      20.551   4.506  -0.854+99.99 +0.00    +0.241 C 
ATOM     37  C53 UNL     1      12.240   5.039   4.927 +0.32 +0.00    +0.049 C 
ATOM     38  C64 UNL     1      11.546   1.356   2.973 +5.41 +0.00    +0.042 C 
ATOM     39  C65 UNL     1      12.807   4.629  -0.290+10.92 +0.00    +0.048 C 
ATOM     40  C66 UNL     1      11.248   3.688  -1.997 +9.39 +0.00    +0.048 C 
ATOM     41  O1  UNL     1      17.572   2.952  -2.874+99.99 -0.00    -0.271 OA
ATOM     42  O2  UNL     1      14.888   2.657   0.125+91.61 -0.00    -0.271 OA
ATOM     43  O3  UNL     1      11.822   1.080  -0.168 -0.17 -0.00    -0.271 OA
ATOM     44  O4  UNL     1       9.348   4.097   2.664 -0.11 -0.00    -0.271 OA
ATOM     45  O5  UNL     1      10.182   3.538   6.740 -0.34 -0.00    -0.271 OA
ATOM     46  O6  UNL     1      10.256   6.511   7.684 +3.40 -0.00    -0.271 OA
ATOM     47  O7  UNL     1      13.498   9.067   9.483 +0.21 -0.00    -0.271 OA
ATOM     48  O8  UNL     1      17.349  10.091   1.504 -0.27 -0.00    -0.274 OA
ATOM     49  O9  UNL     1      21.876  11.372   1.552+23.81 -0.00    -0.271 OA
ATOM     50  O10 UNL     1      19.598   7.473  -0.286+99.99 -0.00    -0.271 OA
ATOM     51  O11 UNL     1      20.770   4.326   0.341+99.99 -0.00    -0.271 OA
ATOM     52  N1  UNL     1      16.874   1.476  -1.258+99.99 -0.00    -0.346 N 
ATOM     53  N2  UNL     1      13.438   2.645  -1.671+99.99 -0.00    -0.342 N 
ATOM     54  N3  UNL     1      10.993   2.807   1.063+99.99 -0.00    -0.346 N 
ATOM     55  N4  UNL     1       9.020   2.385   4.137 +6.22 -0.00    -0.346 N 
ATOM     56  N5  UNL     1       9.817   5.218   5.199 -0.08 -0.00    -0.341 N 
ATOM     57  N6  UNL     1      12.495   6.507   7.406 -0.15 -0.00    -0.343 N 
ATOM     58  N7  UNL     1      11.307   8.725   8.938+99.99 -0.00    -0.345 N 
ATOM     59  N8  UNL     1      18.757  11.424   2.722 -0.13 -0.00    -0.347 N 
ATOM     60  N9  UNL     1      20.402   9.748   0.942 -0.00 -0.00    -0.346 N 
ATOM     61  N10 UNL     1      21.685   6.741  -0.818 +4.26 -0.00    -0.337 N 
ATOM     62  N11 UNL     1      19.822   3.622  -1.622+99.99 -0.00    -0.346 N 
ATOM     63  S1  UNL     1      11.388  12.735   7.924+99.99 -0.00    -0.162 SA
ATOM     64  S2  UNL     1      15.263  12.233   3.898+99.99 -0.00    -0.164 SA
ATOM     65  H89 UNL     1      16.941   1.345  -0.254 +2.21 +0.00    +0.163 HD
ATOM     66  H90 UNL     1      13.146   2.016  -2.408+13.90 +0.00    +0.163 HD
ATOM     67  H91 UNL     1      10.826   3.806   1.138+99.99 +0.00    +0.163 HD
ATOM     68  H92 UNL     1       9.383   1.504   4.476+99.99 +0.00    +0.163 HD
ATOM     69  H93 UNL     1       9.454   5.276   4.246 +0.09 +0.00    +0.163 HD
ATOM     70  H94 UNL     1      13.273   6.508   6.755 +0.13 +0.00    +0.163 HD
ATOM     71  H95 UNL     1      10.670   8.079   8.465+99.99 +0.00    +0.163 HD
ATOM     72  H96 UNL     1      19.243  11.454   3.607 +0.34 +0.00    +0.163 HD
ATOM     73  H97 UNL     1      19.423   9.467   0.847 +0.13 +0.00    +0.163 HD
ATOM     74  H98 UNL     1      19.474   3.933  -2.526 +0.37 +0.00    +0.163 HD
ENDROOT
BRANCH   3  75
ATOM     75  C67 UNL     1      14.984  -0.089  -1.655 +3.73 +0.00    +0.075 C 
BRANCH  75  76
ATOM     76  C68 UNL     1      13.760  -0.174  -0.792+59.08 -0.00    -0.026 A 
ATOM     77  C69 UNL     1      13.718  -0.030   0.585+12.65 +0.00    +0.097 A 
ATOM     78  N13 UNL     1      12.419  -0.178   0.995+99.99 -0.00    -0.351 N 
ATOM     79  C70 UNL     1      11.615  -0.411  -0.084+15.10 +0.00    +0.115 A 
ATOM     80  HA1 UNL     1      12.076  -0.126   1.943 +0.38 +0.00    +0.166 HD
ATOM     81  C71 UNL     1      12.415  -0.413  -1.222 +5.89 +0.00    +0.016 A 
ATOM     82  N14 UNL     1      10.285  -0.598  -0.012 -0.04 -0.00    -0.352 N 
ATOM     83  C72 UNL     1      11.773  -0.637  -2.453 -0.46 +0.00    +0.017 A 
ATOM     84  C73 UNL     1      10.393  -0.840  -2.437 -0.36 +0.00    +0.018 A 
ATOM     85  C74 UNL     1       9.719  -0.811  -1.222 -0.25 +0.00    +0.089 A 
ATOM     86  H14 UNL     1       9.759  -0.580   0.862 +0.07 +0.00    +0.166 HD
ENDBRANCH  75  76
ENDBRANCH   3  75
BRANCH   1  87
ATOM     87  C2  UNL     1      19.902   1.187  -1.144+99.99 +0.00    +0.030 C 
ATOM     88  C1  UNL     1      20.688   1.057  -2.440+27.97 +0.00    +0.007 C 
ENDBRANCH   1  87
BRANCH   9  89
ATOM     89  C57 UNL     1       7.588   2.440   6.177+99.99 +0.00    +0.073 C 
BRANCH  89  90
ATOM     90  C58 UNL     1       6.356   3.163   6.673 +7.27 -0.00    -0.056 A 
ATOM     91  C59 UNL     1       5.083   2.799   6.208 +1.18 +0.00    +0.010 A 
ATOM     92  C60 UNL     1       3.942   3.455   6.677 -0.33 +0.00    +0.037 A 
ATOM     93  C61 UNL     1       4.075   4.476   7.611 -0.09 +0.00    +0.065 A 
ATOM     94  C62 UNL     1       5.327   4.852   8.081 +4.94 +0.00    +0.037 A 
ATOM     95  C63 UNL     1       6.467   4.197   7.612 +0.33 +0.00    +0.010 A 
BRANCH  93  96
ATOM     96  O18 UNL     1       2.989   5.142   8.096 +0.08 -0.00    -0.361 OA
ATOM     97  H88 UNL     1       2.830   4.849   9.009 +0.28 +0.00    +0.217 HD
ENDBRANCH  93  96
ENDBRANCH  89  90
ENDBRANCH   9  89
BRANCH  30  98
ATOM     98  C39 UNL     1      22.085   8.205   1.982 +1.78 +0.00    +0.073 C 
BRANCH  98  99
ATOM     99  C40 UNL     1      23.558   8.514   2.150 -0.41 -0.00    -0.056 A 
ATOM    100  C41 UNL     1      24.085   8.819   3.411 -0.52 +0.00    +0.010 A 
ATOM    101  C42 UNL     1      25.449   9.066   3.566 -0.47 +0.00    +0.037 A 
ATOM    102  C43 UNL     1      26.291   9.002   2.462 -0.50 +0.00    +0.065 A 
ATOM    103  C44 UNL     1      25.792   8.709   1.199 -0.37 +0.00    +0.037 A 
ATOM    104  C45 UNL     1      24.424   8.466   1.046 -0.43 +0.00    +0.010 A 
BRANCH 102 105
ATOM    105  O12 UNL     1      27.615   9.261   2.668 +0.38 -0.00    -0.361 OA
ATOM    106  H85 UNL     1      27.872   8.946   3.562 -0.33 +0.00    +0.217 HD
ENDBRANCH 102 105
ENDBRANCH  98  99
ENDBRANCH  30  98
BRANCH  11 107
ATOM    107  C54 UNL     1      11.036   7.269   4.571 -0.42 +0.00    +0.015 C 
ATOM    108  C55 UNL     1      12.130   8.278   4.964 -0.25 +0.00    +0.012 C 
ATOM    109  C56 UNL     1      11.084   7.077   3.049 -0.41 +0.00    +0.012 C 
ENDBRANCH  11 107
BRANCH  28 110
ATOM    110  C46 UNL     1      19.781  13.467   1.690 +4.45 -0.00    -0.022 C 
ATOM    111  C47 UNL     1      19.845  14.127   0.298+73.88 +0.00    +0.017 C 
ATOM    112  C48 UNL     1      21.084  13.769   2.454+99.99 +0.00    +0.017 C 
ATOM    113  C49 UNL     1      18.618  14.138   2.460 +2.14 +0.00    +0.017 C 
ENDBRANCH  28 110
BRANCH  13 114
ATOM    114  C51 UNL     1      14.325   6.413   9.072 -0.12 +0.00    +0.161 C 
ATOM    115  C52 UNL     1      14.872   7.201  10.261+41.90 +0.00    +0.042 C 
BRANCH 114 116
ATOM    116  O14 UNL     1      14.408   5.035   9.439+30.86 -0.00    -0.289 OA
BRANCH 116 117
ATOM    117  P1  UNL     1      13.190   4.039   9.167 +6.94 +0.00    +0.391 P 
ATOM    118  O15 UNL     1      11.808   4.588   9.299 +0.15 -0.00    -0.632 OA
BRANCH 117 119
ATOM    119  O16 UNL     1      13.515   3.501   7.700 -0.25 -0.00    -0.307 OA
ATOM    120  H86 UNL     1      12.714   3.549   7.132 +0.17 +0.00    +0.222 HD
ENDBRANCH 117 119
BRANCH 117 121
ATOM    121  O17 UNL     1      13.490   2.745  10.038 +3.72 -0.00    -0.307 OA
ATOM    122  H87 UNL     1      14.394   2.751  10.427 +1.14 +0.00    +0.222 HD
ENDBRANCH 117 121
ENDBRANCH 116 117
ENDBRANCH 114 116
ENDBRANCH  13 114
BRANCH  15 123
ATOM    123  C50 UNL     1       9.390  10.184   9.255+73.09 +0.00    +0.239 C 
ATOM    124  O13 UNL     1       8.821  10.869  10.097+23.69 -0.00    -0.271 OA
ATOM    125  N12 UNL     1       8.669   9.269   8.530+17.84 -0.00    -0.368 N 
ATOM    126  H99 UNL     1       7.662   9.327   8.606 -0.13 +0.00    +0.159 HD
ATOM    127  HA0 UNL     1       9.061   8.872   7.687 +1.38 +0.00    +0.159 HD
ENDBRANCH  15 123
TORSDOF 17
TER
