USER    Run = 1
USER    DPF = ligand_249_receptor.dpf
USER  
USER    Estimated Free Energy of Binding    =   -6.18 kcal/mol  [=(1)+(2)+(3)-(4)]
USER    Estimated Inhibition Constant, Ki   =   29.57 uM (micromolar)  [Temperature = 298.15 K]
USER    
USER    (1) Final Intermolecular Energy     =   -7.37 kcal/mol
USER        vdW + Hbond + desolv Energy     =   -7.37 kcal/mol
USER        Electrostatic Energy            =   +0.00 kcal/mol
USER    (2) Final Total Internal Energy     =  +43.81 kcal/mol
USER    (3) Torsional Free Energy           =   +1.19 kcal/mol
USER    (4) Unbound System's Energy  [=(2)] =  +43.81 kcal/mol
USER    
USER    
USER    NEWDPF move ligand_249.pdbqt
USER    NEWDPF about 0.000000 0.000000 0.000000
USER    NEWDPF tran0 9.964367 9.930720 -4.012146
USER    NEWDPF quaternion0 0.160392 0.127476 -0.343094 -0.916685
USER    NEWDPF axisangle0 0.401371 0.319000 -0.858569 -47.107761
USER    NEWDPF quat0 0.401371 0.319000 -0.858569 -47.107761
USER    NEWDPF dihe0 -58.21 -55.38 -180.00 -16.54 -179.44 -60.93 83.46 -26.04 163.58 -143.18 111.96 -1.74 -11.92 168.06 59.60 178.30 -29.62 138.04 159.66 
USER  keepresnum = 1 
USER  
REMARK  19 active torsions:
REMARK  status: ('A' for Active; 'I' for Inactive)
REMARK    1  A    between atoms: C3_3  and  C11_11 
REMARK    2  A    between atoms: C7_7  and  O3_40 
REMARK    3  A    between atoms: C11_11  and  C12_12 
REMARK       I    between atoms: C12_12  and  N1_49 
REMARK    4  A    between atoms: C16_16  and  C18_18 
REMARK       I    between atoms: C18_18  and  N2_50 
REMARK    5  A    between atoms: C19_19  and  C20_20 
REMARK    6  A    between atoms: C19_19  and  N2_50 
REMARK    7  A    between atoms: C20_20  and  C21_21 
REMARK    8  A    between atoms: C21_21  and  C22_22 
REMARK    9  A    between atoms: C22_22  and  C23_23 
REMARK   10  A    between atoms: C23_23  and  C24_24 
REMARK       I    between atoms: C24_24  and  N3_51 
REMARK   11  A    between atoms: C25_25  and  C26_26 
REMARK   12  A    between atoms: C25_25  and  C33_33 
REMARK   13  A    between atoms: C25_25  and  N3_51 
REMARK   14  A    between atoms: C26_26  and  C27_27 
REMARK       I    between atoms: C33_33  and  N4_52 
REMARK   15  A    between atoms: C34_34  and  C35_35 
REMARK   16  A    between atoms: C34_34  and  N4_52 
REMARK       I    between atoms: C35_35  and  N5_53 
REMARK   17  A    between atoms: C36_36  and  C37_37 
REMARK   18  A    between atoms: C36_36  and  N5_53 
REMARK   19  A    between atoms: C37_37  and  O10_47 
USER                              x       y       z     vdW  Elec       q    Type
USER                           _______ _______ _______ _____ _____    ______ ____
ROOT
ATOM      1  C20 UNL     1       9.261   5.052  -1.532 -0.20 +0.00    +0.020 C 
ENDROOT
BRANCH   1   2
ATOM      2  C19 UNL     1       8.950   6.460  -1.027 -0.24 +0.00    +0.122 C 
BRANCH   2   3
ATOM      3  N2  UNL     1       8.420   6.415   0.321 -0.07 -0.00    -0.361 N 
ATOM      4  C18 UNL     1       7.064   6.458   0.571 -0.22 +0.00    +0.223 C 
ATOM      5  O5  UNL     1       6.220   6.440  -0.315 -0.04 -0.00    -0.273 OA
ATOM      6  H41 UNL     1       9.042   6.772   1.047 +0.09 +0.00    +0.162 HD
BRANCH   4   7
ATOM      7  C16 UNL     1       6.731   6.511   2.058 -0.28 +0.00    +0.096 C 
ATOM      8  C15 UNL     1       5.349   7.124   2.331 -0.20 +0.00    +0.017 C 
ATOM      9  C14 UNL     1       4.736   6.660   3.655 +0.23 +0.00    +0.021 C 
ATOM     10  C13 UNL     1       5.788   6.186   4.650 +0.75 +0.00    +0.126 C 
ATOM     11  N1  UNL     1       6.584   5.091   4.100 -0.05 -0.00    -0.351 N 
ATOM     12  C12 UNL     1       7.022   4.088   4.961 -0.21 +0.00    +0.224 C 
ATOM     13  C17 UNL     1       6.836   5.105   2.655 -0.13 +0.00    +0.139 C 
ATOM     14  O4  UNL     1       6.885   4.178   6.183 -0.28 -0.00    -0.273 OA
BRANCH  12  15
ATOM     15  C11 UNL     1       7.727   2.884   4.330 -0.02 +0.00    +0.148 C 
BRANCH  15  16
ATOM     16  C3  UNL     1       6.982   2.423   3.096 -0.27 +0.00    +0.033 A 
ATOM     17  C2  UNL     1       7.453   2.458   1.830 -0.21 -0.00    -0.036 A 
ATOM     18  C1  UNL     1       8.842   2.917   1.466 -0.15 +0.00    +0.050 C 
ATOM     19  C10 UNL     1       6.583   1.993   0.733 -0.16 +0.00    +0.006 A 
ATOM     20  C5  UNL     1       5.326   1.476   1.040 -0.13 +0.00    +0.093 A 
ATOM     21  C9  UNL     1       6.944   2.038  -0.622 -0.09 +0.00    +0.041 A 
ATOM     22  C6  UNL     1       4.443   1.001   0.065 -0.11 +0.00    +0.076 A 
ATOM     23  O2  UNL     1       4.867   1.412   2.365 -0.17 -0.00    -0.274 OA
ATOM     24  C7  UNL     1       4.827   1.049  -1.269 -0.11 +0.00    +0.090 A 
ATOM     25  C8  UNL     1       6.075   1.569  -1.616 -0.09 +0.00    +0.068 A 
ATOM     26 CL1  UNL     1       6.589   1.653  -3.262 -0.18 -0.00    -0.081 Cl
ATOM     27  C4  UNL     1       5.627   1.894   3.415 -0.16 +0.00    +0.295 A 
ATOM     28  O1  UNL     1       5.187   1.894   4.561 -0.11 -0.00    -0.259 OA
BRANCH  24  29
ATOM     29  O3  UNL     1       3.981   0.590  -2.240 -0.07 -0.00    -0.359 OA
ATOM     30  H39 UNL     1       3.777  -0.346  -2.078 +0.03 +0.00    +0.217 HD
ENDBRANCH  24  29
ENDBRANCH  15  16
ENDBRANCH  12  15
ENDBRANCH   4   7
ENDBRANCH   2   3
ENDBRANCH   1   2
BRANCH   1  31
ATOM     31  C21 UNL     1      10.429   4.429  -0.767 -0.22 +0.00    +0.002 C 
BRANCH  31  32
ATOM     32  C22 UNL     1      11.176   5.410   0.146 -0.13 +0.00    +0.009 C 
BRANCH  32  33
ATOM     33  C23 UNL     1      10.382   6.650   0.569 -0.29 +0.00    +0.103 C 
BRANCH  33  34
ATOM     34  C24 UNL     1      10.003   6.639   2.039 -0.23 +0.00    +0.218 C 
ATOM     35  O6  UNL     1       8.983   7.165   2.473 -0.24 -0.00    -0.274 OA
ATOM     36  N3  UNL     1      10.900   5.968   2.844 -0.10 -0.00    -0.347 N 
ATOM     37  H42 UNL     1      11.838   5.849   2.477 -0.02 +0.00    +0.163 HD
BRANCH  36  38
ATOM     38  C25 UNL     1      10.803   6.072   4.300 -0.24 +0.00    +0.180 C 
BRANCH  38  39
ATOM     39  C26 UNL     1      11.209   4.749   4.964 -0.33 +0.00    +0.073 C 
BRANCH  39  40
ATOM     40  C27 UNL     1      12.261   4.902   6.038 -0.40 -0.00    -0.056 A 
ATOM     41  C28 UNL     1      13.562   4.418   5.836 +0.18 +0.00    +0.007 A 
ATOM     42  C29 UNL     1      14.531   4.560   6.830 +2.04 +0.00    +0.001 A 
ATOM     43  C30 UNL     1      14.213   5.193   8.030 -0.59 +0.00    +0.000 A 
ATOM     44  C31 UNL     1      12.925   5.679   8.239 -0.55 +0.00    +0.001 A 
ATOM     45  C32 UNL     1      11.952   5.534   7.250 -0.41 +0.00    +0.007 A 
ENDBRANCH  39  40
ENDBRANCH  38  39
BRANCH  38  46
ATOM     46  C33 UNL     1      11.750   7.207   4.754 -0.27 +0.00    +0.241 C 
ATOM     47  O7  UNL     1      11.401   8.100   5.528 -0.29 -0.00    -0.271 OA
ATOM     48  N4  UNL     1      13.001   7.180   4.178 -0.20 -0.00    -0.351 N 
ATOM     49  H43 UNL     1      13.321   6.302   3.781 +0.05 +0.00    +0.163 HD
BRANCH  48  50
ATOM     50  C34 UNL     1      14.020   8.146   4.554 -0.36 +0.00    +0.225 C 
BRANCH  50  51
ATOM     51  C35 UNL     1      15.395   7.829   3.962 -0.39 +0.00    +0.235 C 
ATOM     52  O8  UNL     1      16.169   7.042   4.501 -0.64 -0.00    -0.272 OA
ATOM     53  N5  UNL     1      15.714   8.540   2.823 -0.23 -0.00    -0.350 N 
ATOM     54  H44 UNL     1      15.223   9.421   2.700 -0.09 +0.00    +0.163 HD
BRANCH  53  55
ATOM     55  C36 UNL     1      17.049   8.452   2.252 -0.41 +0.00    +0.232 C 
BRANCH  55  56
ATOM     56  C37 UNL     1      17.883   9.674   2.604 -0.41 +0.00    +0.158 C 
ATOM     57  O9  UNL     1      19.081   9.825   2.420 +0.02 -0.00    -0.649 OA
BRANCH  56  58
ATOM     58  O10 UNL     1      17.161  10.631   3.220 +0.12 -0.00    -0.775 OA
ATOM     59  H40 UNL     1      17.638  10.799   4.060 +0.12 +0.00    +0.167 HD
ENDBRANCH  56  58
ENDBRANCH  55  56
ENDBRANCH  53  55
ENDBRANCH  50  51
ENDBRANCH  48  50
ENDBRANCH  38  46
ENDBRANCH  36  38
ENDBRANCH  33  34
ENDBRANCH  32  33
ENDBRANCH  31  32
ENDBRANCH   1  31
TORSDOF 19
TER
