USER    Run = 1
USER    DPF = ligand_235_receptor.dpf
USER  
USER    Estimated Free Energy of Binding    =  -12.22 kcal/mol  [=(1)+(2)+(3)-(4)]
USER    Estimated Inhibition Constant, Ki   =    1.11 nM (nanomolar)  [Temperature = 298.15 K]
USER    
USER    (1) Final Intermolecular Energy     =  -13.41 kcal/mol
USER        vdW + Hbond + desolv Energy     =  -13.41 kcal/mol
USER        Electrostatic Energy            =   +0.00 kcal/mol
USER    (2) Final Total Internal Energy     =   -1.51 kcal/mol
USER    (3) Torsional Free Energy           =   +1.19 kcal/mol
USER    (4) Unbound System's Energy  [=(2)] =   -1.51 kcal/mol
USER    
USER    
USER    NEWDPF move ligand_235.pdbqt
USER    NEWDPF about 0.000000 0.000000 0.000000
USER    NEWDPF tran0 15.084019 7.494362 0.190523
USER    NEWDPF quaternion0 0.499731 -0.068615 -0.284777 0.815146
USER    NEWDPF axisangle0 0.862713 -0.118453 -0.491625 70.796382
USER    NEWDPF quat0 0.862713 -0.118453 -0.491625 70.796382
USER    NEWDPF dihe0 -117.70 130.32 159.49 78.26 146.43 -76.06 71.63 170.93 -88.35 180.00 -124.81 -178.21 -66.60 -31.75 
USER  keepresnum = 1 
USER  
REMARK  14 active torsions:
REMARK  status: ('A' for Active; 'I' for Inactive)
REMARK    1  A    between atoms: C2_2  and  C3_3 
REMARK    2  A    between atoms: C3_3  and  C4_4 
REMARK    3  A    between atoms: C4_4  and  C5_5 
REMARK    4  A    between atoms: C5_5  and  N1_37 
REMARK       I    between atoms: C6_6  and  N1_37 
REMARK       I    between atoms: C6_6  and  N2_38 
REMARK    5  A    between atoms: C7_7  and  N2_38 
REMARK    6  A    between atoms: C9_9  and  O5_46 
REMARK    7  A    between atoms: C10_10  and  O2_43 
REMARK    8  A    between atoms: C13_13  and  O2_43 
REMARK    9  A    between atoms: C16_16  and  N3_39 
REMARK   10  A    between atoms: C19_19  and  C20_20 
REMARK       I    between atoms: C19_19  and  N3_39 
REMARK   11  A    between atoms: C23_23  and  N4_40 
REMARK   12  A    between atoms: C28_28  and  C30_30 
REMARK   13  A    between atoms: C30_30  and  N5_41 
REMARK   14  A    between atoms: C33_33  and  O4_45 
USER                              x       y       z     vdW  Elec       q    Type
USER                           _______ _______ _______ _____ _____    ______ ____
ROOT
ATOM      1  C13 UNL     1      18.447  10.240   2.581 -0.39 +0.00    +0.076 A 
ATOM      2  C14 UNL     1      18.298   8.932   2.120 -0.19 +0.00    +0.039 A 
ATOM      3  C15 UNL     1      17.106   8.243   2.365 -0.51 +0.00    +0.032 A 
ATOM      4  C16 UNL     1      16.062   8.845   3.081 -0.48 +0.00    +0.035 A 
ATOM      5  C17 UNL     1      16.232  10.150   3.552 -0.14 +0.00    +0.032 A 
ATOM      6  C18 UNL     1      17.426  10.841   3.313 -0.40 +0.00    +0.039 A 
ENDROOT
BRANCH   4   7
ATOM      7  N3  UNL     1      14.892   8.083   3.275 -0.26 -0.00    -0.323 N 
ATOM      8  C19 UNL     1      14.059   8.088   4.379 -0.34 +0.00    +0.256 C 
ATOM      9  O3  UNL     1      14.216   8.716   5.419 -0.17 -0.00    -0.267 OA
ATOM     10  H42 UNL     1      14.686   7.411   2.547 -0.48 +0.00    +0.169 HD
BRANCH   8  11
ATOM     11  C20 UNL     1      12.872   7.193   4.271 -0.42 +0.00    +0.032 A 
ATOM     12  C21 UNL     1      12.361   6.507   5.377 -0.37 +0.00    +0.019 A 
ATOM     13  C22 UNL     1      11.244   5.674   5.234 -0.30 +0.00    +0.031 A 
ATOM     14  C23 UNL     1      10.629   5.506   3.982 -0.24 +0.00    +0.038 A 
ATOM     15  C24 UNL     1      11.162   6.184   2.875 -0.27 +0.00    +0.031 A 
ATOM     16  C25 UNL     1      12.278   7.016   3.019 -0.39 +0.00    +0.019 A 
BRANCH  14  17
ATOM     17  N4  UNL     1       9.485   4.657   3.836 -0.09 -0.00    -0.332 N 
ATOM     18  C26 UNL     1       8.855   3.941   4.838 -0.29 +0.00    +0.097 A 
ATOM     19  C27 UNL     1       7.792   3.247   4.304 -0.25 +0.00    +0.028 A 
ATOM     20  C28 UNL     1       7.743   3.529   2.917 -0.22 -0.00    -0.013 A 
ATOM     21  C29 UNL     1       8.799   4.389   2.664 -0.14 +0.00    +0.105 A 
BRANCH  20  22
ATOM     22  C30 UNL     1       6.758   2.991   1.924 -0.07 +0.00    +0.312 C 
BRANCH  22  23
ATOM     23  N5  UNL     1       7.460   2.399   0.777 -0.13 +0.00    +0.092 N 
ATOM     24  C31 UNL     1       6.785   1.210   0.249 -0.06 +0.00    +0.275 C 
ATOM     25  C32 UNL     1       7.689   0.484  -0.752 -0.19 +0.00    +0.062 C 
ATOM     26  C33 UNL     1       8.590   1.437  -1.537 -0.12 +0.00    +0.121 C 
ATOM     27  C34 UNL     1       7.949   2.812  -1.657 -0.12 +0.00    +0.062 C 
ATOM     28  C35 UNL     1       7.659   3.409  -0.277 -0.03 +0.00    +0.275 C 
BRANCH  26  29
ATOM     29  O4  UNL     1       8.830   0.894  -2.833 -0.63 -0.00    -0.395 OA
ATOM     30  H43 UNL     1       7.988   0.921  -3.318 +0.06 +0.00    +0.210 HD
ENDBRANCH  26  29
ENDBRANCH  22  23
ENDBRANCH  20  22
ENDBRANCH  14  17
ENDBRANCH   8  11
ENDBRANCH   4   7
BRANCH   1  31
ATOM     31  O2  UNL     1      19.603  10.964   2.402 -0.28 -0.00    -0.308 OA
BRANCH  31  32
ATOM     32  C10 UNL     1      20.737  10.240   2.095 -0.37 +0.00    +0.109 A 
ATOM     33  C9  UNL     1      21.319  10.393   0.829 -0.34 +0.00    +0.104 A 
ATOM     34  C8  UNL     1      22.447   9.626   0.506 -0.43 +0.00    +0.069 A 
ATOM     35  C7  UNL     1      22.983   8.715   1.426 -0.42 +0.00    +0.039 A 
ATOM     36  C12 UNL     1      22.370   8.559   2.674 -0.30 +0.00    +0.032 A 
ATOM     37  C11 UNL     1      21.247   9.315   3.009 -0.36 +0.00    +0.042 A 
BRANCH  33  38
ATOM     38  O5  UNL     1      20.727  11.309  -0.000 -0.37 -0.00    -0.353 OA
ATOM     39  C36 UNL     1      19.318  11.219  -0.172 -0.29 +0.00    +0.210 C 
ENDBRANCH  33  38
BRANCH  35  40
ATOM     40  N2  UNL     1      24.109   7.909   1.159 -0.19 -0.00    -0.309 N 
ATOM     41  C6  UNL     1      24.159   6.752   0.412 -0.29 +0.00    +0.320 C 
ATOM     42  N1  UNL     1      25.426   6.198   0.472 -0.15 -0.00    -0.343 N 
ATOM     43  O1  UNL     1      23.249   6.256  -0.237 -0.42 -0.00    -0.247 OA
ATOM     44  H40 UNL     1      25.872   6.307   1.371 +0.12 +0.00    +0.164 HD
ATOM     45  H41 UNL     1      25.009   8.295   1.401 +0.14 +0.00    +0.170 HD
BRANCH  42  46
ATOM     46  C5  UNL     1      25.682   4.941  -0.206 -0.44 +0.00    +0.124 C 
BRANCH  46  47
ATOM     47  C4  UNL     1      26.220   5.151  -1.620 -0.44 +0.00    +0.020 C 
BRANCH  47  48
ATOM     48  C3  UNL     1      27.717   5.475  -1.630 -0.31 +0.00    +0.001 C 
BRANCH  48  49
ATOM     49  C2  UNL     1      28.010   6.976  -1.682 -0.32 -0.00    -0.004 C 
ATOM     50  C1  UNL     1      28.216   7.602  -0.311 -0.36 +0.00    +0.005 C 
ENDBRANCH  48  49
ENDBRANCH  47  48
ENDBRANCH  46  47
ENDBRANCH  42  46
ENDBRANCH  35  40
ENDBRANCH  31  32
ENDBRANCH   1  31
TORSDOF 14
TER
