USER    Run = 1
USER    DPF = ligand_287_receptor.dpf
USER  
USER    Estimated Free Energy of Binding    =   -9.64 kcal/mol  [=(1)+(2)+(3)-(4)]
USER    Estimated Inhibition Constant, Ki   =   86.35 nM (nanomolar)  [Temperature = 298.15 K]
USER    
USER    (1) Final Intermolecular Energy     =  -10.83 kcal/mol
USER        vdW + Hbond + desolv Energy     =  -10.83 kcal/mol
USER        Electrostatic Energy            =   +0.00 kcal/mol
USER    (2) Final Total Internal Energy     =   -0.42 kcal/mol
USER    (3) Torsional Free Energy           =   +1.19 kcal/mol
USER    (4) Unbound System's Energy  [=(2)] =   -0.42 kcal/mol
USER    
USER    
USER    NEWDPF move ligand_287.pdbqt
USER    NEWDPF about 0.000000 0.000000 0.000000
USER    NEWDPF tran0 14.517145 7.455536 4.817580
USER    NEWDPF quaternion0 0.421126 -0.786466 0.046628 0.449389
USER    NEWDPF axisangle0 0.471408 -0.880369 0.052195 126.591065
USER    NEWDPF quat0 0.471408 -0.880369 0.052195 126.591065
USER    NEWDPF dihe0 135.42 -121.78 4.88 -112.57 -178.88 -47.61 -148.84 -43.55 -166.25 -45.81 145.98 -152.54 -179.96 
USER  keepresnum = 1 
USER  
REMARK  13 active torsions:
REMARK  status: ('A' for Active; 'I' for Inactive)
REMARK    1  A    between atoms: C5_5  and  C6_6 
REMARK    2  A    between atoms: C5_5  and  N2_29 
REMARK    3  A    between atoms: C6_6  and  O1_36 
REMARK    4  A    between atoms: C7_7  and  C8_8 
REMARK    5  A    between atoms: C7_7  and  N1_28 
REMARK    6  A    between atoms: C10_10  and  N4_32 
REMARK       I    between atoms: C14_14  and  N4_32 
REMARK       I    between atoms: C14_14  and  N5_33 
REMARK    7  A    between atoms: C15_15  and  N5_33 
REMARK    8  A    between atoms: C18_18  and  S1_42 
REMARK    9  A    between atoms: C21_21  and  C22_22 
REMARK   10  A    between atoms: C21_21  and  N6_34 
REMARK   11  A    between atoms: C25_25  and  S2_43 
REMARK   12  A    between atoms: N6_34  and  S1_42 
REMARK   13  A    between atoms: N7_35  and  S2_43 
USER                              x       y       z     vdW  Elec       q    Type
USER                           _______ _______ _______ _____ _____    ______ ____
ROOT
ATOM      1  C14 UNL     1      14.019   8.035   3.410 -0.23 +0.00    +0.325 C 
ATOM      2  N4  UNL     1      15.049   8.280   2.513 -0.08 -0.00    -0.309 N 
ATOM      3  N5  UNL     1      13.044   7.269   2.796 -0.23 -0.00    -0.309 N 
ATOM      4  O2  UNL     1      13.998   8.408   4.576 -0.33 -0.00    -0.247 OA
ATOM      5  H28 UNL     1      15.156   7.563   1.797 -0.41 +0.00    +0.170 HD
ATOM      6  H29 UNL     1      13.116   7.222   1.788 -0.10 +0.00    +0.170 HD
ENDROOT
BRANCH   3   7
ATOM      7  C15 UNL     1      12.038   6.496   3.401 -0.29 +0.00    +0.036 A 
ATOM      8  C16 UNL     1      11.061   5.799   2.686 -0.08 +0.00    +0.031 A 
ATOM      9  C17 UNL     1       9.961   5.246   3.348 -0.20 +0.00    +0.027 A 
ATOM     10  C18 UNL     1       9.851   5.390   4.732 -0.23 +0.00    +0.079 A 
ATOM     11  C19 UNL     1      10.876   5.983   5.472 -0.29 +0.00    +0.027 A 
ATOM     12  C20 UNL     1      11.966   6.539   4.800 -0.33 +0.00    +0.031 A 
BRANCH  10  13
ATOM     13  S1  UNL     1       8.352   4.931   5.560 -0.30 +0.00    +0.259 S 
ATOM     14  O3  UNL     1       8.684   4.438   6.878 -0.33 -0.00    -0.201 OA
ATOM     15  O4  UNL     1       7.396   5.995   5.354 -0.06 -0.00    -0.201 OA
BRANCH  13  16
ATOM     16  N6  UNL     1       7.813   3.631   4.658 -0.15 -0.00    -0.311 N 
ATOM     17  H30 UNL     1       6.806   3.523   4.588 -0.01 +0.00    +0.172 HD
BRANCH  16  18
ATOM     18  C21 UNL     1       8.702   2.896   3.767 +0.06 +0.00    +0.170 C 
BRANCH  18  19
ATOM     19  C22 UNL     1       8.054   2.551   2.443 -0.23 -0.00    -0.040 A 
ATOM     20  C23 UNL     1       8.830   2.372   1.287 -0.20 +0.00    +0.010 A 
ATOM     21  C24 UNL     1       8.243   1.938   0.095 -0.16 +0.00    +0.025 A 
ATOM     22  C25 UNL     1       6.871   1.687   0.055 -0.12 +0.00    +0.074 A 
ATOM     23  C26 UNL     1       6.074   1.905   1.181 -0.17 +0.00    +0.025 A 
ATOM     24  C27 UNL     1       6.666   2.348   2.366 -0.24 +0.00    +0.010 A 
BRANCH  22  25
ATOM     25  S2  UNL     1       6.132   1.020  -1.410 -0.14 +0.00    +0.239 S 
ATOM     26  O5  UNL     1       6.536   1.832  -2.538 -0.07 -0.00    -0.206 OA
ATOM     27  O6  UNL     1       4.743   0.733  -1.135 -0.14 -0.00    -0.206 OA
BRANCH  25  28
ATOM     28  N7  UNL     1       6.875  -0.482  -1.547 -0.33 -0.00    -0.225 NA
ATOM     29  H31 UNL     1       7.589  -0.562  -0.818 +0.05 +0.00    +0.136 HD
ATOM     30  H32 UNL     1       7.277  -0.657  -2.468 +0.05 +0.00    +0.136 HD
ENDBRANCH  25  28
ENDBRANCH  22  25
ENDBRANCH  18  19
ENDBRANCH  16  18
ENDBRANCH  13  16
ENDBRANCH  10  13
ENDBRANCH   3   7
BRANCH   2  31
ATOM     31  C10 UNL     1      16.154   9.126   2.721 -0.46 +0.00    +0.037 A 
ATOM     32  C9  UNL     1      17.079   9.430   1.722 -0.45 +0.00    +0.044 A 
ATOM     33  C8  UNL     1      18.145  10.294   1.997 -0.46 +0.00    +0.009 A 
ATOM     34  C13 UNL     1      18.311  10.835   3.275 -0.02 +0.00    +0.015 A 
ATOM     35  C12 UNL     1      17.404  10.511   4.281 -0.06 +0.00    +0.003 A 
ATOM     36  C11 UNL     1      16.332   9.657   4.005 -0.32 +0.00    +0.029 A 
BRANCH  33  37
ATOM     37  C7  UNL     1      19.130  10.625   0.924 -0.50 +0.00    +0.107 C 
ATOM     38  N3  UNL     1      18.719  11.293  -0.112 -0.16 -0.00    -0.385 N 
ATOM     39  H27 UNL     1      17.729  11.536  -0.018 +0.13 +0.00    +0.157 HD
ATOM     40  H3  UNL     1      19.303  11.542  -0.910 +0.12 +0.00    +0.157 HD
BRANCH  37  41
ATOM     41  N1  UNL     1      20.456  10.242   1.027 -0.18 -0.00    -0.364 N 
ATOM     42  C2  UNL     1      21.168  10.085   2.306 -0.37 +0.00    +0.154 C 
ATOM     43  C1  UNL     1      22.208   8.945   2.239 -0.23 +0.00    +0.292 C 
ATOM     44  N2  UNL     1      23.230   9.073   1.175 -0.39 +0.00    +0.093 N 
ATOM     45  C4  UNL     1      22.697   9.851   0.030 -0.28 +0.00    +0.292 C 
ATOM     46  C3  UNL     1      21.169   9.737  -0.159 +0.04 +0.00    +0.154 C 
BRANCH  44  47
ATOM     47  C5  UNL     1      24.478   9.656   1.692 -0.25 +0.00    +0.298 C 
BRANCH  47  48
ATOM     48  C6  UNL     1      25.144   8.825   2.800 -0.49 +0.00    +0.194 C 
BRANCH  48  49
ATOM     49  O1  UNL     1      26.174   9.579   3.436 -0.81 -0.00    -0.399 OA
ATOM     50  H33 UNL     1      26.782   8.941   3.848 -0.40 +0.00    +0.209 HD
ENDBRANCH  48  49
ENDBRANCH  47  48
ENDBRANCH  44  47
ENDBRANCH  37  41
ENDBRANCH  33  37
ENDBRANCH   2  31
TORSDOF 13
TER
