USER    Run = 1
USER    DPF = ligand_47_receptor.dpf
USER  
USER    Estimated Free Energy of Binding    =  +63.15 kcal/mol  [=(1)+(2)+(3)-(4)]
USER    
USER    (1) Final Intermolecular Energy     =  +61.96 kcal/mol
USER        vdW + Hbond + desolv Energy     =  +61.96 kcal/mol
USER        Electrostatic Energy            =   +0.00 kcal/mol
USER    (2) Final Total Internal Energy     =   -4.36 kcal/mol
USER    (3) Torsional Free Energy           =   +1.19 kcal/mol
USER    (4) Unbound System's Energy  [=(2)] =   -4.36 kcal/mol
USER    
USER    
USER    NEWDPF move ligand_47.pdbqt
USER    NEWDPF about 0.000000 0.000000 0.000000
USER    NEWDPF tran0 16.910593 9.360171 0.872528
USER    NEWDPF quaternion0 -0.204153 0.965793 -0.100930 0.124011
USER    NEWDPF axisangle0 -0.205741 0.973306 -0.101715 165.752766
USER    NEWDPF quat0 -0.205741 0.973306 -0.101715 165.752766
USER    NEWDPF dihe0 -81.77 18.89 102.76 -28.58 -116.84 -36.71 38.85 180.00 180.00 6.18 -89.58 -113.34 -180.00 21.48 76.53 -15.36 -114.23 -174.54 5.21 -66.73 
USER  keepresnum = 1 
USER  
REMARK  20 active torsions:
REMARK  status: ('A' for Active; 'I' for Inactive)
REMARK    1  A    between atoms: C3_3  and  N1_46 
REMARK    2  A    between atoms: C7_7  and  N2_47 
REMARK    3  A    between atoms: C10_10  and  N5_52 
REMARK    4  A    between atoms: C11_11  and  N5_52 
REMARK    5  A    between atoms: C14_14  and  N6_53 
REMARK    6  A    between atoms: C17_17  and  N6_53 
REMARK    7  A    between atoms: C18_18  and  N14_66 
REMARK    8  A    between atoms: C22_22  and  N10_60 
REMARK    9  A    between atoms: C24_24  and  N11_61 
REMARK   10  A    between atoms: C25_25  and  O2_75 
REMARK   11  A    between atoms: C26_26  and  O1_74 
REMARK   12  A    between atoms: C28_28  and  C29_29 
REMARK   13  A    between atoms: C29_29  and  O3_76 
REMARK   14  A    between atoms: C32_32  and  N15_67 
REMARK   15  A    between atoms: C37_37  and  N17_70 
REMARK   16  A    between atoms: C39_39  and  N18_71 
REMARK   17  A    between atoms: C40_40  and  O5_78 
REMARK   18  A    between atoms: C41_41  and  O4_77 
REMARK   19  A    between atoms: C44_44  and  C45_45 
REMARK   20  A    between atoms: C45_45  and  O6_79 
USER                              x       y       z     vdW  Elec       q    Type
USER                           _______ _______ _______ _____ _____    ______ ____
ROOT
ATOM      1  C11 UNL     1      16.208   9.711   2.695 -0.47 +0.00    +0.083 C 
ATOM      2  C12 UNL     1      17.288   8.692   3.088 -0.59 +0.00    +0.026 C 
ATOM      3  C13 UNL     1      17.943   8.019   1.878 +1.59 +0.00    +0.022 C 
ATOM      4  C14 UNL     1      18.125   8.970   0.684 +0.57 +0.00    +0.062 C 
ATOM      5  C15 UNL     1      16.777   9.563   0.228 -0.53 +0.00    +0.022 C 
ATOM      6  C16 UNL     1      15.666   9.491   1.281 +0.83 +0.00    +0.026 C 
ENDROOT
BRANCH   4   7
ATOM      7  N6  UNL     1      19.036  10.047   1.070 -0.23 -0.00    -0.272 NA
ATOM      8  H59 UNL     1      18.809  10.540   1.931 +0.11 +0.00    +0.129 HD
BRANCH   7   9
ATOM      9  C17 UNL     1      20.406   9.777   1.130 +0.03 +0.00    +0.127 A 
ATOM     10  C20 UNL     1      21.343  10.304   2.037 -0.16 +0.00    +0.117 A 
ATOM     11  C19 UNL     1      22.645   9.863   1.891 -0.01 +0.00    +0.155 A 
ATOM     12  N9  UNL     1      21.258  11.212   3.076 +1.07 -0.00    -0.346 N 
ATOM     13  N8  UNL     1      23.113   8.997   0.985 -0.32 -0.00    -0.174 N 
ATOM     14  N10 UNL     1      23.358  10.505   2.866 +1.32 -0.00    -0.319 N 
ATOM     15  C18 UNL     1      22.161   8.525   0.164 +0.87 +0.00    +0.683 A 
ATOM     16  H8  UNL     1      24.094   8.723   0.925 +0.15 +0.00    +0.186 HD
ATOM     17  N7  UNL     1      20.860   8.894   0.203 +4.78 -0.00    -0.179 N 
ATOM     18  H7  UNL     1      20.209   8.503  -0.478 +0.64 +0.00    +0.185 HD
ATOM     19  C21 UNL     1      22.478  11.293   3.561 +7.27 +0.00    +0.185 A 
ATOM     20  H9  UNL     1      20.429  11.711   3.398 +0.79 +0.00    +0.167 HD
BRANCH  15  21
ATOM     21  N14 UNL     1      22.541   7.623  -0.803 -0.29 -0.00    -0.215 N 
ATOM     22  C30 UNL     1      23.395   8.057  -1.899 +5.51 +0.00    +0.143 C 
ATOM     23  C31 UNL     1      24.308   6.857  -2.174 -0.50 +0.00    +0.058 C 
ATOM     24  C32 UNL     1      23.479   5.659  -1.692 +3.37 +0.00    +0.241 C 
ATOM     25  C33 UNL     1      22.818   6.242  -0.417 -0.08 +0.00    +0.177 C 
BRANCH  24  26
ATOM     26  N15 UNL     1      24.166   4.361  -1.564 +0.90 +0.00    +0.086 N 
ATOM     27  C34 UNL     1      25.325   4.276  -2.454 +0.13 +0.00    +0.310 C 
ATOM     28  C35 UNL     1      24.550   4.001  -0.201 -0.23 +0.00    +0.310 C 
ENDBRANCH  24  26
ENDBRANCH  15  21
BRANCH  14  29
ATOM     29  C22 UNL     1      24.774  10.397   3.135 -0.51 +0.00    +0.126 C 
ATOM     30  C23 UNL     1      25.665  10.436   1.885 +0.34 +0.00    +0.060 C 
ATOM     31  C24 UNL     1      26.943   9.664   2.260 +3.38 +0.00    +0.160 C 
ATOM     32  C25 UNL     1      26.717   9.111   3.675 +2.37 +0.00    +0.175 C 
ATOM     33  C26 UNL     1      25.193   9.111   3.853 -0.00 +0.00    +0.172 C 
BRANCH  31  34
ATOM     34  N11 UNL     1      27.263   8.639   1.285 -0.27 -0.00    -0.227 N 
ATOM     35  N12 UNL     1      26.494   7.546   1.113 -0.19 -0.00    -0.293 N 
ATOM     36  C27 UNL     1      27.156   6.899   0.149 -0.25 +0.00    +0.137 A 
ATOM     37  H12 UNL     1      25.633   7.282   1.592 +0.14 +0.00    +0.187 HD
ATOM     38  C28 UNL     1      28.299   7.629  -0.221 -0.28 +0.00    +0.067 A 
ATOM     39  N13 UNL     1      28.369   8.748   0.519 -0.11 -0.00    -0.284 N 
ATOM     40  H13 UNL     1      29.074   9.486   0.506 +0.13 +0.00    +0.188 HD
BRANCH  38  41
ATOM     41  C29 UNL     1      29.328   7.311  -1.247 -0.18 +0.00    +0.224 C 
BRANCH  41  42
ATOM     42  O3  UNL     1      28.808   6.480  -2.285 -0.36 -0.00    -0.395 OA
ATOM     43  H62 UNL     1      29.226   5.608  -2.134 +0.08 +0.00    +0.209 HD
ENDBRANCH  41  42
ENDBRANCH  38  41
ENDBRANCH  31  34
BRANCH  32  44
ATOM     44  O2  UNL     1      27.274  10.018   4.652+15.36 -0.00    -0.391 OA
ATOM     45  H61 UNL     1      28.234  10.068   4.483 +0.35 +0.00    +0.210 HD
ENDBRANCH  32  44
BRANCH  33  46
ATOM     46  O1  UNL     1      24.856   9.153   5.240 +3.42 -0.00    -0.391 OA
ATOM     47  H60 UNL     1      24.174   9.850   5.331 +0.12 +0.00    +0.210 HD
ENDBRANCH  33  46
ENDBRANCH  14  29
ENDBRANCH   7   9
ENDBRANCH   4   7
BRANCH   1  48
ATOM     48  N5  UNL     1      15.154   9.809   3.700 +0.81 -0.00    -0.369 N 
ATOM     49  H58 UNL     1      14.669  10.705   3.730 +2.32 +0.00    +0.161 HD
BRANCH  48  50
ATOM     50  C10 UNL     1      14.245   8.773   3.901 -0.12 +0.00    +0.148 A 
ATOM     51  C9  UNL     1      14.479   7.782   4.869 -0.35 +0.00    +0.123 A 
ATOM     52  C8  UNL     1      13.524   6.792   4.986 -0.34 +0.00    +0.155 A 
ATOM     53  N16 UNL     1      15.502   7.586   5.772 +5.45 -0.00    -0.346 N 
ATOM     54  N3  UNL     1      12.394   6.670   4.277 -0.28 -0.00    -0.174 N 
ATOM     55  N17 UNL     1      13.980   5.970   5.985 -0.26 -0.00    -0.319 N 
ATOM     56  C7  UNL     1      12.234   7.653   3.371 +0.07 +0.00    +0.683 A 
ATOM     57  H3  UNL     1      11.725   5.912   4.410 +0.11 +0.00    +0.186 HD
ATOM     58  N4  UNL     1      13.103   8.670   3.172 +0.19 -0.00    -0.174 N 
ATOM     59  H4  UNL     1      12.898   9.372   2.460 -0.23 +0.00    +0.186 HD
ATOM     60  C36 UNL     1      15.185   6.473   6.402 +1.15 +0.00    +0.185 A 
ATOM     61  H16 UNL     1      16.324   8.173   5.920 +4.89 +0.00    +0.167 HD
BRANCH  56  62
ATOM     62  N2  UNL     1      11.111   7.618   2.584 -0.16 -0.00    -0.215 N 
ATOM     63  C5  UNL     1       9.794   7.586   3.190 -0.36 +0.00    +0.143 C 
ATOM     64  C4  UNL     1       8.873   7.321   2.002 -0.37 +0.00    +0.058 C 
ATOM     65  C3  UNL     1       9.704   6.359   1.139 -0.18 +0.00    +0.241 C 
ATOM     66  C6  UNL     1      11.126   6.975   1.279 -0.20 +0.00    +0.177 C 
BRANCH  65  67
ATOM     67  N1  UNL     1       9.214   6.203  -0.246 -0.20 +0.00    +0.086 N 
ATOM     68  C1  UNL     1       7.990   6.979  -0.467 -0.18 +0.00    +0.310 C 
ATOM     69  C2  UNL     1      10.226   6.600  -1.229 -0.16 +0.00    +0.310 C 
ENDBRANCH  65  67
ENDBRANCH  56  62
BRANCH  55  70
ATOM     70  C37 UNL     1      13.323   4.752   6.421 -0.48 +0.00    +0.126 C 
ATOM     71  C38 UNL     1      12.405   4.133   5.351 +0.33 +0.00    +0.058 C 
ATOM     72  C39 UNL     1      11.297   3.378   6.107 -0.31 +0.00    +0.141 C 
ATOM     73  C40 UNL     1      11.574   3.598   7.598 -0.32 +0.00    +0.173 C 
ATOM     74  C41 UNL     1      12.399   4.889   7.639 -0.44 +0.00    +0.172 C 
BRANCH  72  75
ATOM     75  N18 UNL     1       9.972   3.832   5.719 -0.23 -0.00    -0.296 N 
ATOM     76  C42 UNL     1       9.400   5.032   6.030 -0.26 +0.00    +0.113 A 
ATOM     77  C43 UNL     1       8.148   5.014   5.463 -0.27 +0.00    +0.047 A 
ATOM     78  C44 UNL     1       8.050   3.756   4.829 -0.28 +0.00    +0.050 A 
ATOM     79  N19 UNL     1       9.171   3.032   4.989 -0.18 -0.00    -0.300 N 
ATOM     80  H19 UNL     1       9.370   2.095   4.638 -0.28 +0.00    +0.187 HD
BRANCH  78  81
ATOM     81  C45 UNL     1       6.899   3.199   4.053 -0.15 +0.00    +0.222 C 
BRANCH  81  82
ATOM     82  O6  UNL     1       7.308   2.151   3.173 -0.18 -0.00    -0.395 OA
ATOM     83  H65 UNL     1       8.277   2.103   3.295 -0.32 +0.00    +0.209 HD
ENDBRANCH  81  82
ENDBRANCH  78  81
ENDBRANCH  72  75
BRANCH  73  84
ATOM     84  O5  UNL     1      12.389   2.529   8.115 +3.38 -0.00    -0.391 OA
ATOM     85  H64 UNL     1      12.801   2.852   8.938 +0.18 +0.00    +0.210 HD
ENDBRANCH  73  84
BRANCH  74  86
ATOM     86  O4  UNL     1      13.130   4.974   8.860 -0.05 -0.00    -0.391 OA
ATOM     87  H63 UNL     1      12.887   4.176   9.375 +0.20 +0.00    +0.210 HD
ENDBRANCH  74  86
ENDBRANCH  55  70
ENDBRANCH  48  50
ENDBRANCH   1  48
TORSDOF 20
TER
