USER    Run = 1
USER    DPF = ligand_39_receptor.dpf
USER  
USER    Estimated Free Energy of Binding    = +437.74 kcal/mol  [=(1)+(2)+(3)-(4)]
USER    
USER    (1) Final Intermolecular Energy     = +436.54 kcal/mol
USER        vdW + Hbond + desolv Energy     = +436.54 kcal/mol
USER        Electrostatic Energy            =   +0.00 kcal/mol
USER    (2) Final Total Internal Energy     =  +16.07 kcal/mol
USER    (3) Torsional Free Energy           =   +1.19 kcal/mol
USER    (4) Unbound System's Energy  [=(2)] =  +16.07 kcal/mol
USER    
USER    
USER    NEWDPF move ligand_39.pdbqt
USER    NEWDPF about 0.000000 0.000000 0.000000
USER    NEWDPF tran0 13.627935 7.021862 2.096659
USER    NEWDPF quaternion0 0.043027 -0.858123 -0.474391 -0.191643
USER    NEWDPF axisangle0 0.043840 -0.874329 -0.483350 -157.902670
USER    NEWDPF quat0 0.043840 -0.874329 -0.483350 -157.902670
USER    NEWDPF dihe0 5.58 62.96 71.91 142.48 -84.59 -179.09 15.92 41.27 0.47 -108.38 132.75 180.00 161.60 173.73 -31.68 147.59 -30.24 -78.30 -86.65 67.27 -54.04 -0.78 180.00 -73.63 98.24 180.00 -32.92 -85.47 167.17 -41.69 -56.89 104.89 
USER  keepresnum = 1 
USER  
REMARK  32 active torsions:
REMARK  status: ('A' for Active; 'I' for Inactive)
REMARK    1  A    between atoms: C3_3  and  N9_53 
REMARK    2  A    between atoms: C4_4  and  S1_79 
REMARK    3  A    between atoms: C5_5  and  N1_43 
REMARK    4  A    between atoms: C7_7  and  C8_8 
REMARK       I    between atoms: C7_7  and  N1_43 
REMARK    5  A    between atoms: C8_8  and  C9_9 
REMARK    6  A    between atoms: C8_8  and  N5_48 
REMARK    7  A    between atoms: C9_9  and  C10_10 
REMARK    8  A    between atoms: C10_10  and  C11_11 
REMARK    9  A    between atoms: C11_11  and  N2_44 
REMARK       I    between atoms: C12_12  and  N2_44 
REMARK       I    between atoms: C12_12  and  N3_46 
REMARK       I    between atoms: C12_12  and  N4_47 
REMARK   10  A    between atoms: C13_13  and  C14_14 
REMARK   11  A    between atoms: C13_13  and  S1_79 
REMARK   12  A    between atoms: C14_14  and  N6_49 
REMARK       I    between atoms: C15_15  and  N6_49 
REMARK       I    between atoms: C15_15  and  N7_51 
REMARK       I    between atoms: C15_15  and  N8_52 
REMARK   13  A    between atoms: C16_16  and  C17_17 
REMARK       I    between atoms: C16_16  and  N9_53 
REMARK   14  A    between atoms: C19_19  and  C27_27 
REMARK   15  A    between atoms: C20_20  and  O4_76 
REMARK   16  A    between atoms: C22_22  and  O3_75 
REMARK   17  A    between atoms: C23_23  and  N10_54 
REMARK   18  A    between atoms: C23_23  and  O3_75 
REMARK       I    between atoms: C24_24  and  N10_54 
REMARK       I    between atoms: C24_24  and  N11_56 
REMARK       I    between atoms: C24_24  and  N12_57 
REMARK   19  A    between atoms: C25_25  and  N13_58 
REMARK   20  A    between atoms: C25_25  and  O4_76 
REMARK       I    between atoms: C26_26  and  N14_60 
REMARK       I    between atoms: C26_26  and  N15_61 
REMARK       I    between atoms: C27_27  and  N16_62 
REMARK   21  A    between atoms: C28_28  and  N16_62 
REMARK   22  A    between atoms: C29_29  and  S2_80 
REMARK   23  A    between atoms: C30_30  and  N17_63 
REMARK   24  A    between atoms: C34_34  and  C35_35 
REMARK       I    between atoms: C34_34  and  N17_63 
REMARK   25  A    between atoms: C35_35  and  C36_36 
REMARK   26  A    between atoms: C35_35  and  N21_68 
REMARK   27  A    between atoms: C36_36  and  C37_37 
REMARK   28  A    between atoms: C37_37  and  C38_38 
REMARK   29  A    between atoms: C38_38  and  N18_64 
REMARK       I    between atoms: C39_39  and  N19_66 
REMARK       I    between atoms: C39_39  and  N20_67 
REMARK   30  A    between atoms: C40_40  and  C41_41 
REMARK   31  A    between atoms: C40_40  and  S2_80 
REMARK   32  A    between atoms: C41_41  and  N22_69 
REMARK       I    between atoms: C42_42  and  N23_71 
REMARK       I    between atoms: C42_42  and  N24_72 
USER                              x       y       z     vdW  Elec       q    Type
USER                           _______ _______ _______ _____ _____    ______ ____
ROOT
ATOM      1  C17 UNL     1      14.269   7.185   2.379+20.15 +0.00    +0.066 A 
ATOM      2  C18 UNL     1      13.083   6.863   3.066 -0.23 +0.00    +0.040 A 
ATOM      3  C19 UNL     1      11.864   6.782   2.385 -0.33 +0.00    +0.066 A 
ATOM      4  C20 UNL     1      11.796   7.002   1.009 -0.06 +0.00    +0.089 A 
ATOM      5  C21 UNL     1      12.979   7.256   0.314 +1.86 +0.00    +0.075 A 
ATOM      6  C22 UNL     1      14.197   7.425   0.994+11.90 +0.00    +0.089 A 
ENDROOT
BRANCH   1   7
ATOM      7  C16 UNL     1      15.522   7.249   3.209 +2.70 +0.00    +0.259 C 
ATOM      8  N9  UNL     1      16.565   6.427   2.839+18.14 -0.00    -0.322 N 
ATOM      9  H46 UNL     1      16.411   5.825   2.033+28.50 +0.00    +0.169 HD
ATOM     10  O2  UNL     1      15.523   8.000   4.182 -0.51 -0.00    -0.267 OA
BRANCH   8  11
ATOM     11  C3  UNL     1      17.850   6.301   3.430+11.53 +0.00    +0.054 A 
ATOM     12  C2  UNL     1      18.666   5.189   3.212+39.54 +0.00    +0.031 A 
ATOM     13  C1  UNL     1      19.907   5.088   3.840+42.22 +0.00    +0.005 A 
ATOM     14  C6  UNL     1      20.356   6.099   4.688+77.36 +0.00    +0.031 A 
ATOM     15  C5  UNL     1      19.575   7.234   4.924+11.35 +0.00    +0.053 A 
ATOM     16  C4  UNL     1      18.310   7.334   4.288 +4.02 +0.00    +0.054 A 
BRANCH  15  17
ATOM     17  N1  UNL     1      20.036   8.302   5.736+17.31 -0.00    -0.324 N 
ATOM     18  C7  UNL     1      20.686   8.224   6.955+36.23 +0.00    +0.255 C 
ATOM     19  O1  UNL     1      20.826   7.204   7.626 +2.54 -0.00    -0.271 OA
ATOM     20  H35 UNL     1      19.867   9.249   5.376 +1.65 +0.00    +0.169 HD
BRANCH  18  21
ATOM     21  C8  UNL     1      21.219   9.601   7.445 +1.96 +0.00    +0.309 C 
BRANCH  21  22
ATOM     22  C9  UNL     1      22.525  10.006   6.739 +1.47 +0.00    +0.047 C 
BRANCH  22  23
ATOM     23  C10 UNL     1      22.728   9.247   5.421 +2.12 +0.00    +0.022 C 
BRANCH  23  24
ATOM     24  C11 UNL     1      23.525  10.078   4.417 -0.60 +0.00    +0.121 C 
BRANCH  24  25
ATOM     25  N2  UNL     1      23.551   9.355   3.149 -0.21 -0.00    -0.372 N 
ATOM     26  C12 UNL     1      24.591   8.671   2.861 -0.51 +0.00    +0.121 C 
ATOM     27  N3  UNL     1      25.740   8.502   3.551 -0.59 -0.00    -0.279 NA
ATOM     28  N4  UNL     1      24.636   7.968   1.709 -0.20 -0.00    -0.279 NA
ATOM     29  H36 UNL     1      26.548   8.458   2.941 -0.01 +0.00    +0.126 HD
ATOM     30  H37 UNL     1      25.882   9.175   4.292 -0.15 +0.00    +0.126 HD
ATOM     31  H38 UNL     1      24.944   7.016   1.862 +0.10 +0.00    +0.126 HD
ATOM     32  H39 UNL     1      23.714   7.971   1.282 +0.10 +0.00    +0.126 HD
ATOM     33  H2  UNL     1      22.759   9.396   2.508 +0.12 +0.00    +0.161 HD
ENDBRANCH  24  25
ENDBRANCH  23  24
ENDBRANCH  22  23
ENDBRANCH  21  22
BRANCH  21  34
ATOM     34  N5  UNL     1      21.435   9.548   8.917 -0.47 +0.00    +0.092 N 
ATOM     35  H40 UNL     1      21.935   8.677   9.125 +0.30 +0.00    +0.313 HD
ATOM     36  H41 UNL     1      22.089  10.283   9.185 +0.27 +0.00    +0.313 HD
ENDBRANCH  21  34
ENDBRANCH  18  21
ENDBRANCH  15  17
BRANCH  16  37
ATOM     37  S1  UNL     1      17.235   8.749   4.623 -0.08 -0.00    -0.124 SA
BRANCH  37  38
ATOM     38  C13 UNL     1      17.717   9.853   3.238 -0.47 +0.00    +0.099 C 
BRANCH  38  39
ATOM     39  C14 UNL     1      17.125   9.463   1.880 -0.45 +0.00    +0.132 C 
BRANCH  39  40
ATOM     40  N6  UNL     1      17.982   9.930   0.793 -0.17 -0.00    -0.366 N 
ATOM     41  C15 UNL     1      19.225   9.643   0.766 +0.12 +0.00    +0.143 C 
ATOM     42  N7  UNL     1      19.941   9.985  -0.327 +0.97 -0.00    -0.274 NA
ATOM     43  N8  UNL     1      19.979   8.978   1.662 +3.71 -0.00    -0.376 N 
ATOM     44  H42 UNL     1      20.752  10.554  -0.133 +0.09 +0.00    +0.127 HD
ATOM     45  H43 UNL     1      19.332  10.471  -0.994 +0.57 +0.00    +0.127 HD
ATOM     46  H44 UNL     1      19.646   8.921   2.613 +0.11 +0.00    +0.158 HD
ATOM     47  H45 UNL     1      20.981   9.062   1.571 +0.12 +0.00    +0.158 HD
ATOM     48  H6  UNL     1      17.580  10.494   0.043 +0.13 +0.00    +0.162 HD
ENDBRANCH  39  40
ENDBRANCH  38  39
ENDBRANCH  37  38
ENDBRANCH  16  37
ENDBRANCH   8  11
ENDBRANCH   1   7
BRANCH   6  49
ATOM     49  O3  UNL     1      15.329   7.813   0.321 -0.05 -0.00    -0.331 OA
BRANCH  49  50
ATOM     50  C23 UNL     1      15.128   8.288  -1.036+17.45 +0.00    +0.300 C 
BRANCH  50  51
ATOM     51  N10 UNL     1      16.114   9.202  -1.595+16.67 -0.00    -0.350 N 
ATOM     52  C24 UNL     1      16.956   8.788  -2.458 +0.96 +0.00    +0.123 C 
ATOM     53  N11 UNL     1      17.739   9.686  -3.096 +7.07 -0.00    -0.279 NA
ATOM     54  N12 UNL     1      17.198   7.540  -2.911 -0.67 -0.00    -0.279 NA
ATOM     55  H47 UNL     1      17.332  10.622  -2.980 +1.01 +0.00    +0.126 HD
ATOM     56  H48 UNL     1      17.808   9.504  -4.090 +0.05 +0.00    +0.126 HD
ATOM     57  H49 UNL     1      18.179   7.405  -3.131 -0.43 +0.00    +0.126 HD
ATOM     58  H50 UNL     1      16.875   6.801  -2.299 -0.21 +0.00    +0.126 HD
ATOM     59  H10 UNL     1      16.130  10.176  -1.295 +7.74 +0.00    +0.163 HD
ENDBRANCH  50  51
ENDBRANCH  49  50
ENDBRANCH   6  49
BRANCH   3  60
ATOM     60  C27 UNL     1      10.642   6.500   3.159 -0.21 +0.00    +0.259 C 
ATOM     61  N16 UNL     1      10.738   6.866   4.490 -0.13 -0.00    -0.322 N 
ATOM     62  H55 UNL     1      11.409   7.598   4.689 +0.11 +0.00    +0.169 HD
ATOM     63  O5  UNL     1       9.660   6.064   2.572 -0.15 -0.00    -0.267 OA
BRANCH  61  64
ATOM     64  C28 UNL     1       9.707   6.677   5.439 +0.26 +0.00    +0.054 A 
ATOM     65  C29 UNL     1       8.497   5.987   5.194 +0.13 +0.00    +0.054 A 
ATOM     66  C30 UNL     1       7.523   5.900   6.226 +0.64 +0.00    +0.053 A 
ATOM     67  C31 UNL     1       7.778   6.473   7.472 +6.96 +0.00    +0.031 A 
ATOM     68  C32 UNL     1       8.999   7.095   7.725+29.23 +0.00    +0.005 A 
ATOM     69  C33 UNL     1       9.962   7.183   6.721 +2.74 +0.00    +0.031 A 
BRANCH  65  70
ATOM     70  S2  UNL     1       8.201   5.039   3.667 -0.26 -0.00    -0.124 SA
BRANCH  70  71
ATOM     71  C40 UNL     1       7.013   6.166   2.844 -0.22 +0.00    +0.099 C 
BRANCH  71  72
ATOM     72  C41 UNL     1       7.219   7.632   3.242 +2.12 +0.00    +0.132 C 
BRANCH  72  73
ATOM     73  N22 UNL     1       7.650   8.410   2.083 +0.44 -0.00    -0.371 N 
ATOM     74  C42 UNL     1       7.369   8.007   0.905 -0.20 +0.00    +0.121 C 
ATOM     75  N23 UNL     1       6.746   6.881   0.498 -0.22 -0.00    -0.279 NA
ATOM     76  N24 UNL     1       7.734   8.749  -0.160 +0.85 -0.00    -0.279 NA
ATOM     77  H63 UNL     1       6.714   6.149   1.198 +0.05 +0.00    +0.126 HD
ATOM     78  H64 UNL     1       7.138   6.524  -0.367 -0.16 +0.00    +0.126 HD
ATOM     79  H65 UNL     1       6.996   8.844  -0.848 -0.50 +0.00    +0.126 HD
ATOM     80  H66 UNL     1       8.053   9.671   0.133 +2.75 +0.00    +0.126 HD
ATOM     81  H22 UNL     1       8.174   9.274   2.215 +1.98 +0.00    +0.161 HD
ENDBRANCH  72  73
ENDBRANCH  71  72
ENDBRANCH  70  71
ENDBRANCH  65  70
BRANCH  66  82
ATOM     82  N17 UNL     1       6.325   5.208   5.941 -0.16 -0.00    -0.324 N 
ATOM     83  C34 UNL     1       6.048   3.860   6.022 -0.16 +0.00    +0.255 C 
ATOM     84  O6  UNL     1       6.827   2.988   6.400 +7.94 -0.00    -0.271 OA
ATOM     85  H56 UNL     1       5.638   5.775   5.457 +0.07 +0.00    +0.169 HD
BRANCH  83  86
ATOM     86  C35 UNL     1       4.596   3.505   5.612 -0.21 +0.00    +0.309 C 
BRANCH  86  87
ATOM     87  C36 UNL     1       4.473   3.329   4.090 -0.19 +0.00    +0.047 C 
BRANCH  87  88
ATOM     88  C37 UNL     1       5.680   3.811   3.272 -0.18 +0.00    +0.022 C 
BRANCH  88  89
ATOM     89  C38 UNL     1       6.695   2.695   3.018 -0.24 +0.00    +0.121 C 
BRANCH  89  90
ATOM     90  N18 UNL     1       6.485   2.084   1.710 -0.07 -0.00    -0.372 N 
ATOM     91  C39 UNL     1       5.426   1.409   1.479 -0.17 +0.00    +0.121 C 
ATOM     92  N19 UNL     1       4.367   1.134   2.272 -0.13 -0.00    -0.279 NA
ATOM     93  N20 UNL     1       5.236   0.863   0.259 +0.03 -0.00    -0.279 NA
ATOM     94  H57 UNL     1       4.518   1.310   3.256 +0.05 +0.00    +0.126 HD
ATOM     95  H58 UNL     1       4.011   0.198   2.123 +0.03 +0.00    +0.126 HD
ATOM     96  H59 UNL     1       4.314   1.070  -0.106 +0.02 +0.00    +0.126 HD
ATOM     97  H60 UNL     1       5.949   1.213  -0.376 +0.03 +0.00    +0.126 HD
ATOM     98  H18 UNL     1       7.187   2.196   0.977 +0.06 +0.00    +0.161 HD
ENDBRANCH  89  90
ENDBRANCH  88  89
ENDBRANCH  87  88
ENDBRANCH  86  87
BRANCH  86  99
ATOM     99  N21 UNL     1       4.069   2.338   6.353 -0.14 +0.00    +0.092 N 
ATOM    100  H61 UNL     1       4.811   1.818   6.811 +0.20 +0.00    +0.313 HD
ATOM    101  H62 UNL     1       3.420   2.668   7.075 +0.13 +0.00    +0.313 HD
ENDBRANCH  86  99
ENDBRANCH  83  86
ENDBRANCH  66  82
ENDBRANCH  61  64
ENDBRANCH   3  60
BRANCH   4 102
ATOM    102  O4  UNL     1      10.578   6.936   0.384 -0.20 -0.00    -0.331 OA
BRANCH 102 103
ATOM    103  C25 UNL     1      10.659   6.723  -1.043 -0.19 +0.00    +0.300 C 
BRANCH 103 104
ATOM    104  N13 UNL     1       9.944   5.583  -1.629 -0.05 -0.00    -0.350 N 
ATOM    105  C26 UNL     1       9.607   4.635  -0.834 -0.15 +0.00    +0.123 C 
ATOM    106  N14 UNL     1       8.922   3.575  -1.318 -0.04 -0.00    -0.279 NA
ATOM    107  N15 UNL     1       9.859   4.487   0.487 +0.09 -0.00    -0.279 NA
ATOM    108  H51 UNL     1       8.485   3.760  -2.213 +0.04 +0.00    +0.126 HD
ATOM    109  H52 UNL     1       8.292   3.134  -0.664 +0.06 +0.00    +0.126 HD
ATOM    110  H53 UNL     1      10.242   5.315   0.934 -0.07 +0.00    +0.126 HD
ATOM    111  H54 UNL     1       9.022   4.291   1.036 +0.01 +0.00    +0.126 HD
ATOM    112  H13 UNL     1       9.726   5.547  -2.625 +0.07 +0.00    +0.163 HD
ENDBRANCH 103 104
ENDBRANCH 102 103
ENDBRANCH   4 102
TORSDOF 32
TER
