USER    Run = 1
USER    DPF = ligand_344_receptor.dpf
USER  
USER    Estimated Free Energy of Binding    =  +56.91 kcal/mol  [=(1)+(2)+(3)-(4)]
USER    
USER    (1) Final Intermolecular Energy     =  +55.71 kcal/mol
USER        vdW + Hbond + desolv Energy     =  +55.71 kcal/mol
USER        Electrostatic Energy            =   +0.00 kcal/mol
USER    (2) Final Total Internal Energy     =   +1.58 kcal/mol
USER    (3) Torsional Free Energy           =   +1.19 kcal/mol
USER    (4) Unbound System's Energy  [=(2)] =   +1.58 kcal/mol
USER    
USER    
USER    NEWDPF move ligand_344.pdbqt
USER    NEWDPF about 0.000000 0.000000 0.000000
USER    NEWDPF tran0 20.567984 11.409558 1.202084
USER    NEWDPF quaternion0 0.956882 -0.272657 -0.047018 -0.088458
USER    NEWDPF axisangle0 0.960648 -0.273730 -0.047203 -169.850248
USER    NEWDPF quat0 0.960648 -0.273730 -0.047203 -169.850248
USER    NEWDPF dihe0 -34.53 -1.81 -12.69 180.00 112.79 -53.22 -56.67 23.85 -180.00 40.04 3.29 118.23 -127.73 -168.81 -14.04 -5.40 -1.27 76.66 -114.38 -177.68 117.19 57.48 -103.58 91.28 180.00 -180.00 149.72 -114.64 113.07 -131.49 
USER  keepresnum = 1 
USER  
REMARK  30 active torsions:
REMARK  status: ('A' for Active; 'I' for Inactive)
REMARK    1  A    between atoms: C2_2  and  O1_46 
REMARK    2  A    between atoms: C3_3  and  O13_58 
REMARK    3  A    between atoms: C6_6  and  C8_8 
REMARK    4  A    between atoms: C13_13  and  N4_65 
REMARK       I    between atoms: C15_15  and  N4_65 
REMARK       I    between atoms: C15_15  and  N5_66 
REMARK    5  A    between atoms: C16_16  and  C17_17 
REMARK    6  A    between atoms: C16_16  and  N5_66 
REMARK    7  A    between atoms: C17_17  and  C18_18 
REMARK    8  A    between atoms: C18_18  and  C19_19 
REMARK    9  A    between atoms: C19_19  and  O3_48 
REMARK   10  A    between atoms: C20_20  and  O3_48 
REMARK   11  A    between atoms: C20_20  and  O5_50 
REMARK   12  A    between atoms: C21_21  and  C22_22 
REMARK   13  A    between atoms: C21_21  and  O5_50 
REMARK   14  A    between atoms: C22_22  and  C23_23 
REMARK   15  A    between atoms: C23_23  and  C24_24 
REMARK   16  A    between atoms: C24_24  and  N6_67 
REMARK   17  A    between atoms: C25_25  and  C26_26 
REMARK   18  A    between atoms: C25_25  and  N6_67 
REMARK   19  A    between atoms: C26_26  and  C27_27 
REMARK   20  A    between atoms: C26_26  and  O7_52 
REMARK   21  A    between atoms: C27_27  and  O6_51 
REMARK       I    between atoms: C28_28  and  N6_67 
REMARK       I    between atoms: C28_28  and  N7_68 
REMARK   22  A    between atoms: C29_29  and  N7_68 
REMARK   23  A    between atoms: C31_31  and  C36_36 
REMARK   24  A    between atoms: C38_38  and  O10_55 
REMARK   25  A    between atoms: C39_39  and  O9_54 
REMARK   26  A    between atoms: C43_43  and  C44_44 
REMARK   27  A    between atoms: C43_43  and  N5_66 
REMARK   28  A    between atoms: C44_44  and  C45_45 
REMARK   29  A    between atoms: C44_44  and  O12_57 
REMARK   30  A    between atoms: C45_45  and  O11_56 
USER                              x       y       z     vdW  Elec       q    Type
USER                           _______ _______ _______ _____ _____    ______ ____
ROOT
ATOM      1  C20 UNL     1      18.129   7.597  -2.581 +0.99 +0.00    +0.406 C 
ATOM      2  O4  UNL     1      19.127   6.910  -2.423 +2.05 -0.00    -0.230 OA
ENDROOT
BRANCH   1   3
ATOM      3  O3  UNL     1      16.855   7.239  -2.289 -0.84 -0.00    -0.298 OA
BRANCH   3   4
ATOM      4  C19 UNL     1      16.151   8.067  -1.354 +2.02 +0.00    +0.181 C 
BRANCH   4   5
ATOM      5  C18 UNL     1      15.803   7.254  -0.105 +4.47 +0.00    +0.028 C 
BRANCH   5   6
ATOM      6  C17 UNL     1      14.296   7.248   0.188 +3.87 +0.00    +0.022 C 
BRANCH   6   7
ATOM      7  C16 UNL     1      13.490   6.381  -0.787 +0.20 +0.00    +0.127 C 
BRANCH   7   8
ATOM      8  N5  UNL     1      12.038   6.457  -0.587 -0.27 -0.00    -0.331 N 
ATOM      9  C15 UNL     1      11.381   6.522   0.640 -0.21 +0.00    +0.324 C 
ATOM     10  O2  UNL     1      10.152   6.599   0.690 -0.22 -0.00    -0.247 OA
ATOM     11  N4  UNL     1      12.187   6.493   1.749 -0.24 -0.00    -0.295 N 
ATOM     12  H51 UNL     1      13.130   6.823   1.649 -0.18 +0.00    +0.172 HD
BRANCH  11  13
ATOM     13  C13 UNL     1      11.724   6.280   3.057 -0.23 +0.00    +0.110 A 
ATOM     14  C12 UNL     1      12.600   6.519   4.102 -0.29 +0.00    +0.051 A 
ATOM     15  C11 UNL     1      12.162   6.282   5.402 -0.34 +0.00    +0.037 A 
ATOM     16  C10 UNL     1      10.887   5.797   5.638 -0.26 +0.00    +0.076 A 
ATOM     17  C14 UNL     1      10.071   5.556   4.510 -0.19 +0.00    +0.134 A 
ATOM     18  N1  UNL     1      10.469   5.568   6.899 -0.09 -0.00    -0.361 N 
ATOM     19  N2  UNL     1      10.485   5.801   3.265 -0.09 -0.00    -0.327 N 
ATOM     20  N3  UNL     1       8.841   5.064   4.670 -0.07 -0.00    -0.339 N 
ATOM     21  H2  UNL     1       9.864   5.625   2.474 +0.05 +0.00    +0.169 HD
ATOM     22  C8  UNL     1       8.389   4.839   5.927 -0.31 +0.00    +0.059 A 
ATOM     23  H3  UNL     1       8.254   4.862   3.861 +0.09 +0.00    +0.167 HD
ATOM     24  C9  UNL     1       9.209   5.091   7.020 -0.32 +0.00    +0.119 A 
ATOM     25  H1  UNL     1      11.065   5.743   7.708 +0.13 +0.00    +0.165 HD
BRANCH  22  26
ATOM     26  C6  UNL     1       7.016   4.318   6.043 -0.38 -0.00    -0.005 A 
ATOM     27  C5  UNL     1       6.241   4.536   7.199 -0.38 +0.00    +0.017 A 
ATOM     28  C4  UNL     1       4.943   4.033   7.303 -0.27 +0.00    +0.040 A 
ATOM     29  C3  UNL     1       4.412   3.306   6.250 -0.28 +0.00    +0.099 A 
ATOM     30  C2  UNL     1       5.143   3.072   5.083 -0.12 +0.00    +0.102 A 
ATOM     31  C7  UNL     1       6.437   3.586   4.983 -0.08 +0.00    +0.053 A 
BRANCH  29  32
ATOM     32  O13 UNL     1       3.135   2.825   6.366 -0.29 -0.00    -0.358 OA
ATOM     33  H50 UNL     1       2.766   2.899   5.460 +0.08 +0.00    +0.217 HD
ENDBRANCH  29  32
BRANCH  30  34
ATOM     34  O1  UNL     1       4.487   2.326   4.137 -0.13 -0.00    -0.353 OA
ATOM     35  C1  UNL     1       5.100   2.237   2.854 -0.16 +0.00    +0.210 C 
ENDBRANCH  30  34
ENDBRANCH  22  26
ENDBRANCH  11  13
BRANCH   8  36
ATOM     36  C43 UNL     1      11.207   6.489  -1.803 -0.28 +0.00    +0.161 C 
BRANCH  36  37
ATOM     37  C44 UNL     1       9.839   5.795  -1.637 -0.18 +0.00    +0.159 C 
BRANCH  37  38
ATOM     38  C45 UNL     1       9.864   4.307  -2.013 -0.15 +0.00    +0.197 C 
BRANCH  38  39
ATOM     39  O11 UNL     1       9.158   4.041  -3.218 -0.08 -0.00    -0.398 OA
ATOM     40  H48 UNL     1       8.237   3.827  -2.960 +0.06 +0.00    +0.209 HD
ENDBRANCH  38  39
ENDBRANCH  37  38
BRANCH  37  41
ATOM     41  O12 UNL     1       8.877   6.453  -2.473 -0.09 -0.00    -0.392 OA
ATOM     42  H49 UNL     1       8.635   5.840  -3.189 -0.13 +0.00    +0.210 HD
ENDBRANCH  37  41
ENDBRANCH  36  37
ENDBRANCH   8  36
ENDBRANCH   7   8
ENDBRANCH   6   7
ENDBRANCH   5   6
ENDBRANCH   4   5
ENDBRANCH   3   4
ENDBRANCH   1   3
BRANCH   1  43
ATOM     43  O5  UNL     1      18.101   8.888  -2.989 +7.35 -0.00    -0.298 OA
BRANCH  43  44
ATOM     44  C21 UNL     1      17.297   9.807  -2.234+10.48 +0.00    +0.181 C 
BRANCH  44  45
ATOM     45  C22 UNL     1      18.123  11.042  -1.860+31.72 +0.00    +0.028 C 
BRANCH  45  46
ATOM     46  C23 UNL     1      18.899  10.896  -0.547 +0.57 +0.00    +0.022 C 
BRANCH  46  47
ATOM     47  C24 UNL     1      19.059   9.450  -0.068 +0.95 +0.00    +0.127 C 
BRANCH  47  48
ATOM     48  N6  UNL     1      18.773   9.281   1.361 +0.15 -0.00    -0.331 N 
ATOM     49  C28 UNL     1      19.767   8.877   2.253 +2.35 +0.00    +0.324 C 
ATOM     50  O8  UNL     1      19.493   8.128   3.187 -0.04 -0.00    -0.247 OA
ATOM     51  N7  UNL     1      20.991   9.425   1.979 -0.14 -0.00    -0.295 N 
ATOM     52  H52 UNL     1      20.968  10.350   1.557 +0.14 +0.00    +0.172 HD
BRANCH  48  53
ATOM     53  C25 UNL     1      17.369   9.155   1.772 -0.42 +0.00    +0.161 C 
BRANCH  53  54
ATOM     54  C26 UNL     1      16.719  10.468   2.240 -0.42 +0.00    +0.159 C 
BRANCH  54  55
ATOM     55  C27 UNL     1      17.624  11.195   3.242 -0.25 +0.00    +0.197 C 
BRANCH  55  56
ATOM     56  O6  UNL     1      18.392  12.225   2.623 -0.29 -0.00    -0.398 OA
ATOM     57  H45 UNL     1      18.764  12.786   3.337 +0.21 +0.00    +0.209 HD
ENDBRANCH  55  56
ENDBRANCH  54  55
BRANCH  54  58
ATOM     58  O7  UNL     1      15.442  10.243   2.839 -0.14 -0.00    -0.392 OA
ATOM     59  H46 UNL     1      14.805  10.017   2.122 -0.35 +0.00    +0.210 HD
ENDBRANCH  54  58
ENDBRANCH  53  54
ENDBRANCH  48  53
BRANCH  51  60
ATOM     60  C29 UNL     1      22.211   9.001   2.504 -0.35 +0.00    +0.110 A 
ATOM     61  C35 UNL     1      22.593   9.532   3.726 -0.42 +0.00    +0.051 A 
ATOM     62  C34 UNL     1      23.851   9.220   4.226 -0.54 +0.00    +0.037 A 
ATOM     63  C33 UNL     1      24.703   8.412   3.499 -0.40 +0.00    +0.076 A 
ATOM     64  C30 UNL     1      24.229   7.902   2.265 -0.19 +0.00    +0.134 A 
ATOM     65  N10 UNL     1      25.941   8.156   3.972 -0.21 -0.00    -0.361 N 
ATOM     66  N8  UNL     1      23.011   8.184   1.797 -0.18 -0.00    -0.327 N 
ATOM     67  N9  UNL     1      25.029   7.141   1.513 -0.15 -0.00    -0.339 N 
ATOM     68  H8  UNL     1      22.692   7.785   0.915 +0.12 +0.00    +0.169 HD
ATOM     69  C31 UNL     1      26.291   6.901   1.945 -0.04 +0.00    +0.059 A 
ATOM     70  H9  UNL     1      24.697   6.748   0.632 +0.13 +0.00    +0.167 HD
ATOM     71  C32 UNL     1      26.721   7.400   3.168 +0.35 +0.00    +0.119 A 
ATOM     72  H10 UNL     1      26.265   8.507   4.873 -0.39 +0.00    +0.165 HD
BRANCH  69  73
ATOM     73  C36 UNL     1      27.146   6.110   1.043 +0.37 -0.00    -0.005 A 
ATOM     74  C37 UNL     1      28.494   6.457   0.805 -0.16 +0.00    +0.053 A 
ATOM     75  C38 UNL     1      29.291   5.708  -0.065 -0.14 +0.00    +0.102 A 
ATOM     76  C39 UNL     1      28.738   4.590  -0.694 -0.16 +0.00    +0.099 A 
ATOM     77  C40 UNL     1      27.416   4.226  -0.491 -0.28 +0.00    +0.040 A 
ATOM     78  C41 UNL     1      26.625   4.989   0.368 -0.30 +0.00    +0.017 A 
BRANCH  75  79
ATOM     79  O10 UNL     1      30.603   5.960  -0.378 -0.02 -0.00    -0.353 OA
ATOM     80  C42 UNL     1      30.868   7.172  -1.077 -0.08 +0.00    +0.210 C 
ENDBRANCH  75  79
BRANCH  76  81
ATOM     81  O9  UNL     1      29.497   3.831  -1.542 -0.03 -0.00    -0.358 OA
ATOM     82  H47 UNL     1      30.420   3.991  -1.267 +0.07 +0.00    +0.217 HD
ENDBRANCH  76  81
ENDBRANCH  69  73
ENDBRANCH  51  60
ENDBRANCH  47  48
ENDBRANCH  46  47
ENDBRANCH  45  46
ENDBRANCH  44  45
ENDBRANCH  43  44
ENDBRANCH   1  43
TORSDOF 30
TER
