USER    Run = 1
USER    DPF = ligand_100_receptor.dpf
USER  
USER    Estimated Free Energy of Binding    =  +4.17e+003 kcal/mol  [=(1)+(2)+(3)-(4)]
USER    
USER    (1) Final Intermolecular Energy     =  +4.17e+003 kcal/mol
USER        vdW + Hbond + desolv Energy     =  +4.17e+003 kcal/mol
USER        Electrostatic Energy            =   +0.00 kcal/mol
USER    (2) Final Total Internal Energy     =   +0.00 kcal/mol
USER    (3) Torsional Free Energy           =   +1.19 kcal/mol
USER    (4) Unbound System's Energy  [=(2)] =   +0.00 kcal/mol
USER    
USER    
USER    NEWDPF move ligand_100.pdbqt
USER    NEWDPF about 0.000000 0.000000 0.000000
USER    NEWDPF tran0 17.527589 7.491326 4.225917
USER    NEWDPF quaternion0 0.226758 -0.620205 0.734221 0.157626
USER    NEWDPF axisangle0 0.229629 -0.628057 0.743515 161.861706
USER    NEWDPF quat0 0.229629 -0.628057 0.743515 161.861706
USER  keepresnum = 1 
USER  
REMARK  0 active torsions:
REMARK  status: ('A' for Active; 'I' for Inactive)
REMARK       I    between atoms: C2_2  and  C3_3 
REMARK       I    between atoms: C3_3  and  C4_4 
REMARK       I    between atoms: C4_4  and  N1_59 
REMARK       I    between atoms: C5_5  and  N1_59 
REMARK       I    between atoms: C6_6  and  N8_71 
REMARK       I    between atoms: C7_7  and  N5_66 
REMARK       I    between atoms: C8_8  and  N5_66 
REMARK       I    between atoms: C10_10  and  S1_101 
REMARK       I    between atoms: C15_15  and  N6_67 
REMARK       I    between atoms: C16_16  and  O1_85 
REMARK       I    between atoms: C18_18  and  N7_69 
REMARK       I    between atoms: C20_20  and  C25_25 
REMARK       I    between atoms: C22_22  and  C24_24 
REMARK       I    between atoms: C24_24  and  O2_86 
REMARK       I    between atoms: C25_25  and  O4_88 
REMARK       I    between atoms: C27_27  and  N8_71 
REMARK       I    between atoms: C30_30  and  N9_72 
REMARK       I    between atoms: C33_33  and  N9_72 
REMARK       I    between atoms: C34_34  and  N14_80 
REMARK       I    between atoms: C35_35  and  N13_79 
REMARK       I    between atoms: C36_36  and  C37_37 
REMARK       I    between atoms: C36_36  and  N13_79 
REMARK       I    between atoms: C37_37  and  C38_38 
REMARK       I    between atoms: C40_40  and  N14_80 
REMARK       I    between atoms: C42_42  and  S2_102 
REMARK       I    between atoms: C47_47  and  N15_81 
REMARK       I    between atoms: C48_48  and  O9_93 
REMARK       I    between atoms: C50_50  and  N16_83 
REMARK       I    between atoms: C52_52  and  C57_57 
REMARK       I    between atoms: C54_54  and  C56_56 
REMARK       I    between atoms: C56_56  and  O10_94 
REMARK       I    between atoms: C57_57  and  O12_96 
REMARK       I    between atoms: O2_86  and  O3_87 
REMARK       I    between atoms: O4_88  and  O5_89 
REMARK       I    between atoms: O8_92  and  S1_101 
REMARK       I    between atoms: O10_94  and  O11_95 
REMARK       I    between atoms: O12_96  and  O13_97 
REMARK       I    between atoms: O16_100  and  S2_102 
USER                              x       y       z     vdW  Elec       q    Type
USER                           _______ _______ _______ _____ _____    ______ ____
ROOT
ATOM      1  C1  UNL     1      10.503   1.992   9.174+99.99 +0.00    +0.005 C 
ATOM      2  C2  UNL     1      10.535   3.504   9.325+83.35 -0.00    -0.003 C 
ATOM      3  C3  UNL     1      11.939   4.061   9.094 +1.05 +0.00    +0.014 C 
ATOM      4  C4  UNL     1      11.963   5.584   9.242 -0.24 +0.00    +0.095 C 
ATOM      5  C5  UNL     1      13.839   6.137   7.806 -0.45 +0.00    +0.186 A 
ATOM      6  C6  UNL     1      15.668   6.015   6.519+21.95 +0.00    +0.699 A 
ATOM      7  C7  UNL     1      13.643   6.281   5.568 +0.09 +0.00    +0.699 A 
ATOM      8  C8  UNL     1      13.015   6.726   3.098 -0.17 +0.00    +0.064 A 
ATOM      9  C9  UNL     1      14.301   6.893   2.565+40.69 +0.00    +0.056 A 
ATOM     10  C10 UNL     1      14.478   7.128   1.204+99.99 +0.00    +0.075 A 
ATOM     11  C11 UNL     1      13.385   7.181   0.342 +1.47 +0.00    +0.038 A 
ATOM     12  C12 UNL     1      12.087   7.015   0.836 -0.01 -0.00    -0.019 A 
ATOM     13  C13 UNL     1      11.003   7.078  -0.058 -0.15 +0.00    +0.021 A 
ATOM     14  C14 UNL     1       9.678   6.925   0.372 -0.27 -0.00    -0.030 A 
ATOM     15  C15 UNL     1       9.430   6.694   1.729 -0.24 +0.00    +0.088 A 
ATOM     16  C16 UNL     1      10.518   6.643   2.628 -0.26 +0.00    +0.107 A 
ATOM     17  C17 UNL     1      11.873   6.788   2.221 -0.34 +0.00    +0.037 A 
ATOM     18  C18 UNL     1       6.537   5.234   2.946 -0.15 +0.00    +0.049 A 
ATOM     19  C19 UNL     1       5.432   5.579   2.157 -0.19 +0.00    +0.040 A 
ATOM     20  C20 UNL     1       4.124   5.402   2.627 -0.16 -0.00    -0.029 A 
ATOM     21  C21 UNL     1       3.930   4.880   3.914 -0.15 +0.00    +0.019 A 
ATOM     22  C22 UNL     1       5.021   4.522   4.719 -0.20 -0.00    -0.029 A 
ATOM     23  C23 UNL     1       6.320   4.691   4.217 -0.20 +0.00    +0.040 A 
ATOM     24  C24 UNL     1       4.798   3.934   6.089 -0.28 +0.00    +0.248 C 
ATOM     25  C25 UNL     1       2.943   5.795   1.777+18.86 +0.00    +0.248 C 
ATOM     26  C26 UNL     1       8.549   7.001  -0.615 -0.36 +0.00    +0.050 C 
ATOM     27  C27 UNL     1      18.111   6.529   6.949+99.99 +0.00    +0.049 A 
ATOM     28  C28 UNL     1      19.338   6.598   6.280+72.78 +0.00    +0.032 A 
ATOM     29  C29 UNL     1      20.415   7.304   6.820+99.99 +0.00    +0.032 A 
ATOM     30  C30 UNL     1      20.328   7.911   8.076+50.26 +0.00    +0.049 A 
ATOM     31  C31 UNL     1      19.132   7.762   8.786+99.99 +0.00    +0.032 A 
ATOM     32  C32 UNL     1      18.041   7.074   8.233+99.99 +0.00    +0.032 A 
ATOM     33  C33 UNL     1      22.343   9.429   7.909 +8.95 +0.00    +0.699 A 
ATOM     34  C34 UNL     1      23.188  10.315   6.010 +2.84 +0.00    +0.699 A 
ATOM     35  C35 UNL     1      24.327  10.472   7.940+99.99 +0.00    +0.186 A 
ATOM     36  C36 UNL     1      25.358  11.359   9.964 +0.11 +0.00    +0.095 C 
ATOM     37  C37 UNL     1      25.045  12.855  10.076+31.39 +0.00    +0.014 C 
ATOM     38  C38 UNL     1      23.610  13.265   9.735+99.99 -0.00    -0.003 C 
ATOM     39  C39 UNL     1      22.574  12.706  10.699 -0.07 +0.00    +0.005 C 
ATOM     40  C40 UNL     1      22.122  10.113   3.724 -0.07 +0.00    +0.064 A 
ATOM     41  C41 UNL     1      20.763  10.236   4.062+99.99 +0.00    +0.056 A 
ATOM     42  C42 UNL     1      19.776   9.758   3.205 +0.37 +0.00    +0.075 A 
ATOM     43  C43 UNL     1      20.120   9.158   1.998 +1.60 +0.00    +0.038 A 
ATOM     44  C44 UNL     1      21.467   9.034   1.624 +0.51 -0.00    -0.019 A 
ATOM     45  C45 UNL     1      21.786   8.428   0.396 +5.51 +0.00    +0.021 A 
ATOM     46  C46 UNL     1      23.112   8.283  -0.034 -0.46 -0.00    -0.030 A 
ATOM     47  C47 UNL     1      24.147   8.743   0.787 -0.35 +0.00    +0.088 A 
ATOM     48  C48 UNL     1      23.829   9.359   2.015 -0.37 +0.00    +0.107 A 
ATOM     49  C49 UNL     1      22.495   9.519   2.475 -0.42 +0.00    +0.037 A 
ATOM     50  C50 UNL     1      27.404   7.587   0.573 -0.35 +0.00    +0.049 A 
ATOM     51  C51 UNL     1      27.768   7.394  -0.767 -0.30 +0.00    +0.040 A 
ATOM     52  C52 UNL     1      29.114   7.257  -1.139 -0.24 -0.00    -0.029 A 
ATOM     53  C53 UNL     1      30.101   7.317  -0.144 -0.19 +0.00    +0.019 A 
ATOM     54  C54 UNL     1      29.758   7.492   1.204 -0.33 -0.00    -0.029 A 
ATOM     55  C55 UNL     1      28.404   7.619   1.548 -0.37 +0.00    +0.040 A 
ATOM     56  C56 UNL     1      30.820   7.532   2.272 -0.12 +0.00    +0.248 C 
ATOM     57  C57 UNL     1      29.495   7.081  -2.587 -0.15 +0.00    +0.248 C 
ATOM     58  C58 UNL     1      23.408   7.629  -1.354 -0.33 +0.00    +0.050 C 
ATOM     59  N1  UNL     1      13.305   6.117   9.086 -0.22 -0.00    -0.263 NA
ATOM     60  N2  UNL     1      15.154   6.021   7.740 -0.16 -0.00    -0.165 N 
ATOM     61  H2  UNL     1      15.736   5.941   8.574 -0.29 +0.00    +0.187 HD
ATOM     62  N3  UNL     1      14.947   6.121   5.414 +1.05 -0.00    -0.022 N 
ATOM     63  H3  UNL     1      15.376   6.081   4.489 +0.84 +0.00    +0.203 HD
ATOM     64  N4  UNL     1      13.046   6.269   6.752 -0.31 -0.00    -0.165 N 
ATOM     65  H4  UNL     1      12.034   6.356   6.847 +0.15 +0.00    +0.187 HD
ATOM     66  N5  UNL     1      12.812   6.470   4.470 -0.27 -0.00    -0.190 N 
ATOM     67  N6  UNL     1       8.108   6.570   2.209 -0.12 -0.00    -0.297 N 
ATOM     68  H6  UNL     1       7.453   7.343   2.320 +0.10 +0.00    +0.187 HD
ATOM     69  N7  UNL     1       7.857   5.375   2.479 -0.04 -0.00    -0.300 N 
ATOM     70  H7  UNL     1       8.519   4.605   2.374 +0.08 +0.00    +0.187 HD
ATOM     71  N8  UNL     1      17.044   5.891   6.295+99.99 -0.00    -0.191 N 
ATOM     72  N9  UNL     1      21.340   8.732   8.585 -0.38 -0.00    -0.191 N 
ATOM     73  N10 UNL     1      22.199   9.677   6.616 +0.08 -0.00    -0.022 N 
ATOM     74  H10 UNL     1      21.362   9.389   6.109 +0.43 +0.00    +0.203 HD
ATOM     75  N11 UNL     1      24.286  10.710   6.636+14.29 -0.00    -0.165 N 
ATOM     76  H11 UNL     1      25.054  11.168   6.145+21.53 +0.00    +0.187 HD
ATOM     77  N12 UNL     1      23.378   9.843   8.621+91.72 -0.00    -0.165 N 
ATOM     78  H12 UNL     1      23.442   9.689   9.628 +3.27 +0.00    +0.187 HD
ATOM     79  N13 UNL     1      25.465  10.922   8.584 +7.59 -0.00    -0.263 NA
ATOM     80  N14 UNL     1      23.109  10.562   4.634 -0.46 -0.00    -0.190 N 
ATOM     81  N15 UNL     1      25.493   8.645   0.375 -0.01 -0.00    -0.297 N 
ATOM     82  H15 UNL     1      25.941   9.255  -0.310 +0.31 +0.00    +0.187 HD
ATOM     83  N16 UNL     1      26.058   7.703   0.972 -0.18 -0.00    -0.300 N 
ATOM     84  H16 UNL     1      25.604   7.098   1.657 +0.14 +0.00    +0.187 HD
ATOM     85  O1  UNL     1      10.229   6.451   3.969 -0.12 -0.00    -0.357 OA
ATOM     86  O2  UNL     1       4.357   2.579   5.977 -0.66 -0.00    -0.239 OA
ATOM     87  O3  UNL     1       5.555   1.770   5.775+75.05 -0.00    -0.250 OA
ATOM     88  O4  UNL     1       2.374   7.015   2.259+34.16 -0.00    -0.239 OA
ATOM     89  O5  UNL     1       3.186   8.095   1.708+99.99 -0.00    -0.250 OA
ATOM     90  O6  UNL     1      17.080   7.014   1.555 +0.74 -0.00    -0.598 OA
ATOM     91  O7  UNL     1      16.132   6.679  -0.756+11.76 -0.00    -0.598 OA
ATOM     92  O8  UNL     1      16.207   8.927   0.282 -0.39 -0.00    -0.292 OA
ATOM     93  O9  UNL     1      24.874   9.829   2.791 -0.47 -0.00    -0.357 OA
ATOM     94  O10 UNL     1      30.763   8.796   2.936 +0.76 -0.00    -0.239 OA
ATOM     95  O11 UNL     1      31.817   8.765   3.942+99.99 -0.00    -0.250 OA
ATOM     96  O12 UNL     1      30.327   5.926  -2.721 -0.10 -0.00    -0.239 OA
ATOM     97  O13 UNL     1      30.646   5.829  -4.139 -0.11 -0.00    -0.250 OA
ATOM     98  O14 UNL     1      17.971  11.111   4.531 +2.89 -0.00    -0.598 OA
ATOM     99  O15 UNL     1      17.285   9.932   2.407 -0.00 -0.00    -0.598 OA
ATOM    100  O16 UNL     1      17.701   8.682   4.498 -0.29 -0.00    -0.292 OA
ATOM    101  S1  UNL     1      16.106   7.337   0.533+13.48 +0.00    +0.129 S 
ATOM    102  S2  UNL     1      18.070   9.984   3.629 -0.32 +0.00    +0.129 S 
ATOM    103  H49 UNL     1      14.011   5.731   9.703 +0.55 +0.00    +0.130 HD
ATOM    104  H50 UNL     1      11.837   6.502   4.761 +0.12 +0.00    +0.184 HD
ATOM    105  H51 UNL     1      17.154   5.885   5.285+39.75 +0.00    +0.184 HD
ATOM    106  H52 UNL     1      21.498   8.721   9.581 +0.29 +0.00    +0.184 HD
ATOM    107  H53 UNL     1      25.956  11.545   7.954+92.59 +0.00    +0.130 HD
ATOM    108  H54 UNL     1      24.051  10.576   4.246 +0.10 +0.00    +0.184 HD
ATOM    109  H55 UNL     1       9.260   6.319   4.011 +0.12 +0.00    +0.217 HD
ATOM    110  H56 UNL     1       5.383   1.556   4.839 -0.38 +0.00    +0.253 HD
ATOM    111  H57 UNL     1       3.627   8.334   2.545 +0.25 +0.00    +0.253 HD
ATOM    112  H58 UNL     1      16.558   9.361   1.105 +0.16 +0.00    +0.232 HD
ATOM    113  H59 UNL     1      25.692   9.558   2.326 +0.17 +0.00    +0.217 HD
ATOM    114  H60 UNL     1      32.312   9.533   3.603 -0.35 +0.00    +0.253 HD
ATOM    115  H61 UNL     1      30.260   4.944  -4.275 +0.06 +0.00    +0.253 HD
ATOM    116  H62 UNL     1      17.840   8.888   5.449 +0.31 +0.00    +0.232 HD
ENDROOT
TORSDOF 38
TER
