USER    Run = 1
USER    DPF = ligand_415_receptor.dpf
USER  
USER    Estimated Free Energy of Binding    =  +1.20e+004 kcal/mol  [=(1)+(2)+(3)-(4)]
USER    
USER    (1) Final Intermolecular Energy     =  +1.20e+004 kcal/mol
USER        vdW + Hbond + desolv Energy     =  +1.20e+004 kcal/mol
USER        Electrostatic Energy            =   +0.00 kcal/mol
USER    (2) Final Total Internal Energy     =   +0.00 kcal/mol
USER    (3) Torsional Free Energy           =   +1.19 kcal/mol
USER    (4) Unbound System's Energy  [=(2)] =   +0.00 kcal/mol
USER    
USER    
USER    NEWDPF move ligand_415.pdbqt
USER    NEWDPF about 0.000000 0.000000 0.000000
USER    NEWDPF tran0 16.254316 7.124320 1.493924
USER    NEWDPF quaternion0 0.548908 -0.148854 0.031501 0.821918
USER    NEWDPF axisangle0 0.963665 -0.261328 0.055304 69.445418
USER    NEWDPF quat0 0.963665 -0.261328 0.055304 69.445418
USER  keepresnum = 1 
USER  
REMARK  0 active torsions:
REMARK  status: ('A' for Active; 'I' for Inactive)
REMARK       I    between atoms: C2_2  and  N1_67 
REMARK       I    between atoms: C3_3  and  N1_67 
REMARK       I    between atoms: C5_5  and  C10_10 
REMARK       I    between atoms: C6_6  and  O2_56 
REMARK       I    between atoms: C10_10  and  N2_68 
REMARK       I    between atoms: C11_11  and  C12_12 
REMARK       I    between atoms: C11_11  and  C16_16 
REMARK       I    between atoms: C11_11  and  N2_68 
REMARK       I    between atoms: C12_12  and  C13_13 
REMARK       I    between atoms: C13_13  and  C14_14 
REMARK       I    between atoms: C14_14  and  N3_69 
REMARK       I    between atoms: C15_15  and  N3_69 
REMARK       I    between atoms: C15_15  and  N4_70 
REMARK       I    between atoms: C15_15  and  N5_71 
REMARK       I    between atoms: C16_16  and  N6_72 
REMARK       I    between atoms: C17_17  and  N6_72 
REMARK       I    between atoms: C19_19  and  C24_24 
REMARK       I    between atoms: C20_20  and  O5_59 
REMARK       I    between atoms: C24_24  and  N7_73 
REMARK       I    between atoms: C25_25  and  C26_26 
REMARK       I    between atoms: C25_25  and  C30_30 
REMARK       I    between atoms: C25_25  and  N7_73 
REMARK       I    between atoms: C26_26  and  C27_27 
REMARK       I    between atoms: C27_27  and  C28_28 
REMARK       I    between atoms: C28_28  and  N8_74 
REMARK       I    between atoms: C29_29  and  N9_76 
REMARK       I    between atoms: C29_29  and  N10_77 
REMARK       I    between atoms: C30_30  and  N11_78 
REMARK       I    between atoms: C31_31  and  N11_78 
REMARK       I    between atoms: C33_33  and  C38_38 
REMARK       I    between atoms: C34_34  and  O8_62 
REMARK       I    between atoms: C38_38  and  N12_79 
REMARK       I    between atoms: C39_39  and  C40_40 
REMARK       I    between atoms: C39_39  and  C44_44 
REMARK       I    between atoms: C39_39  and  N12_79 
REMARK       I    between atoms: C40_40  and  C41_41 
REMARK       I    between atoms: C41_41  and  C42_42 
REMARK       I    between atoms: C42_42  and  N13_80 
REMARK       I    between atoms: C43_43  and  N14_82 
REMARK       I    between atoms: C43_43  and  N15_83 
REMARK       I    between atoms: C44_44  and  N16_84 
REMARK       I    between atoms: C45_45  and  N16_84 
REMARK       I    between atoms: C47_47  and  C52_52 
REMARK       I    between atoms: C48_48  and  O11_65 
REMARK       I    between atoms: C52_52  and  N17_85 
REMARK       I    between atoms: C53_53  and  C54_54 
REMARK       I    between atoms: C53_53  and  N17_85 
REMARK       I    between atoms: C54_54  and  N18_86 
USER                              x       y       z     vdW  Elec       q    Type
USER                           _______ _______ _______ _____ _____    ______ ____
ROOT
ATOM      1  C1  UNL     1       2.375  11.587   9.019 -0.08 +0.00    +0.117 C 
ATOM      2  C2  UNL     1       3.036  10.777   7.931 -0.29 +0.00    +0.218 C 
ATOM      3  C3  UNL     1       4.299   8.626   7.688 -0.30 +0.00    +0.035 A 
ATOM      4  C4  UNL     1       4.511   8.672   6.307+55.86 +0.00    +0.049 A 
ATOM      5  C5  UNL     1       5.204   7.639   5.652+99.99 +0.00    +0.067 A 
ATOM      6  C6  UNL     1       5.723   6.575   6.403 +0.97 +0.00    +0.084 A 
ATOM      7  C7  UNL     1       5.497   6.510   7.777 +0.13 +0.00    +0.040 A 
ATOM      8  C8  UNL     1       4.793   7.534   8.414 +4.66 +0.00    +0.032 A 
ATOM      9  C9  UNL     1       7.824   5.791   5.883 +0.31 +0.00    +0.210 C 
ATOM     10  C10 UNL     1       5.385   7.753   4.179+99.99 +0.00    +0.255 C 
ATOM     11  C11 UNL     1       5.954   6.577   2.075 -0.25 +0.00    +0.177 C 
ATOM     12  C12 UNL     1       5.517   5.275   1.395 -0.21 +0.00    +0.036 C 
ATOM     13  C13 UNL     1       5.841   5.186  -0.105 -0.19 +0.00    +0.033 C 
ATOM     14  C14 UNL     1       5.395   6.387  -0.949+10.84 +0.00    +0.275 C 
ATOM     15  C15 UNL     1       3.397   7.788  -1.370+99.99 +0.00    +0.673 C 
ATOM     16  C16 UNL     1       7.492   6.760   2.083 -0.22 +0.00    +0.245 C 
ATOM     17  C17 UNL     1       9.142   8.623   2.442 +5.24 +0.00    +0.035 A 
ATOM     18  C18 UNL     1      10.321   7.920   2.199 +1.07 +0.00    +0.049 A 
ATOM     19  C19 UNL     1      11.583   8.538   2.335+22.57 +0.00    +0.067 A 
ATOM     20  C20 UNL     1      11.651   9.898   2.707+99.99 +0.00    +0.084 A 
ATOM     21  C21 UNL     1      10.464  10.595   2.958+99.99 +0.00    +0.040 A 
ATOM     22  C22 UNL     1       9.224   9.964   2.823+99.99 +0.00    +0.032 A 
ATOM     23  C23 UNL     1      12.960  11.893   2.725+99.99 +0.00    +0.210 C 
ATOM     24  C24 UNL     1      12.780   7.676   2.047 +3.27 +0.00    +0.255 C 
ATOM     25  C25 UNL     1      15.264   7.529   1.929+44.42 +0.00    +0.177 C 
ATOM     26  C26 UNL     1      15.623   6.446   2.960+99.99 +0.00    +0.036 C 
ATOM     27  C27 UNL     1      15.926   6.929   4.387 +5.25 +0.00    +0.022 C 
ATOM     28  C28 UNL     1      17.318   7.524   4.613 +1.04 +0.00    +0.121 C 
ATOM     29  C29 UNL     1      19.564   6.856   4.368 +9.92 +0.00    +0.121 C 
ATOM     30  C30 UNL     1      16.345   8.605   1.661 -0.36 +0.00    +0.245 C 
ATOM     31  C31 UNL     1      18.764   8.820   1.076+10.18 +0.00    +0.035 A 
ATOM     32  C32 UNL     1      19.977   8.140   1.186+99.99 +0.00    +0.049 A 
ATOM     33  C33 UNL     1      21.205   8.798   1.001 +9.96 +0.00    +0.067 A 
ATOM     34  C34 UNL     1      21.218  10.157   0.635 -0.40 +0.00    +0.084 A 
ATOM     35  C35 UNL     1      19.995  10.820   0.475 -0.52 +0.00    +0.040 A 
ATOM     36  C36 UNL     1      18.780  10.159   0.703 -0.44 +0.00    +0.032 A 
ATOM     37  C37 UNL     1      22.456  12.158   0.195+43.66 +0.00    +0.210 C 
ATOM     38  C38 UNL     1      22.427   7.980   1.276 +1.71 +0.00    +0.255 C 
ATOM     39  C39 UNL     1      24.918   7.971   1.306 -0.35 +0.00    +0.177 C 
ATOM     40  C40 UNL     1      26.040   8.925   0.838 -0.13 +0.00    +0.036 C 
ATOM     41  C41 UNL     1      26.176   8.980  -0.696+21.72 +0.00    +0.022 C 
ATOM     42  C42 UNL     1      27.572   9.400  -1.158+99.99 +0.00    +0.121 C 
ATOM     43  C43 UNL     1      28.795   7.394  -1.526 -0.26 +0.00    +0.121 C 
ATOM     44  C44 UNL     1      25.365   6.521   0.969 -0.29 +0.00    +0.245 C 
ATOM     45  C45 UNL     1      24.693   4.625  -0.475 -0.49 +0.00    +0.035 A 
ATOM     46  C46 UNL     1      25.958   4.379  -1.008 -0.41 +0.00    +0.049 A 
ATOM     47  C47 UNL     1      26.194   3.286  -1.861 -0.16 +0.00    +0.067 A 
ATOM     48  C48 UNL     1      25.137   2.406  -2.167+12.69 +0.00    +0.084 A 
ATOM     49  C49 UNL     1      23.868   2.661  -1.627+99.99 +0.00    +0.040 A 
ATOM     50  C50 UNL     1      23.644   3.771  -0.803+22.20 +0.00    +0.032 A 
ATOM     51  C51 UNL     1      24.327   0.501  -3.373+73.00 +0.00    +0.210 C 
ATOM     52  C52 UNL     1      27.582   3.188  -2.418 -0.20 +0.00    +0.254 C 
ATOM     53  C53 UNL     1      29.276   1.773  -3.540 -0.11 +0.00    +0.152 C 
ATOM     54  C54 UNL     1      30.370   1.597  -2.477 -0.08 +0.00    +0.286 C 
ATOM     55  O1  UNL     1       3.052  11.178   6.774 -0.26 -0.00    -0.274 OA
ATOM     56  O2  UNL     1       6.413   5.546   5.816 -0.16 -0.00    -0.355 OA
ATOM     57  O3  UNL     1       5.453   8.854   3.638+99.99 -0.00    -0.268 OA
ATOM     58  O4  UNL     1       8.263   5.812   1.967 -0.10 -0.00    -0.271 OA
ATOM     59  O5  UNL     1      12.886  10.477   2.843+39.57 -0.00    -0.355 OA
ATOM     60  O6  UNL     1      12.642   6.536   1.613 -0.33 -0.00    -0.268 OA
ATOM     61  O7  UNL     1      16.068   9.806   1.693 -0.30 -0.00    -0.271 OA
ATOM     62  O8  UNL     1      22.438  10.758   0.459 +0.17 -0.00    -0.355 OA
ATOM     63  O9  UNL     1      22.343   6.921   1.896 +9.17 -0.00    -0.268 OA
ATOM     64  O10 UNL     1      26.480   6.108   1.286 -0.14 -0.00    -0.271 OA
ATOM     65  O11 UNL     1      25.410   1.342  -2.989 +1.10 -0.00    -0.355 OA
ATOM     66  O12 UNL     1      28.333   4.161  -2.379 -0.13 -0.00    -0.268 OA
ATOM     67  N1  UNL     1       3.605   9.613   8.416 -0.22 -0.00    -0.327 N 
ATOM     68  N2  UNL     1       5.524   6.578   3.475 +0.16 -0.00    -0.344 N 
ATOM     69  N3  UNL     1       3.963   6.627  -0.768+30.06 +0.00    +0.146 N 
ATOM     70  N4  UNL     1       4.094   8.943  -0.939+99.99 +0.00    +0.142 N 
ATOM     71  N5  UNL     1       3.573   7.737  -2.772+99.99 +0.00    +0.142 N 
ATOM     72  N6  UNL     1       7.852   8.078   2.330 -0.15 -0.00    -0.325 N 
ATOM     73  N7  UNL     1      14.023   8.210   2.283 +4.91 -0.00    -0.344 N 
ATOM     74  N8  UNL     1      18.332   6.561   4.182+77.90 -0.00    -0.372 N 
ATOM     75  H8  UNL     1      18.065   5.679   3.744 +4.86 +0.00    +0.161 HD
ATOM     76  N9  UNL     1      20.534   5.982   4.023+11.46 -0.00    -0.279 NA
ATOM     77  N10 UNL     1      20.117   7.973   4.887+20.80 -0.00    -0.279 NA
ATOM     78  N11 UNL     1      17.596   8.088   1.370 +0.29 -0.00    -0.325 N 
ATOM     79  N12 UNL     1      23.626   8.425   0.772 -0.18 -0.00    -0.344 N 
ATOM     80  N13 UNL     1      28.549   8.393  -0.764 +0.34 -0.00    -0.372 N 
ATOM     81  H13 UNL     1      29.041   8.484   0.124 +0.08 +0.00    +0.161 HD
ATOM     82  N14 UNL     1      29.702   6.470  -1.141 -0.06 -0.00    -0.279 NA
ATOM     83  N15 UNL     1      28.271   7.074  -2.730 +0.10 -0.00    -0.279 NA
ATOM     84  N16 UNL     1      24.422   5.754   0.314 -0.24 -0.00    -0.325 N 
ATOM     85  N17 UNL     1      27.967   1.985  -2.956 -0.08 -0.00    -0.355 N 
ATOM     86  N18 UNL     1      31.681   1.345  -3.080 -0.09 +0.00    +0.079 N 
ATOM     87  H54 UNL     1       3.518   9.451   9.413 +0.08 +0.00    +0.169 HD
ATOM     88  H55 UNL     1       5.687   5.731   4.011 +0.07 +0.00    +0.163 HD
ATOM     89  H56 UNL     1       3.463   5.837  -1.172 -0.31 +0.00    +0.321 HD
ATOM     90  H57 UNL     1       4.144   8.877   0.076+99.99 +0.00    +0.318 HD
ATOM     91  H58 UNL     1       3.521   9.759  -1.126+18.72 +0.00    +0.318 HD
ATOM     92  H59 UNL     1       4.563   7.909  -2.920+11.49 +0.00    +0.318 HD
ATOM     93  H60 UNL     1       3.122   8.555  -3.170 -0.07 +0.00    +0.318 HD
ATOM     94  H61 UNL     1       7.074   8.701   2.556 -0.01 +0.00    +0.169 HD
ATOM     95  H62 UNL     1      14.090   9.201   2.511 -0.48 +0.00    +0.163 HD
ATOM     96  H63 UNL     1      20.150   5.189   3.523 +1.75 +0.00    +0.126 HD
ATOM     97  H64 UNL     1      21.292   6.401   3.480 +0.61 +0.00    +0.126 HD
ATOM     98  H65 UNL     1      19.482   8.560   5.412 +0.28 +0.00    +0.126 HD
ATOM     99  H66 UNL     1      20.958   7.772   5.417+99.99 +0.00    +0.126 HD
ATOM    100  H67 UNL     1      17.747   7.119   1.633 +0.08 +0.00    +0.169 HD
ATOM    101  H68 UNL     1      23.603   9.379   0.421 +0.13 +0.00    +0.163 HD
ATOM    102  H69 UNL     1      29.436   5.513  -1.368 +0.05 +0.00    +0.126 HD
ATOM    103  H70 UNL     1      29.904   6.570  -0.152 +0.06 +0.00    +0.126 HD
ATOM    104  H71 UNL     1      28.275   6.074  -2.929 +0.04 +0.00    +0.126 HD
ATOM    105  H72 UNL     1      27.388   7.507  -2.955 +0.30 +0.00    +0.126 HD
ATOM    106  H73 UNL     1      23.456   5.970   0.546 +0.12 +0.00    +0.169 HD
ATOM    107  H74 UNL     1      27.281   1.238  -3.004 -0.20 +0.00    +0.162 HD
ATOM    108  H75 UNL     1      32.373   1.265  -2.336 +0.02 +0.00    +0.312 HD
ATOM    109  H76 UNL     1      31.957   2.166  -3.623 +0.05 +0.00    +0.312 HD
ENDROOT
TORSDOF 33
TER
