USER    Run = 1
USER    DPF = ligand_154_receptor.dpf
USER  
USER    Estimated Free Energy of Binding    =  +2.05e+005 kcal/mol  [=(1)+(2)+(3)-(4)]
USER    
USER    (1) Final Intermolecular Energy     =  +2.05e+005 kcal/mol
USER        vdW + Hbond + desolv Energy     =  +2.05e+005 kcal/mol
USER        Electrostatic Energy            =   +0.00 kcal/mol
USER    (2) Final Total Internal Energy     =   +0.00 kcal/mol
USER    (3) Torsional Free Energy           =   +1.19 kcal/mol
USER    (4) Unbound System's Energy  [=(2)] =   +0.00 kcal/mol
USER    
USER    
USER    NEWDPF move ligand_154.pdbqt
USER    NEWDPF about 0.000000 0.000000 0.000000
USER    NEWDPF tran0 11.932758 6.925455 1.837750
USER    NEWDPF quaternion0 -0.775712 -0.105948 0.144784 0.605048
USER    NEWDPF axisangle0 -0.974282 -0.133068 0.181847 105.535421
USER    NEWDPF quat0 -0.974282 -0.133068 0.181847 105.535421
USER  keepresnum = 1 
USER  
REMARK  0 active torsions:
REMARK  status: ('A' for Active; 'I' for Inactive)
REMARK       I    between atoms: C2_2  and  C3_3 
REMARK       I    between atoms: C3_3  and  C5_5 
REMARK       I    between atoms: C5_5  and  C6_6 
REMARK       I    between atoms: C5_5  and  N3_101 
REMARK       I    between atoms: C6_6  and  C7_7 
REMARK       I    between atoms: C6_6  and  O5_85 
REMARK       I    between atoms: C7_7  and  C8_8 
REMARK       I    between atoms: C8_8  and  N1_99 
REMARK       I    between atoms: C12_12  and  C13_13 
REMARK       I    between atoms: C13_13  and  C14_14 
REMARK       I    between atoms: C13_13  and  O4_84 
REMARK       I    between atoms: C14_14  and  C16_16 
REMARK       I    between atoms: C16_16  and  N2_100 
REMARK       I    between atoms: C17_17  and  C19_19 
REMARK       I    between atoms: C17_17  and  N2_100 
REMARK       I    between atoms: C19_19  and  C20_20 
REMARK       I    between atoms: C19_19  and  O3_83 
REMARK       I    between atoms: C29_29  and  C30_30 
REMARK       I    between atoms: C29_29  and  N3_101 
REMARK       I    between atoms: C30_30  and  C31_31 
REMARK       I    between atoms: C30_30  and  N4_102 
REMARK       I    between atoms: C34_34  and  C35_35 
REMARK       I    between atoms: C34_34  and  N4_102 
REMARK       I    between atoms: C35_35  and  C36_36 
REMARK       I    between atoms: C35_35  and  N5_103 
REMARK       I    between atoms: C40_40  and  O9_89 
REMARK       I    between atoms: C40_40  and  N5_103 
REMARK       I    between atoms: C41_41  and  C42_42 
REMARK       I    between atoms: C41_41  and  O9_89 
REMARK       I    between atoms: C45_45  and  N6_104 
REMARK       I    between atoms: C48_48  and  C49_49 
REMARK       I    between atoms: C48_48  and  N6_104 
REMARK       I    between atoms: C49_49  and  C50_50 
REMARK       I    between atoms: C49_49  and  N9_107 
REMARK       I    between atoms: C50_50  and  C51_51 
REMARK       I    between atoms: C51_51  and  C52_52 
REMARK       I    between atoms: C52_52  and  N7_105 
REMARK       I    between atoms: C53_53  and  N7_105 
REMARK       I    between atoms: C53_53  and  N8_106 
REMARK       I    between atoms: C54_54  and  C55_55 
REMARK       I    between atoms: C54_54  and  N9_107 
REMARK       I    between atoms: C55_55  and  C56_56 
REMARK       I    between atoms: C55_55  and  N10_108 
REMARK       I    between atoms: C59_59  and  C60_60 
REMARK       I    between atoms: C59_59  and  N10_108 
REMARK       I    between atoms: C60_60  and  C61_61 
REMARK       I    between atoms: C61_61  and  O14_94 
REMARK       I    between atoms: C62_62  and  C63_63 
REMARK       I    between atoms: C62_62  and  O14_94 
REMARK       I    between atoms: C63_63  and  O15_95 
REMARK       I    between atoms: C64_64  and  C65_65 
REMARK       I    between atoms: C64_64  and  O15_95 
REMARK       I    between atoms: C65_65  and  O16_96 
REMARK       I    between atoms: C66_66  and  C67_67 
REMARK       I    between atoms: C66_66  and  O16_96 
REMARK       I    between atoms: C67_67  and  O17_97 
REMARK       I    between atoms: C68_68  and  C69_69 
REMARK       I    between atoms: C68_68  and  O17_97 
REMARK       I    between atoms: C69_69  and  N11_109 
REMARK       I    between atoms: C70_70  and  C71_71 
REMARK       I    between atoms: C70_70  and  N11_109 
REMARK       I    between atoms: C77_77  and  C80_80 
REMARK       I    between atoms: C78_78  and  C79_79 
USER                              x       y       z     vdW  Elec       q    Type
USER                           _______ _______ _______ _____ _____    ______ ____
ROOT
ATOM      1  C1  UNL     1       5.511   3.585   8.011 +9.97 +0.00    +0.005 C 
ATOM      2  C2  UNL     1       6.926   3.079   7.767 +2.39 +0.00    +0.002 C 
ATOM      3  C3  UNL     1       7.304   2.918   6.277+31.45 +0.00    +0.006 C 
ATOM      4  C4  UNL     1       8.697   2.284   6.193+16.02 +0.00    +0.012 C 
ATOM      5  C5  UNL     1       7.131   4.211   5.396 -0.30 +0.00    +0.119 C 
ATOM      6  C6  UNL     1       8.123   5.385   5.705 -0.21 +0.00    +0.152 C 
ATOM      7  C7  UNL     1       8.058   6.595   4.753 +1.49 +0.00    +0.137 C 
ATOM      8  C8  UNL     1       6.688   7.216   4.514+85.71 +0.00    +0.222 C 
ATOM      9  C9  UNL     1       7.821   8.968   3.076 +4.67 +0.00    +0.126 C 
ATOM     10  C10 UNL     1       7.270   9.591   1.803+99.99 +0.00    +0.022 C 
ATOM     11  C11 UNL     1       5.864  10.004   2.209+99.99 +0.00    +0.029 C 
ATOM     12  C12 UNL     1       5.420   8.856   3.130+48.84 +0.00    +0.117 C 
ATOM     13  C13 UNL     1       4.231   9.200   4.069+42.64 +0.00    +0.156 C 
ATOM     14  C14 UNL     1       4.302  10.552   4.801 +6.44 +0.00    +0.105 C 
ATOM     15  C15 UNL     1       3.103  10.733   5.746 -0.38 +0.00    +0.022 C 
ATOM     16  C16 UNL     1       5.579  10.777   5.596+99.99 +0.00    +0.224 C 
ATOM     17  C17 UNL     1       6.853  10.045   7.607+99.99 +0.00    +0.113 C 
ATOM     18  C18 UNL     1       8.284  10.015   7.060+99.99 +0.00    +0.035 C 
ATOM     19  C19 UNL     1       6.693   9.014   8.760 +2.60 +0.00    +0.173 C 
ATOM     20  C20 UNL     1       5.277   8.929   9.303+40.35 -0.00    -0.028 A 
ATOM     21  C21 UNL     1       4.546   7.738   9.173+99.99 +0.00    +0.010 A 
ATOM     22  C22 UNL     1       3.239   7.653   9.655+99.99 +0.00    +0.001 A 
ATOM     23  C23 UNL     1       2.650   8.754  10.272+13.95 +0.00    +0.000 A 
ATOM     24  C24 UNL     1       3.365   9.941  10.410 +1.90 +0.00    +0.001 A 
ATOM     25  C25 UNL     1       4.673  10.029   9.930 +8.04 +0.00    +0.010 A 
ATOM     26  C26 UNL     1       2.375   7.968   3.196 +0.86 +0.00    +0.202 C 
ATOM     27  C27 UNL     1       9.158   6.151   7.716 +1.65 +0.00    +0.202 C 
ATOM     28  C28 UNL     1       5.610   3.629   3.523 -0.14 +0.00    +0.153 C 
ATOM     29  C29 UNL     1       8.094   3.745   3.114 -0.16 +0.00    +0.243 C 
ATOM     30  C30 UNL     1       7.969   3.398   1.590 -0.13 +0.00    +0.180 C 
ATOM     31  C31 UNL     1       8.280   1.904   1.295 -0.29 +0.00    +0.009 C 
ATOM     32  C32 UNL     1       7.293   0.924   1.931 +1.30 +0.00    +0.012 C 
ATOM     33  C33 UNL     1       9.712   1.517   1.681 +0.09 +0.00    +0.012 C 
ATOM     34  C34 UNL     1       6.514   5.159   0.654 -0.11 +0.00    +0.241 C 
ATOM     35  C35 UNL     1       5.280   5.410  -0.260 -0.09 +0.00    +0.184 C 
ATOM     36  C36 UNL     1       5.139   6.885  -0.727 +5.88 +0.00    +0.010 C 
ATOM     37  C37 UNL     1       6.233   7.391  -1.664+99.99 +0.00    +0.012 C 
ATOM     38  C38 UNL     1       3.768   7.171  -1.343+99.99 +0.00    +0.012 C 
ATOM     39  C39 UNL     1       3.774   3.739  -1.383 -0.13 +0.00    +0.156 C 
ATOM     40  C40 UNL     1       5.992   4.110  -2.314 +1.08 +0.00    +0.363 C 
ATOM     41  C41 UNL     1       8.220   4.381  -3.030 -0.09 +0.00    +0.219 C 
ATOM     42  C42 UNL     1       9.507   4.851  -2.407 -0.18 -0.00    -0.034 A 
ATOM     43  C43 UNL     1       9.844   6.210  -2.425 -0.24 +0.00    +0.011 A 
ATOM     44  C44 UNL     1      10.947   6.683  -1.708 -0.30 +0.00    +0.030 A 
ATOM     45  C45 UNL     1      11.730   5.805  -0.961 -0.35 +0.00    +0.034 A 
ATOM     46  C46 UNL     1      11.433   4.438  -0.991 +0.49 +0.00    +0.030 A 
ATOM     47  C47 UNL     1      10.327   3.963  -1.703 -0.16 +0.00    +0.011 A 
ATOM     48  C48 UNL     1      13.135   7.521   0.205 +7.67 +0.00    +0.245 C 
ATOM     49  C49 UNL     1      13.869   7.611   1.567 +9.10 +0.00    +0.177 C 
ATOM     50  C50 UNL     1      12.824   7.426   2.677 -0.27 +0.00    +0.036 C 
ATOM     51  C51 UNL     1      13.447   7.208   4.058 -0.51 +0.00    +0.022 C 
ATOM     52  C52 UNL     1      12.393   6.805   5.093 -0.36 +0.00    +0.124 C 
ATOM     53  C53 UNL     1      12.425   4.350   5.062 +1.64 +0.00    +0.313 C 
ATOM     54  C54 UNL     1      15.767   9.086   1.072 +0.38 +0.00    +0.241 C 
ATOM     55  C55 UNL     1      16.175  10.574   0.974 -0.40 +0.00    +0.180 C 
ATOM     56  C56 UNL     1      17.685  10.761   0.720 -0.57 +0.00    +0.009 C 
ATOM     57  C57 UNL     1      18.514  10.242   1.902 -0.52 +0.00    +0.012 C 
ATOM     58  C58 UNL     1      18.037  12.234   0.483 -0.21 +0.00    +0.012 C 
ATOM     59  C59 UNL     1      14.109  11.633   0.118 +2.98 +0.00    +0.220 C 
ATOM     60  C60 UNL     1      13.315  12.085  -1.092 +3.36 +0.00    +0.129 C 
ATOM     61  C61 UNL     1      14.166  12.609  -2.237+39.86 +0.00    +0.177 C 
ATOM     62  C62 UNL     1      15.527  11.827  -4.040+99.99 +0.00    +0.193 C 
ATOM     63  C63 UNL     1      16.969  11.758  -3.527+99.99 +0.00    +0.193 C 
ATOM     64  C64 UNL     1      17.125   9.366  -3.596 +1.75 +0.00    +0.193 C 
ATOM     65  C65 UNL     1      17.750   8.171  -2.874 +0.26 +0.00    +0.193 C 
ATOM     66  C66 UNL     1      19.967   8.838  -2.212+99.99 +0.00    +0.193 C 
ATOM     67  C67 UNL     1      20.186   8.112  -0.879+74.51 +0.00    +0.193 C 
ATOM     68  C68 UNL     1      20.722   5.927  -1.696+22.31 +0.00    +0.187 C 
ATOM     69  C69 UNL     1      21.684   4.769  -1.433+99.99 +0.00    +0.149 C 
ATOM     70  C70 UNL     1      24.008   4.150  -1.963+24.40 +0.00    +0.251 C 
ATOM     71  C71 UNL     1      25.400   4.634  -2.168 -0.30 +0.00    +0.034 A 
ATOM     72  C72 UNL     1      26.459   3.793  -1.807 -0.34 +0.00    +0.049 A 
ATOM     73  C73 UNL     1      27.781   4.184  -1.978 -0.22 +0.00    +0.060 A 
ATOM     74  C74 UNL     1      28.061   5.449  -2.536 +0.25 +0.00    +0.059 A 
ATOM     75  C75 UNL     1      27.007   6.274  -2.908+36.29 +0.00    +0.033 A 
ATOM     76  C76 UNL     1      25.679   5.879  -2.733 +3.96 +0.00    +0.019 A 
ATOM     77  C77 UNL     1      30.332   5.028  -2.347 -0.07 +0.00    +0.043 A 
ATOM     78  C78 UNL     1      30.057   3.774  -1.793 -0.08 +0.00    +0.043 A 
ATOM     79  C79 UNL     1      31.118   2.814  -1.347 -0.09 +0.00    +0.144 C 
ATOM     80  C80 UNL     1      31.720   5.535  -2.594 -0.02 +0.00    +0.144 C 
ATOM     81  O1  UNL     1       5.649   6.734   4.965 +6.10 -0.00    -0.273 OA
ATOM     82  O2  UNL     1       6.250  11.796   5.441+99.99 -0.00    -0.273 OA
ATOM     83  O3  UNL     1       7.585   9.315   9.837 +1.39 -0.00    -0.389 OA
ATOM     84  O4  UNL     1       3.027   9.232   3.260 +0.10 -0.00    -0.388 OA
ATOM     85  O5  UNL     1       7.929   5.853   7.055 -0.08 -0.00    -0.388 OA
ATOM     86  O6  UNL     1       9.240   3.858   3.577 -0.20 -0.00    -0.271 OA
ATOM     87  O7  UNL     1       7.118   6.048   1.246 -0.13 -0.00    -0.271 OA
ATOM     88  O8  UNL     1       5.751   3.429  -3.301 -0.12 -0.00    -0.238 OA
ATOM     89  O9  UNL     1       7.205   4.646  -2.054 +0.51 -0.00    -0.299 OA
ATOM     90  O10 UNL     1      12.858   8.522  -0.451+99.99 -0.00    -0.271 OA
ATOM     91  O11 UNL     1      13.445   4.228   5.721 -0.22 -0.00    -0.248 OA
ATOM     92  O12 UNL     1      16.425   8.163   0.597 -0.42 -0.00    -0.271 OA
ATOM     93  O13 UNL     1      13.618  11.653   1.247 +1.66 -0.00    -0.274 OA
ATOM     94  O14 UNL     1      14.601  11.489  -3.009+99.99 -0.00    -0.389 OA
ATOM     95  O15 UNL     1      17.274  10.555  -2.810+36.13 -0.00    -0.387 OA
ATOM     96  O16 UNL     1      19.159   8.086  -3.124+10.67 -0.00    -0.387 OA
ATOM     97  O17 UNL     1      21.171   7.072  -0.959 +9.76 -0.00    -0.387 OA
ATOM     98  O18 UNL     1      23.778   2.948  -1.909+99.99 -0.00    -0.268 OA
ATOM     99  N1  UNL     1       6.663   8.366   3.734+99.99 -0.00    -0.345 N 
ATOM    100  N2  UNL     1       5.870   9.825   6.542+99.99 -0.00    -0.354 N 
ATOM    101  N3  UNL     1       6.987   3.833   3.953 -0.08 -0.00    -0.347 N 
ATOM    102  N4  UNL     1       6.752   3.815   0.897 +0.01 -0.00    -0.346 N 
ATOM    103  N5  UNL     1       5.089   4.354  -1.289 -0.07 -0.00    -0.319 N 
ATOM    104  N6  UNL     1      12.759   6.216  -0.093 -0.33 -0.00    -0.325 N 
ATOM    105  N7  UNL     1      11.791   5.523   4.786 -0.11 -0.00    -0.343 N 
ATOM    106  N8  UNL     1      11.813   3.289   4.482 +1.38 -0.00    -0.352 N 
ATOM    107  N9  UNL     1      14.541   8.893   1.687+75.44 -0.00    -0.346 N 
ATOM    108  N10 UNL     1      15.370  11.141  -0.114 +3.17 -0.00    -0.347 N 
ATOM    109  N11 UNL     1      23.042   5.119  -1.817+47.01 -0.00    -0.355 N 
ATOM    110  N12 UNL     1      29.325   5.866  -2.718 -0.07 -0.00    -0.355 N 
ATOM    111  H12 UNL     1      29.525   6.781  -3.122 +0.05 +0.00    +0.166 HD
ATOM    112  N13 UNL     1      28.774   3.356  -1.609 -0.07 -0.00    -0.355 N 
ATOM    113  H13 UNL     1      28.572   2.442  -1.204 +0.00 +0.00    +0.166 HD
ATOM    114 BR1  UNL     1      31.708   3.278   0.450 -0.34 -0.00    -0.090 Br
ATOM    115 BR2  UNL     1      32.371   4.859  -4.300 -0.04 -0.00    -0.090 Br
ATOM    116  HB2 UNL     1       7.191   8.945  10.647 +0.78 +0.00    +0.210 HD
ATOM    117  HB3 UNL     1       5.286   8.999   6.603 +1.41 +0.00    +0.163 HD
ATOM    118  HB4 UNL     1       6.392   3.202   0.175 +0.05 +0.00    +0.163 HD
ATOM    119  HB5 UNL     1      13.193   5.484   0.457 +0.02 +0.00    +0.169 HD
ATOM    120  HB6 UNL     1      11.065   5.472   4.084 +0.08 +0.00    +0.164 HD
ATOM    121  HB7 UNL     1      10.814   3.359   4.299 -0.00 +0.00    +0.160 HD
ATOM    122  HB8 UNL     1      12.146   2.389   4.796 +0.16 +0.00    +0.160 HD
ATOM    123  HB9 UNL     1      13.941   9.721   1.697+99.99 +0.00    +0.163 HD
ATOM    124  HC0 UNL     1      15.568  10.808  -1.057+60.42 +0.00    +0.163 HD
ATOM    125  HC1 UNL     1      23.321   6.059  -1.561 +0.11 +0.00    +0.162 HD
ENDROOT
TORSDOF 52
TER
