USER    Run = 1
USER    DPF = ligand_265_receptor.dpf
USER  
USER    Estimated Free Energy of Binding    =  +10.67 kcal/mol  [=(1)+(2)+(3)-(4)]
USER    
USER    (1) Final Intermolecular Energy     =   +9.48 kcal/mol
USER        vdW + Hbond + desolv Energy     =   +9.48 kcal/mol
USER        Electrostatic Energy            =   +0.00 kcal/mol
USER    (2) Final Total Internal Energy     =   +1.89 kcal/mol
USER    (3) Torsional Free Energy           =   +1.19 kcal/mol
USER    (4) Unbound System's Energy  [=(2)] =   +1.89 kcal/mol
USER    
USER    
USER    NEWDPF move ligand_265.pdbqt
USER    NEWDPF about 0.000000 0.000000 0.000000
USER    NEWDPF tran0 16.640869 8.969243 1.820940
USER    NEWDPF quaternion0 0.048298 -0.976281 -0.085688 -0.192876
USER    NEWDPF axisangle0 0.049223 -0.994963 -0.087328 -157.758649
USER    NEWDPF quat0 0.049223 -0.994963 -0.087328 -157.758649
USER    NEWDPF dihe0 59.63 151.50 -90.90 -30.65 -179.95 148.39 -62.69 18.92 -180.00 -136.75 -53.77 -113.19 -4.59 91.54 -146.89 -119.15 -180.00 -56.29 
USER  keepresnum = 1 
USER  
REMARK  18 active torsions:
REMARK  status: ('A' for Active; 'I' for Inactive)
REMARK    1  A    between atoms: C3_3  and  N3_45 
REMARK    2  A    between atoms: C6_6  and  C7_7 
REMARK    3  A    between atoms: C7_7  and  C8_8 
REMARK    4  A    between atoms: C8_8  and  N1_43 
REMARK    5  A    between atoms: C11_11  and  O1_48 
REMARK       I    between atoms: C14_14  and  N2_44 
REMARK    6  A    between atoms: C14_14  and  O1_48 
REMARK    7  A    between atoms: C15_15  and  N2_44 
REMARK    8  A    between atoms: C20_20  and  C21_21 
REMARK    9  A    between atoms: C27_27  and  C28_28 
REMARK       I    between atoms: C27_27  and  N3_45 
REMARK   10  A    between atoms: C28_28  and  C29_29 
REMARK   11  A    between atoms: C29_29  and  C30_30 
REMARK   12  A    between atoms: C30_30  and  C31_31 
REMARK   13  A    between atoms: C31_31  and  N4_46 
REMARK   14  A    between atoms: C32_32  and  C33_33 
REMARK   15  A    between atoms: C32_32  and  N4_46 
REMARK   16  A    between atoms: C33_33  and  C34_34 
REMARK   17  A    between atoms: C33_33  and  O6_53 
REMARK   18  A    between atoms: C40_40  and  O5_52 
USER                              x       y       z     vdW  Elec       q    Type
USER                           _______ _______ _______ _____ _____    ______ ____
ROOT
ATOM      1  C1  UNL     1      16.105   8.267   0.219 -0.55 +0.00    +0.007 C 
ATOM      2  C2  UNL     1      14.862   8.134   1.102 +5.97 +0.00    +0.025 C 
ATOM      3  C3  UNL     1      15.148   8.575   2.537 -0.10 +0.00    +0.084 C 
ATOM      4  C4  UNL     1      16.255   7.725   3.182 -0.41 +0.00    +0.025 C 
ATOM      5  C5  UNL     1      17.127   6.988   2.163 +1.77 +0.00    +0.007 C 
ATOM      6  C6  UNL     1      17.414   7.808   0.896 +2.63 -0.00    -0.013 C 
ENDROOT
BRANCH   3   7
ATOM      7  N3  UNL     1      13.931   8.537   3.335 -0.10 -0.00    -0.356 N 
ATOM      8  C27 UNL     1      13.953   8.196   4.674 -0.35 +0.00    +0.217 C 
ATOM      9  O3  UNL     1      14.986   7.992   5.302 +0.13 -0.00    -0.274 OA
ATOM     10  H49 UNL     1      13.041   8.514   2.854 -0.37 +0.00    +0.162 HD
BRANCH   8  11
ATOM     11  C28 UNL     1      12.561   8.101   5.272 -0.35 +0.00    +0.103 C 
BRANCH  11  12
ATOM     12  C29 UNL     1      11.537   7.566   4.275 -0.45 +0.00    +0.011 C 
BRANCH  12  13
ATOM     13  C30 UNL     1      10.087   7.588   4.774 -0.15 +0.00    +0.030 C 
BRANCH  13  14
ATOM     14  C31 UNL     1       9.043   7.051   3.788 -0.15 +0.00    +0.270 C 
BRANCH  14  15
ATOM     15  N4  UNL     1       9.569   6.254   2.678 -0.22 +0.00    +0.086 N 
ATOM     16  H50 UNL     1      10.138   5.499   3.063 +0.12 +0.00    +0.315 HD
BRANCH  15  17
ATOM     17  C32 UNL     1      10.389   7.012   1.713 -0.18 +0.00    +0.306 C 
BRANCH  17  18
ATOM     18  C33 UNL     1       9.784   7.327   0.314 -0.17 +0.00    +0.180 C 
BRANCH  18  19
ATOM     19  C34 UNL     1       8.472   6.607   0.033 -0.27 -0.00    -0.015 A 
ATOM     20  C35 UNL     1       8.411   5.397  -0.692 -0.16 +0.00    +0.003 A 
ATOM     21  C36 UNL     1       9.589   4.702  -1.241 -0.17 +0.00    +0.020 A 
ATOM     22  C39 UNL     1       7.154   4.801  -0.919 +0.09 +0.00    +0.079 A 
ATOM     23  C37 UNL     1       9.462   3.551  -1.914 -0.14 +0.00    +0.075 A 
ATOM     24  C38 UNL     1       8.139   2.926  -2.141 -0.04 +0.00    +0.245 A 
ATOM     25  N5  UNL     1       7.066   3.593  -1.629 -0.03 -0.00    -0.321 N 
ATOM     26  O4  UNL     1       8.042   1.871  -2.756 -0.42 -0.00    -0.268 OA
ATOM     27  H51 UNL     1       6.146   3.193  -1.773 +0.04 +0.00    +0.169 HD
ATOM     28  C40 UNL     1       5.978   5.388  -0.451 +0.26 +0.00    +0.093 A 
ATOM     29  C41 UNL     1       6.025   6.583   0.250 -0.22 +0.00    +0.039 A 
ATOM     30  C42 UNL     1       7.262   7.185   0.485 -0.40 +0.00    +0.013 A 
BRANCH  28  31
ATOM     31  O5  UNL     1       4.784   4.765  -0.702 -0.16 -0.00    -0.358 OA
ATOM     32  H52 UNL     1       4.222   5.363  -1.223 -0.29 +0.00    +0.217 HD
ENDBRANCH  28  31
ENDBRANCH  18  19
BRANCH  18  33
ATOM     33  O6  UNL     1      10.747   7.082  -0.716 -0.16 -0.00    -0.389 OA
ATOM     34  H53 UNL     1      11.622   7.264  -0.333 +0.11 +0.00    +0.210 HD
ENDBRANCH  18  33
ENDBRANCH  17  18
ENDBRANCH  15  17
ENDBRANCH  14  15
ENDBRANCH  13  14
ENDBRANCH  12  13
ENDBRANCH  11  12
ENDBRANCH   8  11
ENDBRANCH   3   7
BRANCH   6  35
ATOM     35  C7  UNL     1      18.370   8.985   1.213 +0.96 +0.00    +0.034 C 
BRANCH  35  36
ATOM     36  C8  UNL     1      18.592   9.262   2.712 -0.30 +0.00    +0.272 C 
BRANCH  36  37
ATOM     37  N1  UNL     1      19.374  10.471   3.016 -0.01 +0.00    +0.088 N 
ATOM     38  C9  UNL     1      19.225  11.551   2.037 -0.39 +0.00    +0.275 C 
ATOM     39  C10 UNL     1      19.888  11.262   0.689 -0.63 +0.00    +0.063 C 
ATOM     40  C11 UNL     1      21.250  10.574   0.841 -0.29 +0.00    +0.137 C 
ATOM     41  C12 UNL     1      21.783  10.733   2.262 +2.92 +0.00    +0.063 C 
ATOM     42  C13 UNL     1      20.791  10.147   3.271 +1.54 +0.00    +0.275 C 
BRANCH  40  43
ATOM     43  O1  UNL     1      22.157  11.174  -0.105 -0.23 -0.00    -0.298 OA
BRANCH  43  44
ATOM     44  C14 UNL     1      22.981  10.324  -0.776 +0.71 +0.00    +0.365 C 
ATOM     45  N2  UNL     1      23.257   9.273   0.048 -0.24 -0.00    -0.302 N 
ATOM     46  H48 UNL     1      22.807   9.347   0.952 +0.13 +0.00    +0.171 HD
ATOM     47  O2  UNL     1      23.375  10.514  -1.916 +2.32 -0.00    -0.238 OA
BRANCH  45  48
ATOM     48  C15 UNL     1      24.060   8.137  -0.191 -0.43 +0.00    +0.048 A 
ATOM     49  C16 UNL     1      24.214   7.586  -1.469 -0.32 +0.00    +0.030 A 
ATOM     50  C17 UNL     1      25.017   6.460  -1.671 -0.50 +0.00    +0.002 A 
ATOM     51  C18 UNL     1      25.678   5.870  -0.600 -0.43 +0.00    +0.001 A 
ATOM     52  C19 UNL     1      25.535   6.406   0.678 -0.39 +0.00    +0.014 A 
ATOM     53  C20 UNL     1      24.733   7.539   0.904 -0.42 +0.00    +0.001 A 
BRANCH  53  54
ATOM     54  C21 UNL     1      24.622   8.058   2.276 -0.42 -0.00    -0.024 A 
ATOM     55  C22 UNL     1      25.295   7.429   3.335 +0.07 +0.00    +0.012 A 
ATOM     56  C23 UNL     1      25.204   7.931   4.634 +0.65 +0.00    +0.001 A 
ATOM     57  C24 UNL     1      24.437   9.065   4.891 +1.20 +0.00    +0.000 A 
ATOM     58  C25 UNL     1      23.761   9.700   3.851 -0.63 +0.00    +0.001 A 
ATOM     59  C26 UNL     1      23.852   9.198   2.550 -0.50 +0.00    +0.012 A 
ENDBRANCH  53  54
ENDBRANCH  45  48
ENDBRANCH  43  44
ENDBRANCH  40  43
ENDBRANCH  36  37
ENDBRANCH  35  36
ENDBRANCH   6  35
TORSDOF 18
TER
