USER    Run = 1
USER    DPF = ligand_342_receptor.dpf
USER  
USER    Estimated Free Energy of Binding    =  +6.83e+004 kcal/mol  [=(1)+(2)+(3)-(4)]
USER    
USER    (1) Final Intermolecular Energy     =  +6.83e+004 kcal/mol
USER        vdW + Hbond + desolv Energy     =  +6.83e+004 kcal/mol
USER        Electrostatic Energy            =   +0.00 kcal/mol
USER    (2) Final Total Internal Energy     =   +0.00 kcal/mol
USER    (3) Torsional Free Energy           =   +1.19 kcal/mol
USER    (4) Unbound System's Energy  [=(2)] =   +0.00 kcal/mol
USER    
USER    
USER    NEWDPF move ligand_342.pdbqt
USER    NEWDPF about 0.000000 0.000000 0.000000
USER    NEWDPF tran0 12.931437 6.936164 1.537408
USER    NEWDPF quaternion0 -0.180829 0.882871 0.432059 0.034144
USER    NEWDPF axisangle0 -0.180935 0.883386 0.432311 176.086621
USER    NEWDPF quat0 -0.180935 0.883386 0.432311 176.086621
USER  keepresnum = 1 
USER  
REMARK  0 active torsions:
REMARK  status: ('A' for Active; 'I' for Inactive)
REMARK       I    between atoms: C2_2  and  C4_4 
REMARK       I    between atoms: C4_4  and  C5_5 
REMARK       I    between atoms: C5_5  and  C6_6 
REMARK       I    between atoms: C5_5  and  N15_84 
REMARK       I    between atoms: C6_6  and  N1_68 
REMARK       I    between atoms: C7_7  and  C8_8 
REMARK       I    between atoms: C7_7  and  C11_11 
REMARK       I    between atoms: C7_7  and  N1_68 
REMARK       I    between atoms: C8_8  and  C9_9 
REMARK       I    between atoms: C9_9  and  C10_10 
REMARK       I    between atoms: C10_10  and  N2_69 
REMARK       I    between atoms: C11_11  and  N3_70 
REMARK       I    between atoms: C12_12  and  C13_13 
REMARK       I    between atoms: C12_12  and  C14_14 
REMARK       I    between atoms: C12_12  and  N3_70 
REMARK       I    between atoms: C13_13  and  O4_57 
REMARK       I    between atoms: C14_14  and  N4_71 
REMARK       I    between atoms: C15_15  and  C16_16 
REMARK       I    between atoms: C15_15  and  C20_20 
REMARK       I    between atoms: C15_15  and  N4_71 
REMARK       I    between atoms: C16_16  and  C17_17 
REMARK       I    between atoms: C17_17  and  C18_18 
REMARK       I    between atoms: C18_18  and  N5_72 
REMARK       I    between atoms: C19_19  and  N6_74 
REMARK       I    between atoms: C19_19  and  N7_75 
REMARK       I    between atoms: C20_20  and  N8_76 
REMARK       I    between atoms: C21_21  and  C22_22 
REMARK       I    between atoms: C21_21  and  C25_25 
REMARK       I    between atoms: C21_21  and  N8_76 
REMARK       I    between atoms: C25_25  and  N9_77 
REMARK       I    between atoms: C26_26  and  C27_27 
REMARK       I    between atoms: C26_26  and  N9_77 
REMARK       I    between atoms: C27_27  and  N10_78 
REMARK       I    between atoms: C28_28  and  C29_29 
REMARK       I    between atoms: C28_28  and  C36_36 
REMARK       I    between atoms: C28_28  and  N10_78 
REMARK       I    between atoms: C29_29  and  C30_30 
REMARK       I    between atoms: C33_33  and  O9_62 
REMARK       I    between atoms: C36_36  and  N11_79 
REMARK       I    between atoms: C37_37  and  C38_38 
REMARK       I    between atoms: C37_37  and  C41_41 
REMARK       I    between atoms: C37_37  and  N11_79 
REMARK       I    between atoms: C38_38  and  C39_39 
REMARK       I    between atoms: C39_39  and  S1_87 
REMARK       I    between atoms: C41_41  and  N12_80 
REMARK       I    between atoms: C42_42  and  C43_43 
REMARK       I    between atoms: C42_42  and  C47_47 
REMARK       I    between atoms: C42_42  and  N12_80 
REMARK       I    between atoms: C43_43  and  C44_44 
REMARK       I    between atoms: C47_47  and  O13_66 
REMARK       I    between atoms: C48_48  and  C49_49 
REMARK       I    between atoms: C48_48  and  N15_84 
REMARK       I    between atoms: C49_49  and  C50_50 
REMARK       I    between atoms: C49_49  and  N17_86 
REMARK       I    between atoms: C50_50  and  C51_51 
REMARK       I    between atoms: C51_51  and  C52_52 
REMARK       I    between atoms: C52_52  and  C53_53 
REMARK       I    between atoms: C53_53  and  N16_85 
USER                              x       y       z     vdW  Elec       q    Type
USER                           _______ _______ _______ _____ _____    ______ ____
ROOT
ATOM      1  C1  UNL     1       6.789   2.769  -2.255 -0.13 +0.00    +0.009 C 
ATOM      2  C2  UNL     1       7.862   3.419  -3.128 -0.17 -0.00    -0.020 C 
ATOM      3  C3  UNL     1       7.226   4.397  -4.115 +0.02 +0.00    +0.009 C 
ATOM      4  C4  UNL     1       9.006   4.039  -2.297 -0.19 +0.00    +0.038 C 
ATOM      5  C5  UNL     1       8.620   5.125  -1.281 -0.10 +0.00    +0.177 C 
ATOM      6  C6  UNL     1       9.806   5.447  -0.334 -0.13 +0.00    +0.241 C 
ATOM      7  C7  UNL     1      10.475   6.726   1.674 -0.26 +0.00    +0.177 C 
ATOM      8  C8  UNL     1      10.212   8.124   2.245 +1.64 +0.00    +0.044 C 
ATOM      9  C9  UNL     1      11.263   8.574   3.266 +0.83 +0.00    +0.105 C 
ATOM     10  C10 UNL     1      12.614   8.794   2.622+20.48 +0.00    +0.215 C 
ATOM     11  C11 UNL     1      10.407   5.648   2.776 -0.10 +0.00    +0.241 C 
ATOM     12  C12 UNL     1      11.554   3.616   3.561+33.56 +0.00    +0.200 C 
ATOM     13  C13 UNL     1      12.162   2.337   2.966+99.99 +0.00    +0.199 C 
ATOM     14  C14 UNL     1      12.615   4.319   4.434+63.97 +0.00    +0.243 C 
ATOM     15  C15 UNL     1      14.009   3.989   6.422 +1.17 +0.00    +0.176 C 
ATOM     16  C16 UNL     1      13.833   3.936   7.943 -0.06 +0.00    +0.036 C 
ATOM     17  C17 UNL     1      13.484   2.579   8.567+11.90 +0.00    +0.022 C 
ATOM     18  C18 UNL     1      12.019   2.163   8.429+12.29 +0.00    +0.121 C 
ATOM     19  C19 UNL     1      10.675   1.015   6.883+99.99 +0.00    +0.121 C 
ATOM     20  C20 UNL     1      15.035   2.969   5.864+99.99 +0.00    +0.241 C 
ATOM     21  C21 UNL     1      17.449   2.293   5.890+99.99 +0.00    +0.180 C 
ATOM     22  C22 UNL     1      17.507   0.864   6.480+12.68 +0.00    +0.009 C 
ATOM     23  C23 UNL     1      16.382  -0.070   6.037 -0.56 +0.00    +0.012 C 
ATOM     24  C24 UNL     1      17.575   0.901   8.011+14.10 +0.00    +0.012 C 
ATOM     25  C25 UNL     1      17.701   2.368   4.359+99.99 +0.00    +0.241 C 
ATOM     26  C26 UNL     1      17.604   3.946   2.433+16.72 +0.00    +0.225 C 
ATOM     27  C27 UNL     1      18.138   5.380   2.344+30.63 +0.00    +0.236 C 
ATOM     28  C28 UNL     1      18.401   7.339   0.866+99.99 +0.00    +0.180 C 
ATOM     29  C29 UNL     1      18.872   7.554  -0.583+99.99 +0.00    +0.073 C 
ATOM     30  C30 UNL     1      19.765   8.758  -0.774+15.86 -0.00    -0.056 A 
ATOM     31  C31 UNL     1      21.013   8.832  -0.138 +7.87 +0.00    +0.010 A 
ATOM     32  C32 UNL     1      21.830   9.954  -0.300 +0.14 +0.00    +0.037 A 
ATOM     33  C33 UNL     1      21.400  11.001  -1.106+37.52 +0.00    +0.065 A 
ATOM     34  C34 UNL     1      20.174  10.941  -1.757+99.99 +0.00    +0.037 A 
ATOM     35  C35 UNL     1      19.361   9.818  -1.598+99.99 +0.00    +0.010 A 
ATOM     36  C36 UNL     1      17.139   8.178   1.192 -0.09 +0.00    +0.241 C 
ATOM     37  C37 UNL     1      16.209  10.441   1.452 -0.41 +0.00    +0.177 C 
ATOM     38  C38 UNL     1      16.632  11.770   2.088 -0.55 +0.00    +0.045 C 
ATOM     39  C39 UNL     1      17.037  11.581   3.548 +0.33 +0.00    +0.076 C 
ATOM     40  C40 UNL     1      16.029  14.015   4.438 +8.04 +0.00    +0.089 C 
ATOM     41  C41 UNL     1      15.572  10.708   0.070 +3.73 +0.00    +0.241 C 
ATOM     42  C42 UNL     1      13.502  11.340  -1.111+23.25 +0.00    +0.188 C 
ATOM     43  C43 UNL     1      12.036  11.664  -0.784+43.61 +0.00    +0.094 C 
ATOM     44  C44 UNL     1      11.135  11.631  -1.971 +1.70 +0.00    +0.028 A 
ATOM     45  C45 UNL     1      10.554  10.586  -2.653 +0.80 +0.00    +0.114 A 
ATOM     46  C46 UNL     1       9.872  12.353  -3.635+99.99 +0.00    +0.180 A 
ATOM     47  C47 UNL     1      14.086  12.507  -1.912+30.93 +0.00    +0.163 C 
ATOM     48  C48 UNL     1       7.390   7.293  -1.374+12.57 +0.00    +0.251 C 
ATOM     49  C49 UNL     1       7.347   8.629  -2.153+35.06 +0.00    +0.308 C 
ATOM     50  C50 UNL     1       5.903   9.133  -2.277+72.19 +0.00    +0.045 C 
ATOM     51  C51 UNL     1       5.750  10.512  -2.930+99.99 +0.00    +0.004 C 
ATOM     52  C52 UNL     1       6.324  11.646  -2.072+99.99 +0.00    +0.030 C 
ATOM     53  C53 UNL     1       6.218  13.021  -2.734+99.99 +0.00    +0.267 C 
ATOM     54  O1  UNL     1      10.902   4.892  -0.393 -0.18 -0.00    -0.271 OA
ATOM     55  O2  UNL     1      12.919   9.852   2.074+99.99 -0.00    -0.274 OA
ATOM     56  O3  UNL     1       9.732   5.756   3.795 -0.15 -0.00    -0.271 OA
ATOM     57  O4  UNL     1      12.333   1.309   3.937+99.99 -0.00    -0.398 OA
ATOM     58  O5  UNL     1      13.310   5.251   4.017+21.61 -0.00    -0.271 OA
ATOM     59  O6  UNL     1      14.736   2.145   4.998+99.99 -0.00    -0.271 OA
ATOM     60  O7  UNL     1      18.264   1.486   3.718+99.99 -0.00    -0.271 OA
ATOM     61  O8  UNL     1      18.605   5.986   3.306 +6.42 -0.00    -0.272 OA
ATOM     62  O9  UNL     1      22.162  12.117  -1.289 -0.20 -0.00    -0.361 OA
ATOM     63  O10 UNL     1      16.029   7.668   1.363 +2.82 -0.00    -0.271 OA
ATOM     64  O11 UNL     1      16.186  10.575  -0.986+99.84 -0.00    -0.271 OA
ATOM     65  O12 UNL     1      14.347  13.625  -1.490 +1.34 -0.00    -0.648 OA
ATOM     66  O13 UNL     1      14.279  12.213  -3.215+55.45 -0.00    -0.775 OA
ATOM     67  O14 UNL     1       6.814   7.106  -0.305 -0.25 -0.00    -0.271 OA
ATOM     68  N1  UNL     1       9.511   6.386   0.639 -0.09 -0.00    -0.346 N 
ATOM     69  N2  UNL     1      13.451   7.722   2.628 +0.09 -0.00    -0.370 N 
ATOM     70  N3  UNL     1      11.171   4.536   2.497+63.25 -0.00    -0.344 N 
ATOM     71  N4  UNL     1      12.762   3.791   5.702 -0.06 -0.00    -0.346 N 
ATOM     72  N5  UNL     1      11.803   1.581   7.108+99.99 -0.00    -0.372 N 
ATOM     73  H5  UNL     1      12.526   1.623   6.389+99.99 +0.00    +0.161 HD
ATOM     74  N6  UNL     1       9.591   0.895   7.681+99.99 -0.00    -0.279 NA
ATOM     75  N7  UNL     1      10.430   0.420   5.697+99.99 -0.00    -0.279 NA
ATOM     76  N8  UNL     1      16.324   3.129   6.328+99.99 -0.00    -0.346 N 
ATOM     77  N9  UNL     1      17.385   3.595   3.818+99.99 -0.00    -0.351 N 
ATOM     78  N10 UNL     1      18.068   5.924   1.075+99.99 -0.00    -0.346 N 
ATOM     79  N11 UNL     1      17.344   9.539   1.292 -0.19 -0.00    -0.346 N 
ATOM     80  N12 UNL     1      14.272  11.173   0.127 +3.91 -0.00    -0.344 N 
ATOM     81  N13 UNL     1       9.746  11.046  -3.663+37.96 -0.00    -0.360 N 
ATOM     82  H13 UNL     1       9.172  10.492  -4.298 +0.43 +0.00    +0.166 HD
ATOM     83  N14 UNL     1      10.695  12.758  -2.621+60.21 -0.00    -0.354 N 
ATOM     84  N15 UNL     1       8.226   6.360  -1.941 +1.54 -0.00    -0.346 N 
ATOM     85  N16 UNL     1       4.844  13.480  -2.893+72.38 +0.00    +0.078 N 
ATOM     86  N17 UNL     1       8.016   8.466  -3.466+42.12 +0.00    +0.092 N 
ATOM     87  S1  UNL     1      17.607  13.135   4.315+99.99 -0.00    -0.173 SA
ATOM     88  H65 UNL     1      13.242   1.424   4.311+99.99 +0.00    +0.209 HD
ATOM     89  H66 UNL     1      22.980  12.022  -0.775 +0.14 +0.00    +0.217 HD
ATOM     90  H67 UNL     1      14.744  12.996  -3.574 +1.53 +0.00    +0.167 HD
ATOM     91  H68 UNL     1       8.524   6.593   0.799 +0.09 +0.00    +0.163 HD
ATOM     92  H69 UNL     1      14.379   7.797   2.208 -0.40 +0.00    +0.159 HD
ATOM     93  H70 UNL     1      13.320   6.902   3.223 -0.00 +0.00    +0.159 HD
ATOM     94  H71 UNL     1      11.744   4.575   1.655+22.32 +0.00    +0.163 HD
ATOM     95  H72 UNL     1      12.298   2.898   5.895 +0.12 +0.00    +0.163 HD
ATOM     96  H73 UNL     1       9.753   1.078   8.661 +0.13 +0.00    +0.126 HD
ATOM     97  H74 UNL     1       9.121   0.005   7.549+99.99 +0.00    +0.126 HD
ATOM     98  H75 UNL     1      11.182   0.605   5.023+23.22 +0.00    +0.126 HD
ATOM     99  H76 UNL     1       9.540   0.687   5.295+99.99 +0.00    +0.126 HD
ATOM    100  H77 UNL     1      16.492   3.751   7.108+99.99 +0.00    +0.163 HD
ATOM    101  H78 UNL     1      16.981   4.298   4.424+99.99 +0.00    +0.163 HD
ATOM    102  H79 UNL     1      17.333   5.557   0.479 +4.35 +0.00    +0.163 HD
ATOM    103  H80 UNL     1      18.151   9.925   0.813 +0.13 +0.00    +0.163 HD
ATOM    104  H81 UNL     1      13.745  10.830   0.936 +1.75 +0.00    +0.163 HD
ATOM    105  H82 UNL     1      10.931  13.717  -2.399 +3.93 +0.00    +0.166 HD
ATOM    106  H83 UNL     1       8.779   6.728  -2.716 -0.13 +0.00    +0.163 HD
ATOM    107  H84 UNL     1       4.358  13.424  -1.998 +0.04 +0.00    +0.312 HD
ATOM    108  H85 UNL     1       4.341  12.859  -3.525+99.99 +0.00    +0.312 HD
ATOM    109  H86 UNL     1       8.377   9.386  -3.759 +1.33 +0.00    +0.313 HD
ATOM    110  H87 UNL     1       7.321   8.216  -4.169+99.99 +0.00    +0.313 HD
ENDROOT
TORSDOF 46
TER
