USER    Run = 1
USER    DPF = ligand_112_receptor.dpf
USER  
USER    Estimated Free Energy of Binding    =  +10.90 kcal/mol  [=(1)+(2)+(3)-(4)]
USER    
USER    (1) Final Intermolecular Energy     =   +9.71 kcal/mol
USER        vdW + Hbond + desolv Energy     =   +9.71 kcal/mol
USER        Electrostatic Energy            =   +0.00 kcal/mol
USER    (2) Final Total Internal Energy     =   -3.78 kcal/mol
USER    (3) Torsional Free Energy           =   +1.19 kcal/mol
USER    (4) Unbound System's Energy  [=(2)] =   -3.78 kcal/mol
USER    
USER    
USER    NEWDPF move ligand_112.pdbqt
USER    NEWDPF about 0.000000 0.000000 0.000000
USER    NEWDPF tran0 18.309780 10.224738 0.946182
USER    NEWDPF quaternion0 -0.096550 0.666909 0.721257 0.160311
USER    NEWDPF axisangle0 -0.097815 0.675647 0.730707 161.550158
USER    NEWDPF quat0 -0.097815 0.675647 0.730707 161.550158
USER    NEWDPF dihe0 180.00 71.57 68.67 -166.07 30.10 9.69 124.69 148.88 -13.10 93.16 44.93 -156.72 180.00 -68.24 126.16 -87.40 -170.35 -9.15 -5.16 -140.79 21.74 -58.09 60.04 71.38 -95.03 -51.40 
USER  keepresnum = 1 
USER  
REMARK  26 active torsions:
REMARK  status: ('A' for Active; 'I' for Inactive)
REMARK    1  A    between atoms: C2_2  and  C38_38 
REMARK    2  A    between atoms: C4_4  and  N11_52 
REMARK    3  A    between atoms: C5_5  and  C29_29 
REMARK    4  A    between atoms: C6_6  and  N1_39 
REMARK    5  A    between atoms: C7_7  and  C8_8 
REMARK       I    between atoms: C7_7  and  N1_39 
REMARK    6  A    between atoms: C10_10  and  C12_12 
REMARK       I    between atoms: C12_12  and  N4_44 
REMARK    7  A    between atoms: C13_13  and  N4_44 
REMARK    8  A    between atoms: C14_14  and  C26_26 
REMARK    9  A    between atoms: C15_15  and  N5_45 
REMARK   10  A    between atoms: C17_17  and  C19_19 
REMARK   11  A    between atoms: C20_20  and  C21_21 
REMARK       I    between atoms: C20_20  and  N5_45 
REMARK   12  A    between atoms: C21_21  and  C22_22 
REMARK   13  A    between atoms: C22_22  and  C23_23 
REMARK   14  A    between atoms: C23_23  and  C24_24 
REMARK   15  A    between atoms: C24_24  and  N6_46 
REMARK       I    between atoms: C25_25  and  N6_46 
REMARK       I    between atoms: C25_25  and  N7_48 
REMARK       I    between atoms: C25_25  and  N8_49 
REMARK   16  A    between atoms: C26_26  and  C27_27 
REMARK   17  A    between atoms: C27_27  and  C28_28 
REMARK   18  A    between atoms: C28_28  and  N9_50 
REMARK   19  A    between atoms: C29_29  and  C30_30 
REMARK   20  A    between atoms: C30_30  and  C31_31 
REMARK   21  A    between atoms: C31_31  and  N10_51 
REMARK   22  A    between atoms: C32_32  and  C33_33 
REMARK       I    between atoms: C32_32  and  N11_52 
REMARK   23  A    between atoms: C33_33  and  C34_34 
REMARK   24  A    between atoms: C34_34  and  C35_35 
REMARK   25  A    between atoms: C35_35  and  C36_36 
REMARK   26  A    between atoms: C36_36  and  N12_53 
REMARK       I    between atoms: C37_37  and  N12_53 
REMARK       I    between atoms: C37_37  and  N14_56 
USER                              x       y       z     vdW  Elec       q    Type
USER                           _______ _______ _______ _____ _____    ______ ____
ROOT
ATOM      1  C8  UNL     1      19.795   9.315   1.675 +1.19 +0.00    +0.104 A 
ATOM      2  C9  UNL     1      19.000   8.456   2.395 +2.74 +0.00    +0.070 A 
ATOM      3  C10 UNL     1      17.699   8.389   1.963 -0.17 +0.00    +0.104 A 
ATOM      4  C11 UNL     1      18.075   9.901   0.293 -0.31 +0.00    +0.181 A 
ATOM      5  N2  UNL     1      17.205   9.098   0.913 -0.22 -0.00    -0.348 N 
ATOM      6  H2  UNL     1      16.232   9.022   0.617 +0.07 +0.00    +0.167 HD
ATOM      7  N3  UNL     1      19.365  10.054   0.617 -0.17 -0.00    -0.348 N 
ATOM      8  H3  UNL     1      19.984  10.682   0.104 +0.13 +0.00    +0.167 HD
ENDROOT
BRANCH   1   9
ATOM      9  C7  UNL     1      21.240   9.482   2.043 -0.18 +0.00    +0.272 C 
ATOM     10  N1  UNL     1      22.055   8.527   1.460 +0.26 -0.00    -0.321 N 
ATOM     11  H35 UNL     1      21.540   7.866   0.888 +0.96 +0.00    +0.169 HD
ATOM     12  O1  UNL     1      21.572  10.394   2.786 -0.27 -0.00    -0.266 OA
BRANCH  10  13
ATOM     13  C6  UNL     1      23.452   8.352   1.587 -0.41 +0.00    +0.044 A 
ATOM     14  C1  UNL     1      24.038   8.078   2.827 -0.03 +0.00    +0.046 A 
ATOM     15  C2  UNL     1      25.416   7.870   2.950 -0.46 +0.00    +0.052 A 
ATOM     16  C3  UNL     1      26.213   7.898   1.799 -0.44 +0.00    +0.046 A 
ATOM     17  C4  UNL     1      25.667   8.169   0.540 -0.34 +0.00    +0.044 A 
ATOM     18  C5  UNL     1      24.276   8.441   0.432 -0.42 -0.00    -0.004 A 
BRANCH  15  19
ATOM     19  C38 UNL     1      26.032   7.556   4.290 +0.55 +0.00    +0.417 C 
ATOM     20  F4  UNL     1      27.273   7.009   4.173 +2.79 -0.00    -0.166 F 
ATOM     21  F5  UNL     1      26.182   8.658   5.078 +6.28 -0.00    -0.166 F 
ATOM     22  F6  UNL     1      25.302   6.675   5.028 +0.44 -0.00    -0.166 F 
ENDBRANCH  15  19
BRANCH  17  23
ATOM     23  N11 UNL     1      26.470   8.139  -0.631 +0.26 -0.00    -0.327 N 
ATOM     24  C32 UNL     1      27.776   7.694  -0.755 -0.17 +0.00    +0.222 C 
ATOM     25  O4  UNL     1      28.494   7.277   0.150 -0.19 -0.00    -0.273 OA
ATOM     26  H46 UNL     1      26.035   8.470  -1.495 +1.70 +0.00    +0.169 HD
BRANCH  24  27
ATOM     27  C33 UNL     1      28.278   7.805  -2.194 +0.41 +0.00    +0.103 C 
BRANCH  27  28
ATOM     28  C34 UNL     1      29.773   7.514  -2.318 -0.28 +0.00    +0.011 C 
BRANCH  28  29
ATOM     29  C35 UNL     1      30.053   6.325  -3.245 -0.18 +0.00    +0.020 C 
BRANCH  29  30
ATOM     30  C36 UNL     1      29.996   4.998  -2.490 -0.09 +0.00    +0.122 C 
BRANCH  30  31
ATOM     31  N12 UNL     1      29.232   5.161  -1.253 -0.01 -0.00    -0.367 N 
ATOM     32  C37 UNL     1      28.297   4.315  -1.011 -0.21 +0.00    +0.143 C 
ATOM     33  N13 UNL     1      27.851   3.280  -1.756 -0.10 -0.00    -0.376 N 
ATOM     34  N14 UNL     1      27.627   4.408   0.158 -0.42 -0.00    -0.274 NA
ATOM     35  H47 UNL     1      28.031   3.302  -2.760 +0.07 +0.00    +0.158 HD
ATOM     36  H48 UNL     1      26.941   2.904  -1.543 +0.07 +0.00    +0.158 HD
ATOM     37  H49 UNL     1      26.622   4.360   0.071 +0.06 +0.00    +0.127 HD
ATOM     38  H50 UNL     1      27.909   5.254   0.643 +0.07 +0.00    +0.127 HD
ATOM     39  H12 UNL     1      29.436   5.921  -0.604 +0.07 +0.00    +0.162 HD
ENDBRANCH  30  31
ENDBRANCH  29  30
ENDBRANCH  28  29
ENDBRANCH  27  28
ENDBRANCH  24  27
ENDBRANCH  17  23
BRANCH  18  40
ATOM     40  C29 UNL     1      23.684   8.856  -0.908 -0.16 +0.00    +0.045 C 
BRANCH  40  41
ATOM     41  C30 UNL     1      23.431   7.662  -1.836 +0.85 +0.00    +0.034 C 
BRANCH  41  42
ATOM     42  C31 UNL     1      23.914   6.342  -1.237 -0.38 +0.00    +0.267 C 
BRANCH  42  43
ATOM     43  N10 UNL     1      25.225   5.973  -1.774 -0.46 +0.00    +0.078 N 
ATOM     44  H44 UNL     1      25.103   5.149  -2.371 +0.22 +0.00    +0.312 HD
ATOM     45  H45 UNL     1      25.521   6.712  -2.418 +0.22 +0.00    +0.312 HD
ENDBRANCH  42  43
ENDBRANCH  41  42
ENDBRANCH  40  41
ENDBRANCH  18  40
ENDBRANCH  10  13
ENDBRANCH   1   9
BRANCH   3  46
ATOM     46  C12 UNL     1      16.723   7.486   2.657 +0.31 +0.00    +0.272 C 
ATOM     47  N4  UNL     1      15.564   8.137   3.035 -0.25 -0.00    -0.321 N 
ATOM     48  H36 UNL     1      15.561   9.123   2.790 +0.06 +0.00    +0.169 HD
ATOM     49  O2  UNL     1      17.003   6.306   2.821 +0.99 -0.00    -0.266 OA
BRANCH  47  50
ATOM     50  C13 UNL     1      14.439   7.632   3.724 -0.48 +0.00    +0.044 C 
ATOM     51  C14 UNL     1      13.237   7.387   3.006 -0.42 -0.00    -0.004 C 
ATOM     52  C15 UNL     1      12.078   7.021   3.730 -0.43 +0.00    +0.044 C 
ATOM     53  C16 UNL     1      12.168   6.734   5.099 -0.39 +0.00    +0.046 C 
ATOM     54  C17 UNL     1      13.368   6.902   5.794 -0.47 +0.00    +0.052 C 
ATOM     55  C18 UNL     1      14.486   7.382   5.102 -0.49 +0.00    +0.046 C 
BRANCH  51  56
ATOM     56  C26 UNL     1      13.240   7.389   1.480 +2.65 +0.00    +0.045 C 
BRANCH  56  57
ATOM     57  C27 UNL     1      12.077   6.606   0.846 -0.41 +0.00    +0.034 C 
BRANCH  57  58
ATOM     58  C28 UNL     1      12.487   5.897  -0.446 -0.29 +0.00    +0.267 C 
BRANCH  58  59
ATOM     59  N9  UNL     1      11.323   5.722  -1.311 -0.30 +0.00    +0.078 N 
ATOM     60  H42 UNL     1      11.569   5.981  -2.266 +0.17 +0.00    +0.312 HD
ATOM     61  H43 UNL     1      11.078   4.733  -1.345 +0.16 +0.00    +0.312 HD
ENDBRANCH  58  59
ENDBRANCH  57  58
ENDBRANCH  56  57
ENDBRANCH  51  56
BRANCH  52  62
ATOM     62  N5  UNL     1      10.784   6.896   3.170 -0.15 -0.00    -0.327 N 
ATOM     63  C20 UNL     1       9.759   7.809   3.404 -0.32 +0.00    +0.222 C 
ATOM     64  O3  UNL     1       9.860   8.843   4.057 -0.45 -0.00    -0.273 OA
ATOM     65  H37 UNL     1      10.456   5.949   3.023 +0.07 +0.00    +0.169 HD
BRANCH  63  66
ATOM     66  C21 UNL     1       8.464   7.377   2.735 -0.36 +0.00    +0.103 C 
BRANCH  66  67
ATOM     67  C22 UNL     1       8.335   5.867   2.550 -0.24 +0.00    +0.011 C 
BRANCH  67  68
ATOM     68  C23 UNL     1       9.212   5.258   1.446 -0.20 +0.00    +0.020 C 
BRANCH  68  69
ATOM     69  C24 UNL     1       8.531   4.214   0.563 -0.11 +0.00    +0.121 C 
BRANCH  69  70
ATOM     70  N6  UNL     1       9.229   2.934   0.637 +0.04 -0.00    -0.372 N 
ATOM     71  C25 UNL     1       8.654   1.928   1.173 -0.24 +0.00    +0.121 C 
ATOM     72  N7  UNL     1       7.418   1.805   1.705 -0.14 -0.00    -0.279 NA
ATOM     73  N8  UNL     1       9.312   0.752   1.271 -0.22 -0.00    -0.279 NA
ATOM     74  H38 UNL     1       6.777   2.543   1.443 +0.05 +0.00    +0.126 HD
ATOM     75  H39 UNL     1       7.011   0.896   1.514 +0.04 +0.00    +0.126 HD
ATOM     76  H40 UNL     1      10.288   0.886   1.025 -0.00 +0.00    +0.126 HD
ATOM     77  H41 UNL     1       9.234   0.348   2.197 -0.54 +0.00    +0.126 HD
ATOM     78  H6  UNL     1      10.173   2.844   0.261 -0.46 +0.00    +0.161 HD
ENDBRANCH  69  70
ENDBRANCH  68  69
ENDBRANCH  67  68
ENDBRANCH  66  67
ENDBRANCH  63  66
ENDBRANCH  52  62
BRANCH  54  79
ATOM     79  C19 UNL     1      13.450   6.639   7.276 -0.23 +0.00    +0.417 C 
ATOM     80  F1  UNL     1      14.676   6.200   7.675 -0.25 -0.00    -0.166 F 
ATOM     81  F2  UNL     1      12.565   5.691   7.697 -0.13 -0.00    -0.166 F 
ATOM     82  F3  UNL     1      13.184   7.748   8.018 -0.18 -0.00    -0.166 F 
ENDBRANCH  54  79
ENDBRANCH  47  50
ENDBRANCH   3  46
TORSDOF 26
TER
