USER    Run = 1
USER    DPF = ligand_128_receptor.dpf
USER  
USER    Estimated Free Energy of Binding    =  +1.90e+004 kcal/mol  [=(1)+(2)+(3)-(4)]
USER    
USER    (1) Final Intermolecular Energy     =  +1.90e+004 kcal/mol
USER        vdW + Hbond + desolv Energy     =  +1.90e+004 kcal/mol
USER        Electrostatic Energy            =   +0.00 kcal/mol
USER    (2) Final Total Internal Energy     =   +0.00 kcal/mol
USER    (3) Torsional Free Energy           =   +1.19 kcal/mol
USER    (4) Unbound System's Energy  [=(2)] =   +0.00 kcal/mol
USER    
USER    
USER    NEWDPF move ligand_128.pdbqt
USER    NEWDPF about 0.000000 0.000000 0.000000
USER    NEWDPF tran0 10.765510 5.081888 2.060277
USER    NEWDPF quaternion0 -0.836788 0.312531 0.449344 0.014134
USER    NEWDPF axisangle0 -0.836871 0.312563 0.449389 178.380280
USER    NEWDPF quat0 -0.836871 0.312563 0.449389 178.380280
USER  keepresnum = 1 
USER  
REMARK  0 active torsions:
REMARK  status: ('A' for Active; 'I' for Inactive)
REMARK       I    between atoms: C2_2  and  C3_3 
REMARK       I    between atoms: C3_3  and  C5_5 
REMARK       I    between atoms: C3_3  and  N10_97 
REMARK       I    between atoms: C5_5  and  N1_88 
REMARK       I    between atoms: C6_6  and  C7_7 
REMARK       I    between atoms: C6_6  and  C10_10 
REMARK       I    between atoms: C6_6  and  N1_88 
REMARK       I    between atoms: C10_10  and  N2_89 
REMARK       I    between atoms: C11_11  and  C14_14 
REMARK       I    between atoms: C11_11  and  N2_89 
REMARK       I    between atoms: C14_14  and  N3_90 
REMARK       I    between atoms: C15_15  and  C17_17 
REMARK       I    between atoms: C15_15  and  N3_90 
REMARK       I    between atoms: C17_17  and  N4_91 
REMARK       I    between atoms: C18_18  and  C21_21 
REMARK       I    between atoms: C18_18  and  N4_91 
REMARK       I    between atoms: C21_21  and  N5_92 
REMARK       I    between atoms: C22_22  and  C25_25 
REMARK       I    between atoms: C22_22  and  N5_92 
REMARK       I    between atoms: C25_25  and  N6_93 
REMARK       I    between atoms: C26_26  and  C29_29 
REMARK       I    between atoms: C26_26  and  N6_93 
REMARK       I    between atoms: C29_29  and  N7_94 
REMARK       I    between atoms: C30_30  and  C31_31 
REMARK       I    between atoms: C30_30  and  C34_34 
REMARK       I    between atoms: C30_30  and  N7_94 
REMARK       I    between atoms: C31_31  and  C32_32 
REMARK       I    between atoms: C32_32  and  C33_33 
REMARK       I    between atoms: C33_33  and  N8_95 
REMARK       I    between atoms: C34_34  and  N9_96 
REMARK       I    between atoms: C35_35  and  C36_36 
REMARK       I    between atoms: C35_35  and  C43_43 
REMARK       I    between atoms: C35_35  and  N9_96 
REMARK       I    between atoms: C36_36  and  C37_37 
REMARK       I    between atoms: C43_43  and  O10_79 
REMARK       I    between atoms: C44_44  and  C45_45 
REMARK       I    between atoms: C44_44  and  N10_97 
REMARK       I    between atoms: C45_45  and  C46_46 
REMARK       I    between atoms: C45_45  and  N12_99 
REMARK       I    between atoms: C46_46  and  C47_47 
REMARK       I    between atoms: C47_47  and  C48_48 
REMARK       I    between atoms: C48_48  and  N11_98 
REMARK       I    between atoms: C49_49  and  C50_50 
REMARK       I    between atoms: C49_49  and  N12_99 
REMARK       I    between atoms: C50_50  and  N13_100 
REMARK       I    between atoms: C53_53  and  C54_54 
REMARK       I    between atoms: C53_53  and  N13_100 
REMARK       I    between atoms: C54_54  and  C55_55 
REMARK       I    between atoms: C54_54  and  N14_101 
REMARK       I    between atoms: C55_55  and  C56_56 
REMARK       I    between atoms: C59_59  and  C60_60 
REMARK       I    between atoms: C59_59  and  N14_101 
REMARK       I    between atoms: C60_60  and  N15_102 
REMARK       I    between atoms: C62_62  and  C63_63 
REMARK       I    between atoms: C62_62  and  N15_102 
REMARK       I    between atoms: C63_63  and  N16_103 
REMARK       I    between atoms: C64_64  and  C65_65 
REMARK       I    between atoms: C64_64  and  N16_103 
REMARK       I    between atoms: C65_65  and  N17_104 
REMARK       I    between atoms: C68_68  and  N17_104 
USER                              x       y       z     vdW  Elec       q    Type
USER                           _______ _______ _______ _____ _____    ______ ____
ROOT
ATOM      1  C1  UNL     1       4.810   6.011  -0.928 +2.20 +0.00    +0.008 C 
ATOM      2  C2  UNL     1       4.616   5.655  -2.400+99.99 +0.00    +0.036 C 
ATOM      3  C3  UNL     1       5.018   4.202  -2.791 +1.72 +0.00    +0.110 C 
ATOM      4  C4  UNL     1       4.766   4.032  -4.300 +0.32 +0.00    +0.049 C 
ATOM      5  C5  UNL     1       4.077   3.234  -2.007 -0.08 +0.00    +0.246 C 
ATOM      6  C6  UNL     1       3.826   1.959   0.125 -0.10 +0.00    +0.180 C 
ATOM      7  C7  UNL     1       3.925   0.432  -0.103 +0.44 +0.00    +0.009 C 
ATOM      8  C8  UNL     1       3.237  -0.003  -1.398 +0.60 +0.00    +0.012 C 
ATOM      9  C9  UNL     1       5.367  -0.089  -0.084+12.13 +0.00    +0.012 C 
ATOM     10  C10 UNL     1       4.329   2.321   1.540 -0.08 +0.00    +0.241 C 
ATOM     11  C11 UNL     1       3.656   2.520   3.948 -0.16 +0.00    +0.106 C 
ATOM     12  C12 UNL     1       4.993   1.999   4.490 -0.13 +0.00    +0.048 C 
ATOM     13  C13 UNL     1       2.531   1.944   4.826 -0.21 +0.00    +0.048 C 
ATOM     14  C14 UNL     1       3.494   4.074   3.977 -0.07 +0.00    +0.246 C 
ATOM     15  C15 UNL     1       4.022   6.216   5.077 -0.11 +0.00    +0.172 C 
ATOM     16  C16 UNL     1       2.714   6.711   5.683 -0.19 +0.00    +0.042 C 
ATOM     17  C17 UNL     1       5.241   6.716   5.873 +4.36 +0.00    +0.241 C 
ATOM     18  C18 UNL     1       6.567   6.132   7.902 +0.42 +0.00    +0.106 C 
ATOM     19  C19 UNL     1       6.280   5.699   9.348+99.99 +0.00    +0.048 C 
ATOM     20  C20 UNL     1       7.380   7.430   7.935+61.95 +0.00    +0.048 C 
ATOM     21  C21 UNL     1       7.269   4.935   7.187 -0.36 +0.00    +0.246 C 
ATOM     22  C22 UNL     1       9.453   3.723   6.759 -0.47 +0.00    +0.106 C 
ATOM     23  C23 UNL     1      10.799   3.697   7.506 -0.51 +0.00    +0.048 C 
ATOM     24  C24 UNL     1       8.830   2.322   6.862+10.39 +0.00    +0.048 C 
ATOM     25  C25 UNL     1       9.709   4.074   5.261 -0.28 +0.00    +0.246 C 
ATOM     26  C26 UNL     1       8.596   4.764   3.111 -0.19 +0.00    +0.106 C 
ATOM     27  C27 UNL     1       8.984   3.553   2.265 -0.11 +0.00    +0.048 C 
ATOM     28  C28 UNL     1       7.194   5.250   2.708 -0.18 +0.00    +0.048 C 
ATOM     29  C29 UNL     1       9.571   5.962   2.913 -0.16 +0.00    +0.246 C 
ATOM     30  C30 UNL     1      10.418   7.941   4.162 -0.38 +0.00    +0.177 C 
ATOM     31  C31 UNL     1       9.832   9.359   4.068 +0.88 +0.00    +0.044 C 
ATOM     32  C32 UNL     1      10.231  10.052   2.765+99.99 +0.00    +0.105 C 
ATOM     33  C33 UNL     1      11.704  10.396   2.760+99.99 +0.00    +0.215 C 
ATOM     34  C34 UNL     1      10.936   7.669   5.595 -0.26 +0.00    +0.240 C 
ATOM     35  C35 UNL     1      12.745   8.187   7.211 -0.46 +0.00    +0.112 C 
ATOM     36  C36 UNL     1      14.289   8.155   7.188+20.78 +0.00    +0.065 C 
ATOM     37  C37 UNL     1      14.972   9.388   6.648+99.99 -0.00    -0.056 A 
ATOM     38  C38 UNL     1      15.293   9.488   5.289 +7.69 +0.00    +0.007 A 
ATOM     39  C39 UNL     1      15.929  10.627   4.791+66.05 +0.00    +0.001 A 
ATOM     40  C40 UNL     1      16.253  11.676   5.647+99.99 +0.00    +0.000 A 
ATOM     41  C41 UNL     1      15.942  11.587   7.002 +7.26 +0.00    +0.001 A 
ATOM     42  C42 UNL     1      15.307  10.448   7.501+83.16 +0.00    +0.007 A 
ATOM     43  C43 UNL     1      12.156   9.288   8.113 +0.01 +0.00    +0.189 C 
ATOM     44  C44 UNL     1       7.144   2.859  -2.734 -0.09 +0.00    +0.241 C 
ATOM     45  C45 UNL     1       8.701   2.947  -2.608 -0.03 +0.00    +0.177 C 
ATOM     46  C46 UNL     1       9.189   1.616  -1.995 -0.18 +0.00    +0.044 C 
ATOM     47  C47 UNL     1      10.697   1.379  -2.089 -0.29 +0.00    +0.105 C 
ATOM     48  C48 UNL     1      11.457   2.016  -0.951 +0.14 +0.00    +0.215 C 
ATOM     49  C49 UNL     1       9.267   5.366  -2.456 -0.12 +0.00    +0.246 C 
ATOM     50  C50 UNL     1       9.894   6.499  -1.591 -0.26 +0.00    +0.106 C 
ATOM     51  C51 UNL     1       8.770   6.998  -0.666 -0.36 +0.00    +0.048 C 
ATOM     52  C52 UNL     1      10.319   7.675  -2.484 -0.40 +0.00    +0.048 C 
ATOM     53  C53 UNL     1      12.220   5.620  -1.249 +0.34 +0.00    +0.241 C 
ATOM     54  C54 UNL     1      13.296   5.253  -0.201 +4.96 +0.00    +0.177 C 
ATOM     55  C55 UNL     1      13.667   6.378   0.780+30.99 +0.00    +0.038 C 
ATOM     56  C56 UNL     1      14.540   7.528   0.228 +3.09 -0.00    -0.020 C 
ATOM     57  C57 UNL     1      13.793   8.417  -0.764+66.01 +0.00    +0.009 C 
ATOM     58  C58 UNL     1      15.051   8.382   1.393 +5.79 +0.00    +0.009 C 
ATOM     59  C59 UNL     1      15.213   3.690  -0.550+99.99 +0.00    +0.240 C 
ATOM     60  C60 UNL     1      16.370   3.329  -1.501+99.99 +0.00    +0.172 C 
ATOM     61  C61 UNL     1      15.835   2.769  -2.813+99.99 +0.00    +0.042 C 
ATOM     62  C62 UNL     1      18.542   2.190  -1.159+99.99 +0.00    +0.236 C 
ATOM     63  C63 UNL     1      19.305   1.208  -0.267+99.99 +0.00    +0.225 C 
ATOM     64  C64 UNL     1      21.308   2.352   0.571+99.99 +0.00    +0.245 C 
ATOM     65  C65 UNL     1      22.767   2.813   0.261+99.99 +0.00    +0.106 C 
ATOM     66  C66 UNL     1      22.765   3.662  -1.015+99.99 +0.00    +0.048 C 
ATOM     67  C67 UNL     1      23.669   1.581   0.112+99.99 +0.00    +0.048 C 
ATOM     68  C68 UNL     1      24.372   4.233   1.605 +0.66 +0.00    +0.214 C 
ATOM     69  C69 UNL     1      24.487   5.017   2.886+93.88 +0.00    +0.117 C 
ATOM     70  O1  UNL     1       2.907   3.040  -2.336 -0.06 -0.00    -0.271 OA
ATOM     71  O2  UNL     1       5.470   2.737   1.734 -0.06 -0.00    -0.271 OA
ATOM     72  O3  UNL     1       2.774   4.655   3.162 -0.14 -0.00    -0.271 OA
ATOM     73  O4  UNL     1       6.140   7.365   5.347+99.99 -0.00    -0.271 OA
ATOM     74  O5  UNL     1       6.608   4.128   6.519 -0.34 -0.00    -0.271 OA
ATOM     75  O6  UNL     1      10.817   3.990   4.739 -0.29 -0.00    -0.271 OA
ATOM     76  O7  UNL     1      10.321   6.092   1.947 -0.19 -0.00    -0.271 OA
ATOM     77  O8  UNL     1      12.477  10.089   3.661+72.22 -0.00    -0.274 OA
ATOM     78  O9  UNL     1      10.284   7.038   6.432 -0.14 -0.00    -0.271 OA
ATOM     79  O10 UNL     1      12.599   9.157   9.462 +4.50 -0.00    -0.399 OA
ATOM     80  O11 UNL     1       6.575   1.827  -3.085 -0.08 -0.00    -0.271 OA
ATOM     81  O12 UNL     1      11.002   2.910  -0.247 +1.04 -0.00    -0.274 OA
ATOM     82  O13 UNL     1       8.659   5.595  -3.504 -0.14 -0.00    -0.271 OA
ATOM     83  O14 UNL     1      12.455   5.544  -2.457 +1.21 -0.00    -0.271 OA
ATOM     84  O15 UNL     1      14.978   3.032   0.465+99.99 -0.00    -0.271 OA
ATOM     85  O16 UNL     1      19.060   2.733  -2.134+99.99 -0.00    -0.272 OA
ATOM     86  O17 UNL     1      20.711   2.734   1.582 +5.25 -0.00    -0.271 OA
ATOM     87  O18 UNL     1      25.297   4.175   0.801 -0.56 -0.00    -0.274 OA
ATOM     88  N1  UNL     1       4.589   2.754  -0.824 -0.02 -0.00    -0.345 N 
ATOM     89  N2  UNL     1       3.416   2.085   2.554 -0.02 -0.00    -0.342 N 
ATOM     90  N3  UNL     1       4.079   4.748   5.032 -0.05 -0.00    -0.346 N 
ATOM     91  N4  UNL     1       5.278   6.278   7.191 -0.23 -0.00    -0.342 N 
ATOM     92  N5  UNL     1       8.621   4.785   7.387 -0.22 -0.00    -0.342 N 
ATOM     93  N6  UNL     1       8.580   4.444   4.551 -0.09 -0.00    -0.342 N 
ATOM     94  N7  UNL     1       9.394   6.954   3.863 -0.12 -0.00    -0.346 N 
ATOM     95  N8  UNL     1      12.125  11.075   1.659+99.99 -0.00    -0.370 N 
ATOM     96  N9  UNL     1      12.163   8.233   5.872 -0.12 -0.00    -0.352 N 
ATOM     97  N10 UNL     1       6.454   4.026  -2.482 +0.12 -0.00    -0.342 N 
ATOM     98  N11 UNL     1      12.728   1.557  -0.786 +2.31 -0.00    -0.370 N 
ATOM     99  N12 UNL     1       9.179   4.121  -1.862 -0.04 -0.00    -0.346 N 
ATOM    100  N13 UNL     1      11.004   6.019  -0.752 -0.15 -0.00    -0.342 N 
ATOM    101  N14 UNL     1      14.472   4.777  -0.932+99.99 -0.00    -0.346 N 
ATOM    102  N15 UNL     1      17.221   2.358  -0.820+14.27 -0.00    -0.347 N 
ATOM    103  N16 UNL     1      20.725   1.502  -0.344+99.99 -0.00    -0.350 N 
ATOM    104  N17 UNL     1      23.160   3.620   1.431 +0.01 -0.00    -0.344 N 
ATOM    105  H96 UNL     1      12.212   8.336   9.813 +1.63 +0.00    +0.209 HD
ATOM    106  H97 UNL     1       5.555   2.971  -0.596 +0.04 +0.00    +0.163 HD
ATOM    107  H98 UNL     1       2.451   2.177   2.253 +0.04 +0.00    +0.163 HD
ATOM    108  H99 UNL     1       4.890   4.310   5.469 +0.07 +0.00    +0.163 HD
ATOM    109  HA0 UNL     1       4.612   5.538   7.385 +0.07 +0.00    +0.163 HD
ATOM    110  HA1 UNL     1       9.134   5.664   7.480 +0.11 +0.00    +0.163 HD
ATOM    111  HA2 UNL     1       7.692   4.148   4.951 +0.08 +0.00    +0.163 HD
ATOM    112  HA3 UNL     1       8.810   6.689   4.653 +0.09 +0.00    +0.163 HD
ATOM    113  HA4 UNL     1      13.106  11.315   1.593 +0.23 +0.00    +0.159 HD
ATOM    114  HA5 UNL     1      11.522  11.291   0.878+99.99 +0.00    +0.159 HD
ATOM    115  HA6 UNL     1      12.532   8.923   5.210 +0.14 +0.00    +0.163 HD
ATOM    116  HA7 UNL     1       7.025   4.844  -2.673 -0.25 +0.00    +0.163 HD
ATOM    117  HA8 UNL     1      13.068   0.718  -1.232 -0.04 +0.00    +0.159 HD
ATOM    118  HA9 UNL     1      13.274   1.930  -0.010+99.99 +0.00    +0.159 HD
ATOM    119  HB0 UNL     1       9.816   3.959  -1.079 +0.07 +0.00    +0.163 HD
ATOM    120  HB1 UNL     1      10.841   5.935   0.257 +0.07 +0.00    +0.163 HD
ATOM    121  HB2 UNL     1      14.566   5.140  -1.877+99.99 +0.00    +0.163 HD
ATOM    122  HB3 UNL     1      16.898   2.056   0.097+15.40 +0.00    +0.163 HD
ATOM    123  HB4 UNL     1      21.113   1.487  -1.280+36.69 +0.00    +0.163 HD
ATOM    124  HB5 UNL     1      22.429   3.750   2.127 +0.12 +0.00    +0.163 HD
ENDROOT
TORSDOF 43
TER
