USER    Run = 1
USER    DPF = ligand_101_receptor.dpf
USER  
USER    Estimated Free Energy of Binding    =  +5.83e+003 kcal/mol  [=(1)+(2)+(3)-(4)]
USER    
USER    (1) Final Intermolecular Energy     =  +5.83e+003 kcal/mol
USER        vdW + Hbond + desolv Energy     =  +5.83e+003 kcal/mol
USER        Electrostatic Energy            =   +0.00 kcal/mol
USER    (2) Final Total Internal Energy     =   +0.00 kcal/mol
USER    (3) Torsional Free Energy           =   +1.19 kcal/mol
USER    (4) Unbound System's Energy  [=(2)] =   +0.00 kcal/mol
USER    
USER    
USER    NEWDPF move ligand_101.pdbqt
USER    NEWDPF about 0.000000 0.000000 0.000000
USER    NEWDPF tran0 15.340265 7.897356 3.197061
USER    NEWDPF quaternion0 -0.927644 -0.341838 0.143203 -0.046013
USER    NEWDPF axisangle0 -0.928627 -0.342200 0.143355 -174.725473
USER    NEWDPF quat0 -0.928627 -0.342200 0.143355 -174.725473
USER  keepresnum = 1 
USER  
REMARK  0 active torsions:
REMARK  status: ('A' for Active; 'I' for Inactive)
REMARK       I    between atoms: C2_2  and  C3_3 
REMARK       I    between atoms: C2_2  and  C7_7 
REMARK       I    between atoms: C3_3  and  C4_4 
REMARK       I    between atoms: C4_4  and  C5_5 
REMARK       I    between atoms: C5_5  and  N1_54 
REMARK       I    between atoms: C6_6  and  N2_56 
REMARK       I    between atoms: C6_6  and  N3_57 
REMARK       I    between atoms: C7_7  and  N4_58 
REMARK       I    between atoms: C11_11  and  C12_12 
REMARK       I    between atoms: C12_12  and  N5_59 
REMARK       I    between atoms: C13_13  and  C15_15 
REMARK       I    between atoms: C13_13  and  N5_59 
REMARK       I    between atoms: C15_15  and  N6_60 
REMARK       I    between atoms: C16_16  and  C17_17 
REMARK       I    between atoms: C16_16  and  C19_19 
REMARK       I    between atoms: C16_16  and  N6_60 
REMARK       I    between atoms: C17_17  and  O4_72 
REMARK       I    between atoms: C19_19  and  C20_20 
REMARK       I    between atoms: C20_20  and  C21_21 
REMARK       I    between atoms: C21_21  and  C22_22 
REMARK       I    between atoms: C21_21  and  C24_24 
REMARK       I    between atoms: C22_22  and  C23_23 
REMARK       I    between atoms: C23_23  and  O7_75 
REMARK       I    between atoms: C24_24  and  N7_61 
REMARK       I    between atoms: C25_25  and  C26_26 
REMARK       I    between atoms: C25_25  and  C30_30 
REMARK       I    between atoms: C25_25  and  N7_61 
REMARK       I    between atoms: C26_26  and  C27_27 
REMARK       I    between atoms: C27_27  and  C28_28 
REMARK       I    between atoms: C28_28  and  C29_29 
REMARK       I    between atoms: C29_29  and  N8_62 
REMARK       I    between atoms: C30_30  and  C31_31 
REMARK       I    between atoms: C31_31  and  C32_32 
REMARK       I    between atoms: C32_32  and  C33_33 
REMARK       I    between atoms: C32_32  and  C40_40 
REMARK       I    between atoms: C33_33  and  C34_34 
REMARK       I    between atoms: C37_37  and  O10_78 
REMARK       I    between atoms: C40_40  and  N9_63 
REMARK       I    between atoms: C41_41  and  C42_42 
REMARK       I    between atoms: C41_41  and  C46_46 
REMARK       I    between atoms: C41_41  and  N9_63 
REMARK       I    between atoms: C42_42  and  C43_43 
REMARK       I    between atoms: C43_43  and  C44_44 
REMARK       I    between atoms: C44_44  and  N10_64 
REMARK       I    between atoms: C45_45  and  N11_66 
REMARK       I    between atoms: C45_45  and  N12_67 
REMARK       I    between atoms: C46_46  and  C47_47 
REMARK       I    between atoms: C47_47  and  C48_48 
REMARK       I    between atoms: C48_48  and  C49_49 
REMARK       I    between atoms: C48_48  and  C53_53 
REMARK       I    between atoms: C49_49  and  C50_50 
REMARK       I    between atoms: C53_53  and  N13_68 
USER                              x       y       z     vdW  Elec       q    Type
USER                           _______ _______ _______ _____ _____    ______ ____
ROOT
ATOM      1  C1  UNL     1      21.768  10.441   0.263 -0.48 +0.00    +0.020 C 
ATOM      2  C2  UNL     1      22.614  10.607   1.528+10.91 +0.00    +0.074 C 
ATOM      3  C3  UNL     1      23.822  11.511   1.215+99.99 +0.00    +0.015 C 
ATOM      4  C4  UNL     1      24.862  11.581   2.340+10.15 +0.00    +0.020 C 
ATOM      5  C5  UNL     1      26.068  12.445   1.961+99.99 +0.00    +0.121 C 
ATOM      6  C6  UNL     1      27.811  12.374   0.383+99.99 +0.00    +0.121 C 
ATOM      7  C7  UNL     1      21.759  11.227   2.637+18.27 +0.00    +0.224 C 
ATOM      8  C8  UNL     1      21.498  11.616   5.061+99.99 +0.00    +0.127 C 
ATOM      9  C9  UNL     1      21.751  10.756   6.290+99.99 +0.00    +0.022 C 
ATOM     10  C10 UNL     1      22.925   9.875   5.875 +0.33 +0.00    +0.037 C 
ATOM     11  C11 UNL     1      22.668   9.604   4.392 -0.24 +0.00    +0.179 C 
ATOM     12  C12 UNL     1      21.765   8.356   4.221+71.46 +0.00    +0.241 C 
ATOM     13  C13 UNL     1      19.371   7.644   3.957 +0.37 +0.00    +0.172 C 
ATOM     14  C14 UNL     1      19.057   7.018   5.309+33.76 +0.00    +0.042 C 
ATOM     15  C15 UNL     1      18.138   8.361   3.367 -0.42 +0.00    +0.240 C 
ATOM     16  C16 UNL     1      17.386   9.741   1.436 -0.40 +0.00    +0.182 C 
ATOM     17  C17 UNL     1      17.412  11.282   1.475 -0.50 +0.00    +0.144 C 
ATOM     18  C18 UNL     1      17.286  11.843   2.887 -0.46 +0.00    +0.042 C 
ATOM     19  C19 UNL     1      17.582   9.222   0.003 -0.37 +0.00    +0.152 C 
ATOM     20  C20 UNL     1      16.454   9.451  -0.993 +8.09 +0.00    +0.095 C 
ATOM     21  C21 UNL     1      15.846   8.148  -1.537+23.80 +0.00    +0.095 C 
ATOM     22  C22 UNL     1      16.858   7.282  -2.299 +0.13 +0.00    +0.124 C 
ATOM     23  C23 UNL     1      16.210   6.358  -3.297+99.99 +0.00    +0.140 C 
ATOM     24  C24 UNL     1      15.242   7.383  -0.367 +0.94 +0.00    +0.223 C 
ATOM     25  C25 UNL     1      13.264   7.211   1.106 +2.53 +0.00    +0.154 C 
ATOM     26  C26 UNL     1      13.600   7.874   2.448 +2.20 +0.00    +0.033 C 
ATOM     27  C27 UNL     1      13.372   9.392   2.462+99.99 +0.00    +0.004 C 
ATOM     28  C28 UNL     1      13.564  10.015   3.852+99.99 +0.00    +0.030 C 
ATOM     29  C29 UNL     1      12.518   9.590   4.885+82.12 +0.00    +0.267 C 
ATOM     30  C30 UNL     1      11.757   7.252   0.805 +0.98 +0.00    +0.150 C 
ATOM     31  C31 UNL     1      10.860   6.372   1.657 -0.31 +0.00    +0.095 C 
ATOM     32  C32 UNL     1       9.774   7.187   2.374 -0.33 +0.00    +0.089 C 
ATOM     33  C33 UNL     1       8.450   7.359   1.614 -0.37 +0.00    +0.053 C 
ATOM     34  C34 UNL     1       7.745   6.103   1.167 -0.19 -0.00    -0.057 A 
ATOM     35  C35 UNL     1       6.837   5.453   2.012 -0.16 +0.00    +0.010 A 
ATOM     36  C36 UNL     1       6.183   4.293   1.593 -0.10 +0.00    +0.037 A 
ATOM     37  C37 UNL     1       6.427   3.784   0.324 -0.08 +0.00    +0.065 A 
ATOM     38  C38 UNL     1       7.314   4.420  -0.538 -0.10 +0.00    +0.037 A 
ATOM     39  C39 UNL     1       7.968   5.580  -0.116 -0.17 +0.00    +0.010 A 
ATOM     40  C40 UNL     1       9.570   6.717   3.811 -0.22 +0.00    +0.223 C 
ATOM     41  C41 UNL     1       9.684   4.818   5.346 -0.27 +0.00    +0.154 C 
ATOM     42  C42 UNL     1       9.125   3.405   5.524 -0.42 +0.00    +0.034 C 
ATOM     43  C43 UNL     1       7.656   3.229   5.136 +0.64 +0.00    +0.022 C 
ATOM     44  C44 UNL     1       6.704   4.229   5.791 -0.32 +0.00    +0.121 C 
ATOM     45  C45 UNL     1       4.426   4.768   5.502 -0.23 +0.00    +0.121 C 
ATOM     46  C46 UNL     1      11.212   4.785   5.536 -0.33 +0.00    +0.150 C 
ATOM     47  C47 UNL     1      11.732   5.212   6.899 -0.40 +0.00    +0.094 C 
ATOM     48  C48 UNL     1      13.272   5.280   6.966 -0.55 +0.00    +0.085 C 
ATOM     49  C49 UNL     1      13.715   6.208   8.119 -0.68 +0.00    +0.018 C 
ATOM     50  C50 UNL     1      15.152   6.776   8.032 +3.12 -0.00    -0.022 C 
ATOM     51  C51 UNL     1      16.240   5.708   7.983+99.99 +0.00    +0.009 C 
ATOM     52  C52 UNL     1      15.315   7.753   6.864+99.99 +0.00    +0.009 C 
ATOM     53  C53 UNL     1      13.778   3.855   7.176 -0.14 +0.00    +0.220 C 
ATOM     54  N1  UNL     1      26.832  11.758   0.924+63.86 -0.00    -0.372 N 
ATOM     55  H1  UNL     1      26.590  10.809   0.639 +0.75 +0.00    +0.161 HD
ATOM     56  N2  UNL     1      28.302  13.610   0.623+37.46 -0.00    -0.279 NA
ATOM     57  N3  UNL     1      28.522  11.777  -0.597+99.99 -0.00    -0.279 NA
ATOM     58  N4  UNL     1      21.982  10.826   3.936 +0.88 -0.00    -0.338 N 
ATOM     59  N5  UNL     1      20.432   8.642   4.062 +0.86 -0.00    -0.346 N 
ATOM     60  N6  UNL     1      18.434   9.136   2.260 -0.14 -0.00    -0.345 N 
ATOM     61  N7  UNL     1      13.990   7.818  -0.003 +3.05 -0.00    -0.349 N 
ATOM     62  N8  UNL     1      11.177   9.931   4.431+58.76 +0.00    +0.078 N 
ATOM     63  N9  UNL     1       9.461   5.358   4.009 -0.07 -0.00    -0.349 N 
ATOM     64  N10 UNL     1       5.349   3.897   5.362 -0.11 -0.00    -0.372 N 
ATOM     65  H10 UNL     1       5.143   2.984   4.957 -0.05 +0.00    +0.161 HD
ATOM     66  N11 UNL     1       4.474   6.012   6.028 -0.15 -0.00    -0.279 NA
ATOM     67  N12 UNL     1       3.174   4.495   5.077 -0.05 -0.00    -0.279 NA
ATOM     68  N13 UNL     1      13.961   3.138   6.032+10.91 -0.00    -0.370 N 
ATOM     69  O1  UNL     1      20.905  12.083   2.390 +1.75 -0.00    -0.273 OA
ATOM     70  O2  UNL     1      22.200   7.213   4.315+99.99 -0.00    -0.271 OA
ATOM     71  O3  UNL     1      17.000   8.245   3.810 -0.47 -0.00    -0.271 OA
ATOM     72  O4  UNL     1      18.585  11.801   0.851 -0.30 -0.00    -0.393 OA
ATOM     73  O5  UNL     1      18.618   8.640  -0.337 +3.35 -0.00    -0.296 OA
ATOM     74  O6  UNL     1      16.742   5.914  -4.301 +2.91 -0.00    -0.650 OA
ATOM     75  O7  UNL     1      14.955   5.989  -2.986+99.99 -0.00    -0.776 OA
ATOM     76  O8  UNL     1      15.854   6.526   0.261+76.18 -0.00    -0.273 OA
ATOM     77  O9  UNL     1      11.295   7.945  -0.106 +4.90 -0.00    -0.296 OA
ATOM     78  O10 UNL     1       5.766   2.651  -0.045 -0.02 -0.00    -0.361 OA
ATOM     79  O11 UNL     1       9.523   7.509   4.753 +0.12 -0.00    -0.273 OA
ATOM     80  O12 UNL     1      11.965   4.420   4.625 +0.51 -0.00    -0.296 OA
ATOM     81  O13 UNL     1      13.961   3.342   8.273 +2.08 -0.00    -0.273 OA
ATOM     82  H69 UNL     1      27.995  14.014   1.498 +0.43 +0.00    +0.126 HD
ATOM     83  H70 UNL     1      29.312  13.638   0.549 +5.10 +0.00    +0.126 HD
ATOM     84  H71 UNL     1      28.056  10.920  -0.879+99.99 +0.00    +0.126 HD
ATOM     85  H72 UNL     1      28.651  12.384  -1.398 +0.89 +0.00    +0.126 HD
ATOM     86  H73 UNL     1      20.166   9.619   3.993 +0.26 +0.00    +0.163 HD
ATOM     87  H74 UNL     1      19.295   8.918   1.764 +0.14 +0.00    +0.163 HD
ATOM     88  H75 UNL     1      13.432   8.367  -0.653 -0.04 +0.00    +0.163 HD
ATOM     89  H76 UNL     1      10.489   9.352   4.928 +0.18 +0.00    +0.312 HD
ATOM     90  H77 UNL     1      10.964  10.897   4.671+47.13 +0.00    +0.312 HD
ATOM     91  H78 UNL     1       9.655   4.739   3.230 +0.02 +0.00    +0.163 HD
ATOM     92  H79 UNL     1       3.625   6.243   6.532 +0.05 +0.00    +0.126 HD
ATOM     93  H80 UNL     1       5.290   6.191   6.599 +0.05 +0.00    +0.126 HD
ATOM     94  H81 UNL     1       3.177   3.627   4.547 +0.05 +0.00    +0.126 HD
ATOM     95  H82 UNL     1       2.789   5.244   4.515 +0.04 +0.00    +0.126 HD
ATOM     96  H83 UNL     1      13.536   3.442   5.158 -0.00 +0.00    +0.159 HD
ATOM     97  H84 UNL     1      14.195   2.159   6.126+99.99 +0.00    +0.159 HD
ATOM     98  H85 UNL     1      19.305  11.883   1.516 +0.19 +0.00    +0.210 HD
ATOM     99  H86 UNL     1      14.724   5.346  -3.691+32.64 +0.00    +0.167 HD
ATOM    100  H87 UNL     1       6.019   2.427  -0.956 +0.06 +0.00    +0.217 HD
ENDROOT
TORSDOF 42
TER
