USER    Run = 1
USER    DPF = ligand_410_receptor.dpf
USER  
USER    Estimated Free Energy of Binding    =  +4.39e+004 kcal/mol  [=(1)+(2)+(3)-(4)]
USER    
USER    (1) Final Intermolecular Energy     =  +4.39e+004 kcal/mol
USER        vdW + Hbond + desolv Energy     =  +4.39e+004 kcal/mol
USER        Electrostatic Energy            =   +0.00 kcal/mol
USER    (2) Final Total Internal Energy     =   +0.00 kcal/mol
USER    (3) Torsional Free Energy           =   +1.19 kcal/mol
USER    (4) Unbound System's Energy  [=(2)] =   +0.00 kcal/mol
USER    
USER    
USER    NEWDPF move ligand_410.pdbqt
USER    NEWDPF about 0.000000 0.000000 0.000000
USER    NEWDPF tran0 23.082312 8.185591 2.855700
USER    NEWDPF quaternion0 0.970952 -0.162375 -0.115429 0.132522
USER    NEWDPF axisangle0 0.979592 -0.163820 -0.116456 164.769287
USER    NEWDPF quat0 0.979592 -0.163820 -0.116456 164.769287
USER  keepresnum = 1 
USER  
REMARK  0 active torsions:
REMARK  status: ('A' for Active; 'I' for Inactive)
REMARK       I    between atoms: C2_2  and  C3_3 
REMARK       I    between atoms: C3_3  and  C5_5 
REMARK       I    between atoms: C5_5  and  C6_6 
REMARK       I    between atoms: C5_5  and  N3_82 
REMARK       I    between atoms: C6_6  and  C7_7 
REMARK       I    between atoms: C7_7  and  C8_8 
REMARK       I    between atoms: C8_8  and  C9_9 
REMARK       I    between atoms: C8_8  and  C11_11 
REMARK       I    between atoms: C9_9  and  O2_63 
REMARK       I    between atoms: C11_11  and  N1_80 
REMARK       I    between atoms: C12_12  and  C13_13 
REMARK       I    between atoms: C12_12  and  N1_80 
REMARK       I    between atoms: C13_13  and  C14_14 
REMARK       I    between atoms: C14_14  and  C15_15 
REMARK       I    between atoms: C15_15  and  C16_16 
REMARK       I    between atoms: C15_15  and  C17_17 
REMARK       I    between atoms: C16_16  and  O5_66 
REMARK       I    between atoms: C17_17  and  N2_81 
REMARK       I    between atoms: C18_18  and  C19_19 
REMARK       I    between atoms: C18_18  and  C20_20 
REMARK       I    between atoms: C18_18  and  N2_81 
REMARK       I    between atoms: C19_19  and  O7_68 
REMARK       I    between atoms: C20_20  and  O9_70 
REMARK       I    between atoms: C21_21  and  C22_22 
REMARK       I    between atoms: C21_21  and  N3_82 
REMARK       I    between atoms: C22_22  and  C23_23 
REMARK       I    between atoms: C22_22  and  C27_27 
REMARK       I    between atoms: C23_23  and  C24_24 
REMARK       I    between atoms: C24_24  and  C25_25 
REMARK       I    between atoms: C25_25  and  N4_83 
REMARK       I    between atoms: C26_26  and  N5_85 
REMARK       I    between atoms: C26_26  and  N6_86 
REMARK       I    between atoms: C27_27  and  C28_28 
REMARK       I    between atoms: C28_28  and  C29_29 
REMARK       I    between atoms: C29_29  and  C30_30 
REMARK       I    between atoms: C29_29  and  N7_87 
REMARK       I    between atoms: C30_30  and  C32_32 
REMARK       I    between atoms: C34_34  and  C35_35 
REMARK       I    between atoms: C34_34  and  N7_87 
REMARK       I    between atoms: C35_35  and  C36_36 
REMARK       I    between atoms: C35_35  and  N8_88 
REMARK       I    between atoms: C36_36  and  C37_37 
REMARK       I    between atoms: C36_36  and  O13_74 
REMARK       I    between atoms: C40_40  and  C41_41 
REMARK       I    between atoms: C40_40  and  N8_88 
REMARK       I    between atoms: C41_41  and  C42_42 
REMARK       I    between atoms: C41_41  and  N10_90 
REMARK       I    between atoms: C42_42  and  C43_43 
REMARK       I    between atoms: C42_42  and  N9_89 
REMARK       I    between atoms: C49_49  and  O16_77 
REMARK       I    between atoms: C49_49  and  N9_89 
REMARK       I    between atoms: C50_50  and  O16_77 
REMARK       I    between atoms: C54_54  and  O18_79 
REMARK       I    between atoms: C54_54  and  N10_90 
REMARK       I    between atoms: C55_55  and  C56_56 
REMARK       I    between atoms: C55_55  and  O18_79 
USER                              x       y       z     vdW  Elec       q    Type
USER                           _______ _______ _______ _____ _____    ______ ____
ROOT
ATOM      1  C1  UNL     1      24.192   5.125   5.028+99.99 +0.00    +0.005 C 
ATOM      2  C2  UNL     1      25.090   4.812   3.839+75.23 +0.00    +0.002 C 
ATOM      3  C3  UNL     1      24.469   5.160   2.469+17.61 +0.00    +0.011 C 
ATOM      4  C4  UNL     1      25.373   4.646   1.344 +0.41 +0.00    +0.012 C 
ATOM      5  C5  UNL     1      23.980   6.626   2.345+12.85 +0.00    +0.158 C 
ATOM      6  C6  UNL     1      24.783   7.818   2.912 -0.11 +0.00    +0.150 C 
ATOM      7  C7  UNL     1      26.289   7.836   2.843 -0.53 +0.00    +0.097 C 
ATOM      8  C8  UNL     1      26.802   9.101   2.125 -0.20 +0.00    +0.113 C 
ATOM      9  C9  UNL     1      26.867  10.385   2.983+19.24 +0.00    +0.127 C 
ATOM     10  C10 UNL     1      27.335  10.207   4.421+32.45 +0.00    +0.040 C 
ATOM     11  C11 UNL     1      28.150   8.794   1.480 +0.97 +0.00    +0.225 C 
ATOM     12  C12 UNL     1      29.226   7.415  -0.286 -0.20 +0.00    +0.200 C 
ATOM     13  C13 UNL     1      29.056   5.916  -0.516 -0.16 +0.00    +0.145 C 
ATOM     14  C14 UNL     1      30.165   4.992  -0.047 -0.14 +0.00    +0.096 C 
ATOM     15  C15 UNL     1      29.665   4.081   1.083 -0.18 +0.00    +0.108 C 
ATOM     16  C16 UNL     1      30.461   2.776   1.132 -0.29 +0.00    +0.178 C 
ATOM     17  C17 UNL     1      29.714   4.851   2.398+15.81 +0.00    +0.225 C 
ATOM     18  C18 UNL     1      31.121   6.062   3.999+84.08 +0.00    +0.206 C 
ATOM     19  C19 UNL     1      32.366   5.856   4.860+46.87 +0.00    +0.200 C 
ATOM     20  C20 UNL     1      31.276   7.361   3.220+40.58 +0.00    +0.165 C 
ATOM     21  C21 UNL     1      24.159   7.341  -0.054 -0.37 +0.00    +0.222 C 
ATOM     22  C22 UNL     1      23.342   7.844  -1.245 -0.20 +0.00    +0.085 C 
ATOM     23  C23 UNL     1      24.245   8.405  -2.367+13.16 +0.00    +0.016 C 
ATOM     24  C24 UNL     1      24.931   9.733  -2.020+99.99 +0.00    +0.020 C 
ATOM     25  C25 UNL     1      23.970  10.922  -2.015+34.68 +0.00    +0.121 C 
ATOM     26  C26 UNL     1      24.731  12.435  -0.356+99.99 +0.00    +0.121 C 
ATOM     27  C27 UNL     1      22.428   6.736  -1.800 +1.52 +0.00    +0.094 C 
ATOM     28  C28 UNL     1      21.060   7.325  -2.105 +2.72 +0.00    +0.150 C 
ATOM     29  C29 UNL     1      19.845   6.743  -1.364+99.99 +0.00    +0.158 C 
ATOM     30  C30 UNL     1      18.785   6.113  -2.295+42.18 +0.00    +0.011 C 
ATOM     31  C31 UNL     1      18.153   7.098  -3.290+14.43 +0.00    +0.012 C 
ATOM     32  C32 UNL     1      19.322   4.893  -3.076 +8.63 +0.00    +0.002 C 
ATOM     33  C33 UNL     1      19.781   3.744  -2.191+99.99 +0.00    +0.005 C 
ATOM     34  C34 UNL     1      19.913   8.168   0.632+99.99 +0.00    +0.243 C 
ATOM     35  C35 UNL     1      19.534   9.533   1.249 +0.88 +0.00    +0.205 C 
ATOM     36  C36 UNL     1      20.297  10.656   0.502 -0.47 +0.00    +0.153 C 
ATOM     37  C37 UNL     1      19.679  12.062   0.716 -0.74 +0.00    +0.009 C 
ATOM     38  C38 UNL     1      19.813  12.592   2.145 -0.47 +0.00    +0.012 C 
ATOM     39  C39 UNL     1      20.292  13.080  -0.256+12.85 +0.00    +0.012 C 
ATOM     40  C40 UNL     1      19.147   8.914   3.626 -0.16 +0.00    +0.243 C 
ATOM     41  C41 UNL     1      19.892   8.636   4.947 +7.83 +0.00    +0.206 C 
ATOM     42  C42 UNL     1      18.977   8.769   6.200+99.99 +0.00    +0.152 C 
ATOM     43  C43 UNL     1      18.590  10.220   6.483+99.99 -0.00    -0.033 A 
ATOM     44  C44 UNL     1      19.314  10.951   7.442+42.54 +0.00    +0.009 A 
ATOM     45  C45 UNL     1      19.019  12.292   7.691+20.02 +0.00    +0.001 A 
ATOM     46  C46 UNL     1      17.994  12.922   6.991+99.99 +0.00    +0.000 A 
ATOM     47  C47 UNL     1      17.261  12.211   6.044+99.99 +0.00    +0.001 A 
ATOM     48  C48 UNL     1      17.556  10.869   5.791 +9.86 +0.00    +0.009 A 
ATOM     49  C49 UNL     1      17.209   7.390   7.244+99.99 +0.00    +0.361 C 
ATOM     50  C50 UNL     1      15.177   6.194   7.855 +0.51 +0.00    +0.061 C 
ATOM     51  C51 UNL     1      14.675   7.215   8.882 +0.39 +0.00    +0.046 C 
ATOM     52  C52 UNL     1      13.976   5.680   7.047 -0.61 +0.00    +0.046 C 
ATOM     53  C53 UNL     1      15.865   4.998   8.523+99.99 +0.00    +0.046 C 
ATOM     54  C54 UNL     1      22.141   9.143   5.823+13.85 +0.00    +0.361 C 
ATOM     55  C55 UNL     1      23.984  10.099   6.928+99.99 +0.00    +0.219 C 
ATOM     56  C56 UNL     1      23.500  10.617   8.258+20.41 -0.00    -0.034 A 
ATOM     57  C57 UNL     1      23.466  11.996   8.513+16.22 +0.00    +0.009 A 
ATOM     58  C58 UNL     1      22.976  12.478   9.728 +2.08 +0.00    +0.001 A 
ATOM     59  C59 UNL     1      22.508  11.589  10.694 +1.40 +0.00    +0.000 A 
ATOM     60  C60 UNL     1      22.528  10.217  10.446 +2.92 +0.00    +0.001 A 
ATOM     61  C61 UNL     1      23.020   9.733   9.233+27.57 +0.00    +0.009 A 
ATOM     62  O1  UNL     1      24.190   8.820   3.343 -0.40 -0.00    -0.296 OA
ATOM     63  O2  UNL     1      25.579  11.024   3.009 +0.10 -0.00    -0.395 OA
ATOM     64  O3  UNL     1      29.214   9.250   1.900+25.02 -0.00    -0.273 OA
ATOM     65  O4  UNL     1      28.051   5.453  -1.060 -0.13 -0.00    -0.296 OA
ATOM     66  O5  UNL     1      29.884   1.889   2.080 -0.35 -0.00    -0.400 OA
ATOM     67  O6  UNL     1      28.710   5.398   2.850+99.99 -0.00    -0.273 OA
ATOM     68  O7  UNL     1      32.270   6.539   6.109+50.12 -0.00    -0.398 OA
ATOM     69  O8  UNL     1      31.833   7.462   2.134 -0.03 -0.00    -0.648 OA
ATOM     70  O9  UNL     1      30.698   8.412   3.829+99.99 -0.00    -0.775 OA
ATOM     71  O10 UNL     1      25.385   7.298  -0.056 -0.24 -0.00    -0.273 OA
ATOM     72  O11 UNL     1      20.947   8.308  -2.844+99.99 -0.00    -0.296 OA
ATOM     73  O12 UNL     1      20.748   7.416   1.139+99.99 -0.00    -0.271 OA
ATOM     74  O13 UNL     1      21.671  10.609   0.915 -0.04 -0.00    -0.393 OA
ATOM     75  O14 UNL     1      17.985   8.567   3.410 -0.38 -0.00    -0.271 OA
ATOM     76  O15 UNL     1      17.659   7.439   8.377+99.99 -0.00    -0.238 OA
ATOM     77  O16 UNL     1      16.041   6.818   6.872 +5.90 -0.00    -0.294 OA
ATOM     78  O17 UNL     1      22.298   8.055   6.352+99.99 -0.00    -0.238 OA
ATOM     79  O18 UNL     1      22.927  10.231   5.972 -0.10 -0.00    -0.299 OA
ATOM     80  N1  UNL     1      28.070   7.930   0.414 -0.15 -0.00    -0.354 N 
ATOM     81  N2  UNL     1      30.958   5.023   2.973 +7.03 -0.00    -0.344 N 
ATOM     82  N3  UNL     1      23.414   7.005   1.050 -0.15 -0.00    -0.349 N 
ATOM     83  N4  UNL     1      24.683  12.127  -1.595+99.99 -0.00    -0.372 N 
ATOM     84  H4  UNL     1      25.141  12.719  -2.288 +3.77 +0.00    +0.161 HD
ATOM     85  N5  UNL     1      25.363  13.561   0.030 +3.14 -0.00    -0.279 NA
ATOM     86  N6  UNL     1      24.214  11.798   0.719+33.18 -0.00    -0.279 NA
ATOM     87  N7  UNL     1      19.315   7.860  -0.576+99.99 -0.00    -0.347 N 
ATOM     88  N8  UNL     1      19.934   9.482   2.652 -0.16 -0.00    -0.344 N 
ATOM     89  N9  UNL     1      17.807   7.907   6.139+99.99 -0.00    -0.326 N 
ATOM     90  N10 UNL     1      21.094   9.472   5.022+35.08 -0.00    -0.321 N 
ATOM     91  H79 UNL     1      24.938  10.370   3.375 +0.16 +0.00    +0.210 HD
ATOM     92  H80 UNL     1      30.359   1.042   2.023 +0.13 +0.00    +0.209 HD
ATOM     93  H81 UNL     1      32.058   7.475   5.935+70.82 +0.00    +0.209 HD
ATOM     94  H82 UNL     1      30.468   9.031   3.085 -0.02 +0.00    +0.167 HD
ATOM     95  H83 UNL     1      22.107  11.456   0.689 +0.49 +0.00    +0.210 HD
ATOM     96  H84 UNL     1      27.149   7.603   0.096 +0.10 +0.00    +0.162 HD
ATOM     97  H85 UNL     1      31.764   4.882   2.377 +0.06 +0.00    +0.163 HD
ATOM     98  H86 UNL     1      22.412   7.204   1.051 +0.18 +0.00    +0.163 HD
ATOM     99  H87 UNL     1      25.580  14.140  -0.774 +4.87 +0.00    +0.126 HD
ATOM    100  H88 UNL     1      24.862  14.078   0.741 +0.55 +0.00    +0.126 HD
ATOM    101  H89 UNL     1      24.820  11.868   1.545 +0.41 +0.00    +0.126 HD
ATOM    102  H90 UNL     1      24.042  10.810   0.568 +0.15 +0.00    +0.126 HD
ATOM    103  H91 UNL     1      18.906   8.625  -1.101 +0.18 +0.00    +0.163 HD
ATOM    104  H92 UNL     1      20.941   9.452   2.807 +0.11 +0.00    +0.163 HD
ATOM    105  H93 UNL     1      17.253   7.895   5.289 +0.14 +0.00    +0.165 HD
ATOM    106  H94 UNL     1      21.002  10.466   4.848+75.91 +0.00    +0.165 HD
ENDROOT
TORSDOF 47
TER
