USER    Run = 1
USER    DPF = ligand_347_receptor.dpf
USER  
USER    Estimated Free Energy of Binding    =  +7.05e+003 kcal/mol  [=(1)+(2)+(3)-(4)]
USER    
USER    (1) Final Intermolecular Energy     =  +7.04e+003 kcal/mol
USER        vdW + Hbond + desolv Energy     =  +7.04e+003 kcal/mol
USER        Electrostatic Energy            =   +0.00 kcal/mol
USER    (2) Final Total Internal Energy     =   +0.00 kcal/mol
USER    (3) Torsional Free Energy           =   +1.19 kcal/mol
USER    (4) Unbound System's Energy  [=(2)] =   +0.00 kcal/mol
USER    
USER    
USER    NEWDPF move ligand_347.pdbqt
USER    NEWDPF about 0.000000 0.000000 0.000000
USER    NEWDPF tran0 15.037198 5.764787 3.514002
USER    NEWDPF quaternion0 0.237154 -0.043804 0.005807 0.970467
USER    NEWDPF axisangle0 0.983081 -0.181581 0.024073 27.918872
USER    NEWDPF quat0 0.983081 -0.181581 0.024073 27.918872
USER  keepresnum = 1 
USER  
REMARK  0 active torsions:
REMARK  status: ('A' for Active; 'I' for Inactive)
REMARK       I    between atoms: C2_2  and  C3_3 
REMARK       I    between atoms: C3_3  and  C5_5 
REMARK       I    between atoms: C5_5  and  C6_6 
REMARK       I    between atoms: C5_5  and  N10_79 
REMARK       I    between atoms: C6_6  and  N1_69 
REMARK       I    between atoms: C7_7  and  C8_8 
REMARK       I    between atoms: C7_7  and  C11_11 
REMARK       I    between atoms: C7_7  and  N1_69 
REMARK       I    between atoms: C11_11  and  N2_70 
REMARK       I    between atoms: C12_12  and  C13_13 
REMARK       I    between atoms: C12_12  and  C17_17 
REMARK       I    between atoms: C12_12  and  N2_70 
REMARK       I    between atoms: C13_13  and  C14_14 
REMARK       I    between atoms: C14_14  and  C15_15 
REMARK       I    between atoms: C15_15  and  N3_71 
REMARK       I    between atoms: C16_16  and  N4_73 
REMARK       I    between atoms: C16_16  and  N5_74 
REMARK       I    between atoms: C17_17  and  N6_75 
REMARK       I    between atoms: C18_18  and  C19_19 
REMARK       I    between atoms: C18_18  and  C21_21 
REMARK       I    between atoms: C18_18  and  N6_75 
REMARK       I    between atoms: C19_19  and  O4_59 
REMARK       I    between atoms: C21_21  and  N7_76 
REMARK       I    between atoms: C22_22  and  C23_23 
REMARK       I    between atoms: C22_22  and  C27_27 
REMARK       I    between atoms: C22_22  and  N7_76 
REMARK       I    between atoms: C23_23  and  C24_24 
REMARK       I    between atoms: C24_24  and  C25_25 
REMARK       I    between atoms: C25_25  and  C26_26 
REMARK       I    between atoms: C26_26  and  N8_77 
REMARK       I    between atoms: C27_27  and  N9_78 
REMARK       I    between atoms: C28_28  and  C29_29 
REMARK       I    between atoms: C28_28  and  N9_78 
REMARK       I    between atoms: C29_29  and  O8_63 
REMARK       I    between atoms: C30_30  and  C31_31 
REMARK       I    between atoms: C30_30  and  N10_79 
REMARK       I    between atoms: C31_31  and  C32_32 
REMARK       I    between atoms: C31_31  and  N11_80 
REMARK       I    between atoms: C32_32  and  C33_33 
REMARK       I    between atoms: C36_36  and  C37_37 
REMARK       I    between atoms: C36_36  and  N11_80 
REMARK       I    between atoms: C37_37  and  N12_81 
REMARK       I    between atoms: C39_39  and  C40_40 
REMARK       I    between atoms: C39_39  and  N12_81 
REMARK       I    between atoms: C44_44  and  C45_45 
REMARK       I    between atoms: C44_44  and  N13_82 
REMARK       I    between atoms: C45_45  and  C46_46 
REMARK       I    between atoms: C45_45  and  N17_87 
REMARK       I    between atoms: C46_46  and  C47_47 
REMARK       I    between atoms: C47_47  and  C48_48 
REMARK       I    between atoms: C48_48  and  N14_83 
REMARK       I    between atoms: C49_49  and  N15_85 
REMARK       I    between atoms: C49_49  and  N16_86 
REMARK       I    between atoms: C50_50  and  C51_51 
REMARK       I    between atoms: C50_50  and  N17_87 
REMARK       I    between atoms: C51_51  and  C52_52 
REMARK       I    between atoms: C51_51  and  N18_88 
REMARK       I    between atoms: C52_52  and  C53_53 
USER                              x       y       z     vdW  Elec       q    Type
USER                           _______ _______ _______ _____ _____    ______ ____
ROOT
ATOM      1  C1  UNL     1      15.499   5.089   7.955+23.01 +0.00    +0.005 C 
ATOM      2  C2  UNL     1      14.498   6.157   7.540 -0.62 +0.00    +0.002 C 
ATOM      3  C3  UNL     1      14.954   7.012   6.341 +1.91 +0.00    +0.013 C 
ATOM      4  C4  UNL     1      13.944   8.148   6.118 +0.32 +0.00    +0.012 C 
ATOM      5  C5  UNL     1      15.231   6.212   5.043 +9.18 +0.00    +0.180 C 
ATOM      6  C6  UNL     1      13.954   5.703   4.338 +6.99 +0.00    +0.241 C 
ATOM      7  C7  UNL     1      12.161   3.986   4.386+18.82 +0.00    +0.180 C 
ATOM      8  C8  UNL     1      12.223   2.466   4.131+16.04 +0.00    +0.009 C 
ATOM      9  C9  UNL     1      10.851   1.904   3.745 +6.20 +0.00    +0.012 C 
ATOM     10  C10 UNL     1      13.229   2.138   3.020+99.99 +0.00    +0.012 C 
ATOM     11  C11 UNL     1      11.198   4.317   5.544 -0.31 +0.00    +0.241 C 
ATOM     12  C12 UNL     1       8.998   5.296   6.117 -0.25 +0.00    +0.176 C 
ATOM     13  C13 UNL     1       8.472   6.734   5.993+54.64 +0.00    +0.036 C 
ATOM     14  C14 UNL     1       7.858   7.147   4.646+10.58 +0.00    +0.022 C 
ATOM     15  C15 UNL     1       8.884   7.470   3.553 -0.27 +0.00    +0.121 C 
ATOM     16  C16 UNL     1      10.248   6.284   2.043 -0.26 +0.00    +0.121 C 
ATOM     17  C17 UNL     1       7.886   4.227   5.988 -0.28 +0.00    +0.241 C 
ATOM     18  C18 UNL     1       5.956   3.207   7.208 +4.15 +0.00    +0.205 C 
ATOM     19  C19 UNL     1       5.598   3.183   8.712+99.99 +0.00    +0.146 C 
ATOM     20  C20 UNL     1       6.700   2.515   9.530+99.99 +0.00    +0.042 C 
ATOM     21  C21 UNL     1       4.673   3.265   6.347 -0.16 +0.00    +0.243 C 
ATOM     22  C22 UNL     1       3.773   3.865   4.093 -0.10 +0.00    +0.176 C 
ATOM     23  C23 UNL     1       3.083   5.239   4.033 -0.16 +0.00    +0.035 C 
ATOM     24  C24 UNL     1       2.378   5.637   5.336 -0.15 +0.00    +0.004 C 
ATOM     25  C25 UNL     1       3.262   6.479   6.265 -0.26 +0.00    +0.030 C 
ATOM     26  C26 UNL     1       2.706   6.578   7.687 -0.07 +0.00    +0.267 C 
ATOM     27  C27 UNL     1       4.366   3.493   2.713 -0.07 +0.00    +0.240 C 
ATOM     28  C28 UNL     1       6.330   2.488   1.640 -0.11 +0.00    +0.232 C 
ATOM     29  C29 UNL     1       7.367   3.606   1.581 -0.10 +0.00    +0.158 C 
ATOM     30  C30 UNL     1      17.291   7.222   4.073 +1.59 +0.00    +0.241 C 
ATOM     31  C31 UNL     1      17.839   8.084   2.920 -0.44 +0.00    +0.177 C 
ATOM     32  C32 UNL     1      18.135   7.229   1.676+20.71 +0.00    +0.038 C 
ATOM     33  C33 UNL     1      16.908   6.664   0.933+22.47 -0.00    -0.020 C 
ATOM     34  C34 UNL     1      17.374   5.753  -0.207+99.99 +0.00    +0.009 C 
ATOM     35  C35 UNL     1      16.007   7.766   0.375 +0.59 +0.00    +0.009 C 
ATOM     36  C36 UNL     1      19.607   9.844   2.888 -0.08 +0.00    +0.240 C 
ATOM     37  C37 UNL     1      20.957  10.236   3.522 +3.86 +0.00    +0.172 C 
ATOM     38  C38 UNL     1      21.745  11.172   2.615+12.96 +0.00    +0.042 C 
ATOM     39  C39 UNL     1      22.717   8.955   4.747 +4.88 +0.00    +0.241 C 
ATOM     40  C40 UNL     1      23.462   7.599   4.776+71.26 +0.00    +0.179 C 
ATOM     41  C41 UNL     1      24.513   7.558   5.890+39.64 +0.00    +0.037 C 
ATOM     42  C42 UNL     1      25.555   6.594   5.350 +2.27 +0.00    +0.022 C 
ATOM     43  C43 UNL     1      25.598   6.945   3.871 +1.01 +0.00    +0.127 C 
ATOM     44  C44 UNL     1      23.598   6.993   2.362 +6.98 +0.00    +0.243 C 
ATOM     45  C45 UNL     1      24.449   6.796   1.084 -0.36 +0.00    +0.176 C 
ATOM     46  C46 UNL     1      24.379   8.064   0.221 -0.48 +0.00    +0.036 C 
ATOM     47  C47 UNL     1      25.162   9.267   0.763 +0.75 +0.00    +0.022 C 
ATOM     48  C48 UNL     1      26.677   9.074   0.821 +0.03 +0.00    +0.121 C 
ATOM     49  C49 UNL     1      28.416   8.514  -0.659 +1.13 +0.00    +0.121 C 
ATOM     50  C50 UNL     1      24.107   4.383   0.722 -0.40 +0.00    +0.251 C 
ATOM     51  C51 UNL     1      23.183   3.327   0.064+73.03 +0.00    +0.309 C 
ATOM     52  C52 UNL     1      21.814   3.324   0.768+78.33 +0.00    +0.049 C 
ATOM     53  C53 UNL     1      20.648   2.613   0.048+99.99 -0.00    -0.020 C 
ATOM     54  C54 UNL     1      20.835   1.104  -0.081+99.99 +0.00    +0.009 C 
ATOM     55  C55 UNL     1      20.345   3.235  -1.316+99.99 +0.00    +0.009 C 
ATOM     56  O1  UNL     1      13.429   6.335   3.417 -0.02 -0.00    -0.271 OA
ATOM     57  O2  UNL     1      11.453   4.009   6.708 -0.31 -0.00    -0.271 OA
ATOM     58  O3  UNL     1       7.845   3.381   5.095 -0.20 -0.00    -0.271 OA
ATOM     59  O4  UNL     1       5.481   4.532   9.199+99.99 -0.00    -0.393 OA
ATOM     60  O5  UNL     1       3.619   2.732   6.689 -0.69 -0.00    -0.271 OA
ATOM     61  O6  UNL     1       3.872   3.848   1.646 -0.23 -0.00    -0.271 OA
ATOM     62  O7  UNL     1       8.322   3.648   0.815 +0.09 -0.00    -0.649 OA
ATOM     63  O8  UNL     1       7.149   4.599   2.470 +0.13 -0.00    -0.775 OA
ATOM     64  O9  UNL     1      18.021   6.712   4.923+99.99 -0.00    -0.271 OA
ATOM     65  O10 UNL     1      19.007  10.537   2.072 -0.29 -0.00    -0.271 OA
ATOM     66  O11 UNL     1      22.949   9.878   5.524 -0.43 -0.00    -0.271 OA
ATOM     67  O12 UNL     1      22.362   6.942   2.296 +5.85 -0.00    -0.271 OA
ATOM     68  O13 UNL     1      25.014   4.086   1.498 +0.50 -0.00    -0.271 OA
ATOM     69  N1  UNL     1      13.462   4.508   4.809+15.82 -0.00    -0.346 N 
ATOM     70  N2  UNL     1      10.076   5.027   5.183 -0.09 -0.00    -0.346 N 
ATOM     71  N3  UNL     1       9.179   6.271   2.758 -0.07 -0.00    -0.372 N 
ATOM     72  H3  UNL     1       8.561   5.459   2.772 +0.08 +0.00    +0.161 HD
ATOM     73  N4  UNL     1      11.211   7.224   1.922 -0.16 -0.00    -0.279 NA
ATOM     74  N5  UNL     1      10.569   5.222   1.273 +0.53 -0.00    -0.279 NA
ATOM     75  N6  UNL     1       6.904   4.300   6.946 -0.26 -0.00    -0.344 N 
ATOM     76  N7  UNL     1       4.834   3.823   5.098 -0.10 -0.00    -0.346 N 
ATOM     77  N8  UNL     1       2.916   5.339   8.439 +1.73 +0.00    +0.078 N 
ATOM     78  N9  UNL     1       5.445   2.628   2.784 -0.05 -0.00    -0.349 N 
ATOM     79  N10 UNL     1      15.930   7.038   4.060 +0.80 -0.00    -0.346 N 
ATOM     80  N11 UNL     1      19.070   8.689   3.412 -0.22 -0.00    -0.346 N 
ATOM     81  N12 UNL     1      21.716   9.021   3.808 +0.30 -0.00    -0.346 N 
ATOM     82  N13 UNL     1      24.230   7.327   3.544+19.31 -0.00    -0.337 N 
ATOM     83  N14 UNL     1      27.169   8.752  -0.513 +1.37 -0.00    -0.372 N 
ATOM     84  H14 UNL     1      26.533   8.717  -1.309 +0.87 +0.00    +0.161 HD
ATOM     85  N15 UNL     1      28.902   8.184  -1.875 +0.06 -0.00    -0.279 NA
ATOM     86  N16 UNL     1      29.416   8.527   0.250 -0.15 -0.00    -0.279 NA
ATOM     87  N17 UNL     1      23.820   5.685   0.366 -0.26 -0.00    -0.346 N 
ATOM     88  N18 UNL     1      23.836   2.006   0.132+16.72 +0.00    +0.092 N 
ATOM     89  H80 UNL     1       4.587   4.853   8.920 +4.87 +0.00    +0.210 HD
ATOM     90  H81 UNL     1       7.909   5.235   2.389 +0.08 +0.00    +0.167 HD
ATOM     91  H82 UNL     1      13.800   4.157   5.698 +0.10 +0.00    +0.163 HD
ATOM     92  H83 UNL     1       9.831   5.064   4.195 +0.09 +0.00    +0.163 HD
ATOM     93  H84 UNL     1      12.139   6.811   2.066 +0.05 +0.00    +0.126 HD
ATOM     94  H85 UNL     1      11.139   8.005   2.559 +0.07 +0.00    +0.126 HD
ATOM     95  H86 UNL     1       9.784   4.594   1.076 -0.23 +0.00    +0.126 HD
ATOM     96  H87 UNL     1      11.012   5.491   0.402 -0.01 +0.00    +0.126 HD
ATOM     97  H88 UNL     1       6.990   4.959   7.717 +0.08 +0.00    +0.163 HD
ATOM     98  H89 UNL     1       5.719   4.271   4.879 +0.07 +0.00    +0.163 HD
ATOM     99  H90 UNL     1       2.501   4.554   7.923 +0.12 +0.00    +0.312 HD
ATOM    100  H91 UNL     1       2.373   5.396   9.305 +0.22 +0.00    +0.312 HD
ATOM    101  H92 UNL     1       5.895   2.574   3.693 +0.03 +0.00    +0.163 HD
ATOM    102  H93 UNL     1      15.357   7.488   3.353 -0.17 +0.00    +0.163 HD
ATOM    103  H94 UNL     1      19.607   8.169   4.102 +0.10 +0.00    +0.163 HD
ATOM    104  H95 UNL     1      21.677   8.269   3.117 +0.11 +0.00    +0.163 HD
ATOM    105  H96 UNL     1      29.501   7.367  -1.839 +0.05 +0.00    +0.126 HD
ATOM    106  H97 UNL     1      28.131   8.025  -2.517 +0.04 +0.00    +0.126 HD
ATOM    107  H98 UNL     1      30.283   8.872  -0.147 +0.05 +0.00    +0.126 HD
ATOM    108  H99 UNL     1      29.195   9.021   1.104 +0.10 +0.00    +0.126 HD
ATOM    109  HA0 UNL     1      22.884   5.865   0.019 +0.10 +0.00    +0.163 HD
ATOM    110  HA1 UNL     1      24.761   2.090  -0.294 +0.61 +0.00    +0.313 HD
ATOM    111  HA2 UNL     1      24.045   1.819   1.117+99.99 +0.00    +0.313 HD
ENDROOT
TORSDOF 44
TER
