USER    Run = 1
USER    DPF = ligand_450_receptor.dpf
USER  
USER    Estimated Free Energy of Binding    =  -14.12 kcal/mol  [=(1)+(2)+(3)-(4)]
USER    Estimated Inhibition Constant, Ki   =   44.68 pM (picomolar)  [Temperature = 298.15 K]
USER    
USER    (1) Final Intermolecular Energy     =  -15.31 kcal/mol
USER        vdW + Hbond + desolv Energy     =  -15.31 kcal/mol
USER        Electrostatic Energy            =   +0.00 kcal/mol
USER    (2) Final Total Internal Energy     =   -0.28 kcal/mol
USER    (3) Torsional Free Energy           =   +1.19 kcal/mol
USER    (4) Unbound System's Energy  [=(2)] =   -0.28 kcal/mol
USER    
USER    
USER    NEWDPF move ligand_450.pdbqt
USER    NEWDPF about 0.000000 0.000000 0.000000
USER    NEWDPF tran0 20.483735 10.102941 3.735232
USER    NEWDPF quaternion0 0.047775 -0.708183 -0.580696 -0.398732
USER    NEWDPF axisangle0 0.052095 -0.772225 -0.633209 -133.002146
USER    NEWDPF quat0 0.052095 -0.772225 -0.633209 -133.002146
USER    NEWDPF dihe0 5.31 167.44 148.68 -135.48 175.23 109.27 91.06 161.92 78.17 -176.42 179.10 -178.21 51.89 -179.91 70.89 -174.00 
USER  keepresnum = 1 
USER  
REMARK  16 active torsions:
REMARK  status: ('A' for Active; 'I' for Inactive)
REMARK    1  A    between atoms: C5_5  and  O1_51 
REMARK       I    between atoms: C6_6  and  N2_47 
REMARK    2  A    between atoms: C6_6  and  O1_51 
REMARK    3  A    between atoms: C7_7  and  N2_47 
REMARK    4  A    between atoms: C12_12  and  C13_13 
REMARK    5  A    between atoms: C19_19  and  C20_20 
REMARK    6  A    between atoms: C19_19  and  N1_46 
REMARK    7  A    between atoms: C20_20  and  C21_21 
REMARK    8  A    between atoms: C24_24  and  N3_48 
REMARK    9  A    between atoms: C27_27  and  C28_28 
REMARK       I    between atoms: C27_27  and  N3_48 
REMARK   10  A    between atoms: C30_30  and  C34_34 
REMARK   11  A    between atoms: C34_34  and  N4_49 
REMARK   12  A    between atoms: C35_35  and  C36_36 
REMARK   13  A    between atoms: C35_35  and  N4_49 
REMARK   14  A    between atoms: C36_36  and  C37_37 
REMARK   15  A    between atoms: C36_36  and  O6_56 
REMARK   16  A    between atoms: C43_43  and  O5_55 
USER                              x       y       z     vdW  Elec       q    Type
USER                           _______ _______ _______ _____ _____    ______ ____
ROOT
ATOM      1  C21 UNL     1      19.627   9.654   2.568 -0.35 -0.00    -0.056 A 
ATOM      2  C22 UNL     1      18.557  10.180   1.837 -0.45 +0.00    +0.009 A 
ATOM      3  C23 UNL     1      17.239   9.814   2.136 -0.45 +0.00    +0.030 A 
ATOM      4  C24 UNL     1      16.972   8.922   3.174 -0.51 +0.00    +0.035 A 
ATOM      5  C25 UNL     1      18.043   8.396   3.907 -0.50 +0.00    +0.030 A 
ATOM      6  C26 UNL     1      19.360   8.761   3.610 -0.29 +0.00    +0.009 A 
ENDROOT
BRANCH   4   7
ATOM      7  N3  UNL     1      15.678   8.499   3.536 -0.27 -0.00    -0.323 N 
ATOM      8  C27 UNL     1      15.331   7.635   4.561 -0.28 +0.00    +0.256 C 
ATOM      9  O3  UNL     1      16.077   7.021   5.312 -0.23 -0.00    -0.267 OA
ATOM     10  H41 UNL     1      14.931   8.820   2.921 -0.06 +0.00    +0.169 HD
BRANCH   8  11
ATOM     11  C28 UNL     1      13.869   7.418   4.687 -0.46 +0.00    +0.032 A 
ATOM     12  C29 UNL     1      13.034   7.578   3.577 -0.42 +0.00    +0.026 A 
ATOM     13  C30 UNL     1      11.687   7.192   3.639 -0.37 -0.00    -0.029 A 
ATOM     14  C31 UNL     1      11.167   6.762   4.868 -0.33 +0.00    +0.009 A 
ATOM     15  C32 UNL     1      11.985   6.682   6.000 -0.37 +0.00    +0.002 A 
ATOM     16  C33 UNL     1      13.339   6.999   5.908 -0.43 +0.00    +0.017 A 
BRANCH  13  17
ATOM     17  C34 UNL     1      10.823   7.232   2.404 -0.16 +0.00    +0.308 C 
BRANCH  17  18
ATOM     18  N4  UNL     1       9.507   7.871   2.609 -0.34 +0.00    +0.090 N 
ATOM     19  H42 UNL     1       9.555   8.334   3.519 +0.18 +0.00    +0.316 HD
BRANCH  18  20
ATOM     20  C35 UNL     1       8.389   6.896   2.667 -0.19 +0.00    +0.306 C 
BRANCH  20  21
ATOM     21  C36 UNL     1       8.801   5.489   2.152 -0.14 +0.00    +0.180 C 
BRANCH  21  22
ATOM     22  C37 UNL     1       8.977   5.428   0.644 -0.16 -0.00    -0.015 A 
ATOM     23  C38 UNL     1       8.110   4.745  -0.242 -0.13 +0.00    +0.003 A 
ATOM     24  C39 UNL     1       6.902   4.022   0.190 -0.10 +0.00    +0.020 A 
ATOM     25  C42 UNL     1       8.396   4.747  -1.626 -0.09 +0.00    +0.079 A 
ATOM     26  C40 UNL     1       6.093   3.425  -0.694 -0.08 +0.00    +0.075 A 
ATOM     27  C41 UNL     1       6.371   3.477  -2.143 -0.02 +0.00    +0.245 A 
ATOM     28  N5  UNL     1       7.514   4.118  -2.524 -0.01 -0.00    -0.321 N 
ATOM     29  O4  UNL     1       5.609   2.960  -2.952 -0.09 -0.00    -0.268 OA
ATOM     30  H43 UNL     1       7.636   4.211  -3.521 +0.00 +0.00    +0.169 HD
ATOM     31  C43 UNL     1       9.540   5.384  -2.114 -0.15 +0.00    +0.093 A 
ATOM     32  C44 UNL     1      10.382   6.073  -1.257 -0.25 +0.00    +0.039 A 
ATOM     33  C45 UNL     1      10.103   6.093   0.110 -0.26 +0.00    +0.013 A 
BRANCH  31  34
ATOM     34  O5  UNL     1       9.897   5.339  -3.431 -0.11 -0.00    -0.358 OA
ATOM     35  H44 UNL     1       9.535   4.517  -3.802 +0.08 +0.00    +0.217 HD
ENDBRANCH  31  34
ENDBRANCH  21  22
BRANCH  21  36
ATOM     36  O6  UNL     1       9.984   5.040   2.829 -0.06 -0.00    -0.389 OA
ATOM     37  H45 UNL     1      10.218   4.216   2.351 -0.48 +0.00    +0.210 HD
ENDBRANCH  21  36
ENDBRANCH  20  21
ENDBRANCH  18  20
ENDBRANCH  17  18
ENDBRANCH  13  17
ENDBRANCH   8  11
ENDBRANCH   4   7
BRANCH   1  38
ATOM     38  C20 UNL     1      21.046  10.071   2.258 -0.45 +0.00    +0.068 C 
BRANCH  38  39
ATOM     39  C19 UNL     1      21.707   9.116   1.249 +0.29 +0.00    +0.277 C 
BRANCH  39  40
ATOM     40  N1  UNL     1      23.028   8.645   1.699 -0.38 +0.00    +0.088 N 
ATOM     41  C2  UNL     1      24.148   9.289   0.994 -0.20 +0.00    +0.275 C 
ATOM     42  C1  UNL     1      24.888  10.332   1.831 -0.22 +0.00    +0.063 C 
ATOM     43  C5  UNL     1      25.444   9.721   3.119 -0.52 +0.00    +0.137 C 
ATOM     44  C4  UNL     1      24.577   8.566   3.628 -0.54 +0.00    +0.063 C 
ATOM     45  C3  UNL     1      23.134   8.722   3.164 -0.23 +0.00    +0.275 C 
BRANCH  43  46
ATOM     46  O1  UNL     1      26.777   9.241   2.844 -0.49 -0.00    -0.298 OA
BRANCH  46  47
ATOM     47  C6  UNL     1      26.967   8.654   1.630 -0.20 +0.00    +0.365 C 
ATOM     48  N2  UNL     1      26.336   7.445   1.649 -0.20 -0.00    -0.302 N 
ATOM     49  H40 UNL     1      25.880   7.249   2.531 +0.13 +0.00    +0.171 HD
ATOM     50  O2  UNL     1      27.601   9.163   0.720 -0.13 -0.00    -0.238 OA
BRANCH  48  51
ATOM     51  C7  UNL     1      26.245   6.469   0.634 -0.33 +0.00    +0.048 A 
ATOM     52  C8  UNL     1      25.045   5.811   0.334 -0.45 +0.00    +0.030 A 
ATOM     53  C9  UNL     1      24.990   4.845  -0.675 -0.52 +0.00    +0.002 A 
ATOM     54  C10 UNL     1      26.132   4.523  -1.398 -0.43 +0.00    +0.001 A 
ATOM     55  C11 UNL     1      27.334   5.168  -1.113 -0.29 +0.00    +0.014 A 
ATOM     56  C12 UNL     1      27.412   6.144  -0.101 -0.30 +0.00    +0.001 A 
BRANCH  56  57
ATOM     57  C13 UNL     1      28.709   6.793   0.149 -0.25 -0.00    -0.024 A 
ATOM     58  C14 UNL     1      29.356   6.645   1.385 -0.23 +0.00    +0.012 A 
ATOM     59  C15 UNL     1      30.594   7.245   1.617 -0.34 +0.00    +0.001 A 
ATOM     60  C16 UNL     1      31.200   8.002   0.616 -0.22 +0.00    +0.000 A 
ATOM     61  C17 UNL     1      30.568   8.160  -0.616 -0.21 +0.00    +0.001 A 
ATOM     62  C18 UNL     1      29.330   7.560  -0.848 -0.24 +0.00    +0.012 A 
ENDBRANCH  56  57
ENDBRANCH  48  51
ENDBRANCH  46  47
ENDBRANCH  43  46
ENDBRANCH  39  40
ENDBRANCH  38  39
ENDBRANCH   1  38
TORSDOF 16
TER
