USER    Run = 1
USER    DPF = ligand_230_receptor.dpf
USER  
USER    Estimated Free Energy of Binding    =  -12.01 kcal/mol  [=(1)+(2)+(3)-(4)]
USER    Estimated Inhibition Constant, Ki   =    1.56 nM (nanomolar)  [Temperature = 298.15 K]
USER    
USER    (1) Final Intermolecular Energy     =  -13.21 kcal/mol
USER        vdW + Hbond + desolv Energy     =  -13.21 kcal/mol
USER        Electrostatic Energy            =   +0.00 kcal/mol
USER    (2) Final Total Internal Energy     =   -1.71 kcal/mol
USER    (3) Torsional Free Energy           =   +1.19 kcal/mol
USER    (4) Unbound System's Energy  [=(2)] =   -1.71 kcal/mol
USER    
USER    
USER    NEWDPF move ligand_230.pdbqt
USER    NEWDPF about 0.000000 0.000000 0.000000
USER    NEWDPF tran0 13.596161 10.136568 4.919022
USER    NEWDPF quaternion0 0.873790 0.479852 -0.074476 -0.026191
USER    NEWDPF axisangle0 0.874090 0.480016 -0.074501 -176.998353
USER    NEWDPF quat0 0.874090 0.480016 -0.074501 -176.998353
USER    NEWDPF dihe0 34.81 158.44 63.56 57.29 -27.91 33.80 154.07 -8.40 -180.00 123.16 155.58 
USER  keepresnum = 1 
USER  
REMARK  11 active torsions:
REMARK  status: ('A' for Active; 'I' for Inactive)
REMARK    1  A    between atoms: C2_2  and  C3_3 
REMARK       I    between atoms: C2_2  and  N1_31 
REMARK    2  A    between atoms: C5_5  and  C6_6 
REMARK    3  A    between atoms: C7_7  and  C8_8 
REMARK    4  A    between atoms: C10_10  and  C11_11 
REMARK       I    between atoms: C11_11  and  N3_34 
REMARK    5  A    between atoms: C12_12  and  N3_34 
REMARK    6  A    between atoms: C15_15  and  C16_16 
REMARK    7  A    between atoms: C16_16  and  N4_35 
REMARK    8  A    between atoms: C19_19  and  C20_20 
REMARK    9  A    between atoms: C19_19  and  N5_36 
REMARK   10  A    between atoms: C20_20  and  O3_40 
REMARK   11  A    between atoms: C23_23  and  C24_24 
USER                              x       y       z     vdW  Elec       q    Type
USER                           _______ _______ _______ _____ _____    ______ ____
ROOT
ATOM      1  C11 UNL     1      15.807   8.852   2.242 -0.27 +0.00    +0.256 C 
ATOM      2  N3  UNL     1      15.315   8.531   3.494 -0.26 -0.00    -0.323 N 
ATOM      3  O2  UNL     1      15.455   8.378   1.168 -0.11 -0.00    -0.267 OA
ATOM      4  H32 UNL     1      15.807   8.913   4.292 +0.12 +0.00    +0.169 HD
ENDROOT
BRANCH   1   5
ATOM      5  C10 UNL     1      16.909   9.855   2.241 -0.46 +0.00    +0.033 A 
ATOM      6  C9  UNL     1      18.245   9.480   2.422 -0.42 +0.00    +0.038 A 
ATOM      7  C8  UNL     1      19.254  10.451   2.416 -0.42 +0.00    +0.025 A 
ATOM      8  C28 UNL     1      18.934  11.809   2.238 -0.51 -0.00    -0.043 A 
ATOM      9  C27 UNL     1      17.588  12.174   2.079 -0.64 +0.00    +0.009 A 
ATOM     10  C29 UNL     1      19.995  12.876   2.229 +0.15 +0.00    +0.049 C 
ATOM     11  C26 UNL     1      16.582  11.206   2.086 -0.51 +0.00    +0.017 A 
BRANCH   7  12
ATOM     12  C7  UNL     1      20.610  10.023   2.606 -0.40 -0.00    -0.059 C 
ATOM     13  C6  UNL     1      21.745   9.666   2.762 -0.49 -0.00    -0.042 C 
BRANCH  13  14
ATOM     14  C5  UNL     1      23.087   9.240   2.946 -0.42 +0.00    +0.106 A 
ATOM     15  C4  UNL     1      23.863   9.360   4.075 -0.48 +0.00    +0.129 A 
ATOM     16  N2  UNL     1      25.112   8.832   3.874 -0.30 -0.00    -0.345 N 
ATOM     17  C3  UNL     1      25.114   8.382   2.625 -0.38 +0.00    +0.177 A 
ATOM     18  H2  UNL     1      25.880   8.793   4.545 -0.26 +0.00    +0.167 HD
ATOM     19  N6  UNL     1      23.893   8.614   2.027 -0.19 -0.00    -0.325 N 
ATOM     20  C30 UNL     1      23.545   8.254   0.673 -0.40 +0.00    +0.159 C 
BRANCH  17  21
ATOM     21  C2  UNL     1      26.274   7.744   2.017 -0.32 +0.00    +0.285 C 
ATOM     22  N1  UNL     1      27.463   8.147   2.584 -0.26 -0.00    -0.359 N 
ATOM     23  C1  UNL     1      28.743   7.760   2.061 -0.38 +0.00    +0.149 C 
ATOM     24  H31 UNL     1      27.389   8.894   3.270 -0.35 +0.00    +0.162 HD
ATOM     25  O1  UNL     1      26.215   6.940   1.092 -0.23 -0.00    -0.264 OA
ENDBRANCH  17  21
ENDBRANCH  13  14
ENDBRANCH   7  12
ENDBRANCH   1   5
BRANCH   2  26
ATOM     26  C12 UNL     1      14.255   7.650   3.794 -0.44 +0.00    +0.035 A 
ATOM     27  C13 UNL     1      14.154   6.926   4.978 -0.43 +0.00    +0.030 A 
ATOM     28  C14 UNL     1      13.076   6.063   5.192 -0.37 +0.00    +0.012 A 
ATOM     29  C15 UNL     1      12.067   5.902   4.226 -0.15 -0.00    -0.015 A 
ATOM     30  C23 UNL     1      12.150   6.640   3.026 -0.32 +0.00    +0.058 A 
ATOM     31  C25 UNL     1      13.255   7.496   2.827 -0.22 +0.00    +0.046 A 
BRANCH  29  32
ATOM     32  C16 UNL     1      10.932   4.937   4.514 -0.14 +0.00    +0.311 C 
BRANCH  32  33
ATOM     33  N4  UNL     1      10.580   4.894   5.936 -0.28 +0.00    +0.096 N 
ATOM     34  C17 UNL     1      10.475   3.501   6.406 -0.31 +0.00    +0.303 C 
ATOM     35  C18 UNL     1      10.059   3.412   7.893 -0.23 +0.00    +0.302 C 
ATOM     36  N5  UNL     1       8.805   4.124   8.231 -0.50 +0.00    +0.093 N 
ATOM     37  C21 UNL     1       8.917   5.509   7.717 -0.19 +0.00    +0.302 C 
ATOM     38  C22 UNL     1       9.334   5.627   6.230 -0.12 +0.00    +0.303 C 
BRANCH  36  39
ATOM     39  C19 UNL     1       7.626   3.405   7.701 -0.06 +0.00    +0.298 C 
BRANCH  39  40
ATOM     40  C20 UNL     1       6.684   4.347   6.935 -0.40 +0.00    +0.194 C 
BRANCH  40  41
ATOM     41  O3  UNL     1       6.743   4.062   5.540 -0.15 -0.00    -0.399 OA
ATOM     42  H33 UNL     1       6.329   3.177   5.450 -0.37 +0.00    +0.209 HD
ENDBRANCH  40  41
ENDBRANCH  39  40
ENDBRANCH  36  39
ENDBRANCH  32  33
ENDBRANCH  29  32
BRANCH  30  43
ATOM     43  C24 UNL     1      11.116   6.526   1.921 -0.14 +0.00    +0.418 C 
ATOM     44  F1  UNL     1      10.462   5.333   1.915 +0.04 -0.00    -0.166 F 
ATOM     45  F2  UNL     1      11.684   6.622   0.679 -0.15 -0.00    -0.166 F 
ATOM     46  F3  UNL     1      10.166   7.502   1.939 -0.09 -0.00    -0.166 F 
ENDBRANCH  30  43
ENDBRANCH   2  26
TORSDOF 11
TER
