USER    Run = 1
USER    DPF = ligand_418_receptor.dpf
USER  
USER    Estimated Free Energy of Binding    =  +3.65e+004 kcal/mol  [=(1)+(2)+(3)-(4)]
USER    
USER    (1) Final Intermolecular Energy     =  +3.65e+004 kcal/mol
USER        vdW + Hbond + desolv Energy     =  +3.65e+004 kcal/mol
USER        Electrostatic Energy            =   +0.00 kcal/mol
USER    (2) Final Total Internal Energy     =   +0.00 kcal/mol
USER    (3) Torsional Free Energy           =   +1.19 kcal/mol
USER    (4) Unbound System's Energy  [=(2)] =   +0.00 kcal/mol
USER    
USER    
USER    NEWDPF move ligand_418.pdbqt
USER    NEWDPF about 0.000000 0.000000 0.000000
USER    NEWDPF tran0 22.619307 8.156291 1.943323
USER    NEWDPF quaternion0 -0.096170 0.527902 0.843831 0.004443
USER    NEWDPF axisangle0 -0.096171 0.527908 0.843839 179.490819
USER    NEWDPF quat0 -0.096171 0.527908 0.843839 179.490819
USER  keepresnum = 1 
USER  
REMARK  0 active torsions:
REMARK  status: ('A' for Active; 'I' for Inactive)
REMARK       I    between atoms: C2_2  and  C3_3 
REMARK       I    between atoms: C3_3  and  C5_5 
REMARK       I    between atoms: C5_5  and  C6_6 
REMARK       I    between atoms: C5_5  and  N3_81 
REMARK       I    between atoms: C6_6  and  C7_7 
REMARK       I    between atoms: C6_6  and  O6_70 
REMARK       I    between atoms: C7_7  and  C8_8 
REMARK       I    between atoms: C8_8  and  N1_79 
REMARK       I    between atoms: C12_12  and  C13_13 
REMARK       I    between atoms: C13_13  and  C14_14 
REMARK       I    between atoms: C13_13  and  O5_69 
REMARK       I    between atoms: C14_14  and  C16_16 
REMARK       I    between atoms: C16_16  and  N2_80 
REMARK       I    between atoms: C17_17  and  C18_18 
REMARK       I    between atoms: C17_17  and  C25_25 
REMARK       I    between atoms: C17_17  and  N2_80 
REMARK       I    between atoms: C18_18  and  C19_19 
REMARK       I    between atoms: C25_25  and  O4_68 
REMARK       I    between atoms: C30_30  and  C31_31 
REMARK       I    between atoms: C30_30  and  N3_81 
REMARK       I    between atoms: C31_31  and  C32_32 
REMARK       I    between atoms: C31_31  and  N4_82 
REMARK       I    between atoms: C35_35  and  C36_36 
REMARK       I    between atoms: C35_35  and  N4_82 
REMARK       I    between atoms: C36_36  and  C37_37 
REMARK       I    between atoms: C36_36  and  N5_83 
REMARK       I    between atoms: C41_41  and  C42_42 
REMARK       I    between atoms: C41_41  and  N5_83 
REMARK       I    between atoms: C42_42  and  N6_84 
REMARK       I    between atoms: C44_44  and  C45_45 
REMARK       I    between atoms: C44_44  and  N6_84 
REMARK       I    between atoms: C45_45  and  C46_46 
REMARK       I    between atoms: C45_45  and  N9_87 
REMARK       I    between atoms: C46_46  and  C47_47 
REMARK       I    between atoms: C47_47  and  C48_48 
REMARK       I    between atoms: C48_48  and  N7_85 
REMARK       I    between atoms: C49_49  and  N7_85 
REMARK       I    between atoms: C49_49  and  N8_86 
REMARK       I    between atoms: C50_50  and  C51_51 
REMARK       I    between atoms: C50_50  and  N9_87 
REMARK       I    between atoms: C51_51  and  C52_52 
REMARK       I    between atoms: C51_51  and  N10_88 
REMARK       I    between atoms: C55_55  and  C56_56 
REMARK       I    between atoms: C55_55  and  N10_88 
REMARK       I    between atoms: C56_56  and  C57_57 
REMARK       I    between atoms: C57_57  and  C58_58 
REMARK       I    between atoms: C58_58  and  C59_59 
REMARK       I    between atoms: C59_59  and  C60_60 
REMARK       I    between atoms: C60_60  and  N11_89 
USER                              x       y       z     vdW  Elec       q    Type
USER                           _______ _______ _______ _____ _____    ______ ____
ROOT
ATOM      1  C1  UNL     1      32.006   6.821  -2.136 -0.06 +0.00    +0.005 C 
ATOM      2  C2  UNL     1      30.525   7.169  -2.240 -0.19 +0.00    +0.002 C 
ATOM      3  C3  UNL     1      29.628   6.444  -1.215 -0.20 +0.00    +0.006 C 
ATOM      4  C4  UNL     1      29.952   4.945  -1.080 -0.13 +0.00    +0.012 C 
ATOM      5  C5  UNL     1      28.070   6.666  -1.323 -0.27 +0.00    +0.119 C 
ATOM      6  C6  UNL     1      27.519   8.137  -1.462 +3.10 +0.00    +0.152 C 
ATOM      7  C7  UNL     1      27.408   8.946  -0.158 +2.18 +0.00    +0.137 C 
ATOM      8  C8  UNL     1      28.552   8.779   0.816 +0.41 +0.00    +0.222 C 
ATOM      9  C9  UNL     1      29.754  10.763  -0.180 +5.31 +0.00    +0.126 C 
ATOM     10  C10 UNL     1      31.122  11.357   0.121 +4.13 +0.00    +0.022 C 
ATOM     11  C11 UNL     1      31.844  10.200   0.800 +0.07 +0.00    +0.029 C 
ATOM     12  C12 UNL     1      30.748   9.578   1.679+40.39 +0.00    +0.117 C 
ATOM     13  C13 UNL     1      30.584  10.300   3.061+99.99 +0.00    +0.156 C 
ATOM     14  C14 UNL     1      29.573   9.595   3.995+99.99 +0.00    +0.105 C 
ATOM     15  C15 UNL     1      30.043   8.241   4.533+99.99 +0.00    +0.022 C 
ATOM     16  C16 UNL     1      29.171  10.527   5.134+99.99 +0.00    +0.224 C 
ATOM     17  C17 UNL     1      29.878  11.607   7.259 +2.21 +0.00    +0.188 C 
ATOM     18  C18 UNL     1      29.069  10.940   8.384+29.40 +0.00    +0.074 C 
ATOM     19  C19 UNL     1      29.735   9.736   9.013+99.99 -0.00    -0.056 A 
ATOM     20  C20 UNL     1      29.537   8.457   8.475+99.99 +0.00    +0.007 A 
ATOM     21  C21 UNL     1      30.167   7.346   9.037+12.53 +0.00    +0.001 A 
ATOM     22  C22 UNL     1      30.996   7.501  10.146+40.51 +0.00    +0.000 A 
ATOM     23  C23 UNL     1      31.193   8.766  10.695+22.80 +0.00    +0.001 A 
ATOM     24  C24 UNL     1      30.565   9.879  10.133+33.82 +0.00    +0.007 A 
ATOM     25  C25 UNL     1      31.222  12.158   7.748 +8.48 +0.00    +0.281 C 
ATOM     26  C26 UNL     1      32.251  13.630   9.251 -0.12 +0.00    +0.213 C 
ATOM     27  C27 UNL     1      32.373  11.666   3.883 +1.00 +0.00    +0.202 C 
ATOM     28  C28 UNL     1      27.385   9.750  -3.217+99.99 +0.00    +0.202 C 
ATOM     29  C29 UNL     1      27.869   5.788  -3.701+99.99 +0.00    +0.153 C 
ATOM     30  C30 UNL     1      26.063   5.326  -2.154 +0.15 +0.00    +0.243 C 
ATOM     31  C31 UNL     1      25.420   5.363  -0.740 -0.41 +0.00    +0.180 C 
ATOM     32  C32 UNL     1      25.842   4.139   0.102 -0.14 +0.00    +0.009 C 
ATOM     33  C33 UNL     1      25.318   2.806  -0.441+99.99 +0.00    +0.012 C 
ATOM     34  C34 UNL     1      25.408   4.313   1.561 +6.19 +0.00    +0.012 C 
ATOM     35  C35 UNL     1      23.373   6.692  -1.064 -0.41 +0.00    +0.252 C 
ATOM     36  C36 UNL     1      21.883   6.622  -1.528 +1.76 +0.00    +0.317 C 
ATOM     37  C37 UNL     1      21.930   6.716  -3.089+99.99 +0.00    +0.020 C 
ATOM     38  C38 UNL     1      20.749   6.033  -3.785+99.99 +0.00    +0.012 C 
ATOM     39  C39 UNL     1      22.131   8.140  -3.619+99.99 +0.00    +0.012 C 
ATOM     40  C40 UNL     1      19.661   7.618  -1.202+99.99 +0.00    +0.311 C 
ATOM     41  C41 UNL     1      21.117   7.342   0.703+99.99 +0.00    +0.297 C 
ATOM     42  C42 UNL     1      21.072   8.610   1.607+12.65 +0.00    +0.108 C 
ATOM     43  C43 UNL     1      22.170   9.614   1.259 -0.48 +0.00    +0.034 C 
ATOM     44  C44 UNL     1      18.696   8.772   2.291 +0.54 +0.00    +0.240 C 
ATOM     45  C45 UNL     1      17.374   9.532   2.047 -0.40 +0.00    +0.176 C 
ATOM     46  C46 UNL     1      17.440  10.935   2.667 -0.53 +0.00    +0.036 C 
ATOM     47  C47 UNL     1      16.351  11.903   2.191 -0.35 +0.00    +0.022 C 
ATOM     48  C48 UNL     1      16.364  12.222   0.695 +0.01 +0.00    +0.124 C 
ATOM     49  C49 UNL     1      18.663  12.389  -0.171 +2.30 +0.00    +0.291 C 
ATOM     50  C50 UNL     1      15.058   8.614   2.080 +2.04 +0.00    +0.241 C 
ATOM     51  C51 UNL     1      14.128   7.584   2.758 +0.73 +0.00    +0.180 C 
ATOM     52  C52 UNL     1      14.371   6.127   2.299+99.99 +0.00    +0.009 C 
ATOM     53  C53 UNL     1      14.298   5.957   0.777+99.99 +0.00    +0.012 C 
ATOM     54  C54 UNL     1      15.689   5.555   2.823+99.99 +0.00    +0.012 C 
ATOM     55  C55 UNL     1      11.695   7.686   3.272 -0.28 +0.00    +0.218 C 
ATOM     56  C56 UNL     1      10.378   8.245   2.763 +1.07 +0.00    +0.103 C 
ATOM     57  C57 UNL     1       9.170   7.756   3.561 -0.40 +0.00    +0.009 C 
ATOM     58  C58 UNL     1       8.820   6.298   3.247 -0.30 +0.00    +0.002 C 
ATOM     59  C59 UNL     1       7.600   5.793   4.021 -0.25 +0.00    +0.020 C 
ATOM     60  C60 UNL     1       7.867   5.624   5.518 -0.08 +0.00    +0.135 C 
ATOM     61  C61 UNL     1       5.680   5.827   6.683 -0.23 +0.00    +0.250 A 
ATOM     62  C62 UNL     1       4.694   4.894   7.237 -0.30 +0.00    +0.080 A 
ATOM     63  C63 UNL     1       5.146   3.656   7.030 -0.02 +0.00    +0.080 A 
ATOM     64  C64 UNL     1       6.435   3.762   6.337 +0.08 +0.00    +0.250 A 
ATOM     65  O1  UNL     1      28.557   7.811   1.580 -0.30 -0.00    -0.273 OA
ATOM     66  O2  UNL     1      28.083  11.100   5.146+99.99 -0.00    -0.273 OA
ATOM     67  O3  UNL     1      32.310  11.863   7.264 +0.38 -0.00    -0.263 OA
ATOM     68  O4  UNL     1      31.039  13.059   8.755 -0.15 -0.00    -0.325 OA
ATOM     69  O5  UNL     1      31.866  10.344   3.721 +3.91 -0.00    -0.388 OA
ATOM     70  O6  UNL     1      28.223   8.871  -2.472 +9.80 -0.00    -0.388 OA
ATOM     71  O7  UNL     1      25.406   4.849  -3.090 +1.97 -0.00    -0.271 OA
ATOM     72  O8  UNL     1      23.981   7.739  -0.851 -0.35 -0.00    -0.271 OA
ATOM     73  O9  UNL     1      18.761   7.801   3.047 -0.08 -0.00    -0.271 OA
ATOM     74  O10 UNL     1      18.879  11.186  -0.205 -0.40 -0.00    -0.254 OA
ATOM     75  O11 UNL     1      14.696   9.272   1.103+99.99 -0.00    -0.271 OA
ATOM     76  O12 UNL     1      11.807   7.028   4.300 -0.22 -0.00    -0.274 OA
ATOM     77  O13 UNL     1       5.533   7.036   6.672 +0.48 -0.00    -0.268 OA
ATOM     78  O14 UNL     1       7.081   2.800   5.964+37.40 -0.00    -0.268 OA
ATOM     79  N1  UNL     1      29.561   9.716   0.818+19.53 -0.00    -0.345 N 
ATOM     80  N2  UNL     1      30.103  10.715   6.119+40.74 -0.00    -0.347 N 
ATOM     81  N3  UNL     1      27.380   5.779  -2.326 +0.16 -0.00    -0.347 N 
ATOM     82  N4  UNL     1      23.970   5.447  -0.928 -0.17 -0.00    -0.346 N 
ATOM     83  N5  UNL     1      21.059   7.610  -0.763+37.21 +0.00    +0.100 N 
ATOM     84  N6  UNL     1      19.778   9.275   1.607 +0.65 -0.00    -0.353 N 
ATOM     85  N7  UNL     1      17.532  12.988   0.294 +1.08 -0.00    -0.348 N 
ATOM     86  N8  UNL     1      19.583  13.289  -0.597+53.89 -0.00    -0.254 NA
ATOM     87  N9  UNL     1      16.304   8.731   2.640 -0.23 -0.00    -0.346 N 
ATOM     88  N10 UNL     1      12.758   8.007   2.467 +1.15 -0.00    -0.347 N 
ATOM     89  N11 UNL     1       6.706   5.083   6.201 -0.21 -0.00    -0.281 N 
ATOM     90  H98 UNL     1      31.037  10.325   6.004 +6.00 +0.00    +0.163 HD
ATOM     91  H99 UNL     1      23.584   4.717  -1.517 +0.26 +0.00    +0.163 HD
ATOM     92  HA0 UNL     1      19.584   9.913   0.829 +0.13 +0.00    +0.163 HD
ATOM     93  HA1 UNL     1      17.358  13.904  -0.095 -0.20 +0.00    +0.163 HD
ATOM     94  HA2 UNL     1      19.664  14.131  -0.045 +1.44 +0.00    +0.128 HD
ATOM     95  HA3 UNL     1      20.472  12.863  -0.829 +0.19 +0.00    +0.128 HD
ATOM     96  HA4 UNL     1      16.597   8.089   3.372 +0.09 +0.00    +0.163 HD
ATOM     97  HA5 UNL     1      12.628   8.582   1.639+22.80 +0.00    +0.163 HD
ENDROOT
TORSDOF 40
TER
