USER    Run = 1
USER    DPF = ligand_199_receptor.dpf
USER  
USER    Estimated Free Energy of Binding    =  +5.83e+004 kcal/mol  [=(1)+(2)+(3)-(4)]
USER    
USER    (1) Final Intermolecular Energy     =  +5.83e+004 kcal/mol
USER        vdW + Hbond + desolv Energy     =  +5.83e+004 kcal/mol
USER        Electrostatic Energy            =   +0.00 kcal/mol
USER    (2) Final Total Internal Energy     =   +0.00 kcal/mol
USER    (3) Torsional Free Energy           =   +1.19 kcal/mol
USER    (4) Unbound System's Energy  [=(2)] =   +0.00 kcal/mol
USER    
USER    
USER    NEWDPF move ligand_199.pdbqt
USER    NEWDPF about 0.000000 0.000000 0.000000
USER    NEWDPF tran0 16.451236 6.801408 5.088106
USER    NEWDPF quaternion0 -0.933758 -0.154645 -0.136772 -0.292361
USER    NEWDPF axisangle0 -0.976419 -0.161711 -0.143021 -146.001318
USER    NEWDPF quat0 -0.976419 -0.161711 -0.143021 -146.001318
USER  keepresnum = 1 
USER  
REMARK  0 active torsions:
REMARK  status: ('A' for Active; 'I' for Inactive)
REMARK       I    between atoms: C2_2  and  C3_3 
REMARK       I    between atoms: C2_2  and  S1_59 
REMARK       I    between atoms: C3_3  and  C4_4 
REMARK       I    between atoms: C4_4  and  C58_58 
REMARK       I    between atoms: C4_4  and  N1_60 
REMARK       I    between atoms: C5_5  and  C6_6 
REMARK       I    between atoms: C5_5  and  N1_60 
REMARK       I    between atoms: C6_6  and  C7_7 
REMARK       I    between atoms: C6_6  and  N2_61 
REMARK       I    between atoms: C7_7  and  C8_8 
REMARK       I    between atoms: C11_11  and  C12_12 
REMARK       I    between atoms: C11_11  and  N2_61 
REMARK       I    between atoms: C12_12  and  N3_62 
REMARK       I    between atoms: C13_13  and  C14_14 
REMARK       I    between atoms: C13_13  and  N3_62 
REMARK       I    between atoms: C14_14  and  C15_15 
REMARK       I    between atoms: C14_14  and  N4_63 
REMARK       I    between atoms: C15_15  and  C16_16 
REMARK       I    between atoms: C19_19  and  O4_76 
REMARK       I    between atoms: C22_22  and  C23_23 
REMARK       I    between atoms: C22_22  and  N4_63 
REMARK       I    between atoms: C23_23  and  C24_24 
REMARK       I    between atoms: C23_23  and  N5_64 
REMARK       I    between atoms: C24_24  and  C25_25 
REMARK       I    between atoms: C31_31  and  C32_32 
REMARK       I    between atoms: C31_31  and  N5_64 
REMARK       I    between atoms: C32_32  and  C56_56 
REMARK       I    between atoms: C32_32  and  N6_65 
REMARK       I    between atoms: C33_33  and  C34_34 
REMARK       I    between atoms: C33_33  and  N6_65 
REMARK       I    between atoms: C34_34  and  C35_35 
REMARK       I    between atoms: C34_34  and  N8_67 
REMARK       I    between atoms: C35_35  and  C36_36 
REMARK       I    between atoms: C36_36  and  C37_37 
REMARK       I    between atoms: C37_37  and  C38_38 
REMARK       I    between atoms: C38_38  and  N7_66 
REMARK       I    between atoms: C39_39  and  C40_40 
REMARK       I    between atoms: C39_39  and  N8_67 
REMARK       I    between atoms: C44_44  and  C45_45 
REMARK       I    between atoms: C44_44  and  N9_68 
REMARK       I    between atoms: C45_45  and  C46_46 
REMARK       I    between atoms: C45_45  and  N10_69 
REMARK       I    between atoms: C46_46  and  C47_47 
REMARK       I    between atoms: C47_47  and  O10_82 
REMARK       I    between atoms: C48_48  and  C49_49 
REMARK       I    between atoms: C48_48  and  N10_69 
REMARK       I    between atoms: C49_49  and  N11_70 
REMARK       I    between atoms: C51_51  and  C52_52 
REMARK       I    between atoms: C51_51  and  N11_70 
REMARK       I    between atoms: C56_56  and  O15_87 
REMARK       I    between atoms: C58_58  and  N13_72 
USER                              x       y       z     vdW  Elec       q    Type
USER                           _______ _______ _______ _____ _____    ______ ____
ROOT
ATOM      1  C1  UNL     1      27.014   8.759   0.943 -0.33 +0.00    +0.089 C 
ATOM      2  C2  UNL     1      26.379  10.018   3.336 +0.82 +0.00    +0.076 C 
ATOM      3  C3  UNL     1      27.495   9.316   4.110+99.99 +0.00    +0.045 C 
ATOM      4  C4  UNL     1      27.163   7.930   4.687+99.99 +0.00    +0.177 C 
ATOM      5  C5  UNL     1      25.498   6.830   6.136+73.42 +0.00    +0.241 C 
ATOM      6  C6  UNL     1      24.155   7.063   6.868+66.94 +0.00    +0.177 C 
ATOM      7  C7  UNL     1      23.703   5.853   7.699+99.99 +0.00    +0.038 C 
ATOM      8  C8  UNL     1      24.261   5.827   9.137+99.99 -0.00    -0.020 C 
ATOM      9  C9  UNL     1      25.785   5.727   9.192+99.99 +0.00    +0.009 C 
ATOM     10  C10 UNL     1      23.642   4.658   9.909+99.99 +0.00    +0.009 C 
ATOM     11  C11 UNL     1      23.000   8.589   5.274+20.52 +0.00    +0.236 C 
ATOM     12  C12 UNL     1      22.003   8.675   4.109+11.35 +0.00    +0.225 C 
ATOM     13  C13 UNL     1      20.683   6.576   4.149+99.99 +0.00    +0.241 C 
ATOM     14  C14 UNL     1      19.244   5.990   4.135+99.99 +0.00    +0.180 C 
ATOM     15  C15 UNL     1      19.243   4.448   4.213+99.99 +0.00    +0.073 C 
ATOM     16  C16 UNL     1      19.719   3.832   5.512+46.68 -0.00    -0.056 A 
ATOM     17  C17 UNL     1      21.060   3.455   5.681+30.10 +0.00    +0.010 A 
ATOM     18  C18 UNL     1      21.495   2.889   6.881+99.99 +0.00    +0.037 A 
ATOM     19  C19 UNL     1      20.593   2.697   7.919+99.99 +0.00    +0.065 A 
ATOM     20  C20 UNL     1      19.258   3.048   7.770+96.76 +0.00    +0.037 A 
ATOM     21  C21 UNL     1      18.824   3.603   6.564+99.99 +0.00    +0.010 A 
ATOM     22  C22 UNL     1      17.744   7.844   4.886 +2.78 +0.00    +0.241 C 
ATOM     23  C23 UNL     1      16.875   8.387   6.046+99.99 +0.00    +0.180 C 
ATOM     24  C24 UNL     1      16.352   9.792   5.690+54.53 +0.00    +0.073 C 
ATOM     25  C25 UNL     1      15.463  10.486   6.703+65.36 -0.00    -0.056 A 
ATOM     26  C26 UNL     1      14.596  11.495   6.253+99.99 +0.00    +0.007 A 
ATOM     27  C27 UNL     1      13.787  12.196   7.149+22.69 +0.00    +0.001 A 
ATOM     28  C28 UNL     1      13.838  11.903   8.508 -0.38 +0.00    +0.000 A 
ATOM     29  C29 UNL     1      14.694  10.909   8.970+99.99 +0.00    +0.001 A 
ATOM     30  C30 UNL     1      15.508  10.209   8.076+99.99 +0.00    +0.007 A 
ATOM     31  C31 UNL     1      15.917   6.399   7.190 +6.44 +0.00    +0.243 C 
ATOM     32  C32 UNL     1      14.626   5.597   7.474 -0.30 +0.00    +0.205 C 
ATOM     33  C33 UNL     1      13.109   7.267   8.506 -0.37 +0.00    +0.241 C 
ATOM     34  C34 UNL     1      11.873   8.176   8.289+16.97 +0.00    +0.176 C 
ATOM     35  C35 UNL     1      11.224   8.515   9.642+99.99 +0.00    +0.035 C 
ATOM     36  C36 UNL     1       9.995   9.432   9.574+99.99 +0.00    +0.004 C 
ATOM     37  C37 UNL     1      10.335  10.862   9.148+19.00 +0.00    +0.030 C 
ATOM     38  C38 UNL     1       9.103  11.754   8.970+99.99 +0.00    +0.267 C 
ATOM     39  C39 UNL     1      10.341   8.153   6.323 +1.87 +0.00    +0.241 C 
ATOM     40  C40 UNL     1       9.452   7.240   5.444 +6.92 +0.00    +0.179 C 
ATOM     41  C41 UNL     1       8.104   7.892   5.139+99.99 +0.00    +0.037 C 
ATOM     42  C42 UNL     1       8.357   8.667   3.850+11.42 +0.00    +0.022 C 
ATOM     43  C43 UNL     1       9.344   7.788   3.099 -0.37 +0.00    +0.127 C 
ATOM     44  C44 UNL     1      11.248   6.357   4.016 -0.22 +0.00    +0.243 C 
ATOM     45  C45 UNL     1      12.076   6.452   2.704 -0.21 +0.00    +0.186 C 
ATOM     46  C46 UNL     1      12.819   7.795   2.596 +0.72 +0.00    +0.144 C 
ATOM     47  C47 UNL     1      12.899   8.525   3.910 -0.21 +0.00    +0.141 C 
ATOM     48  C48 UNL     1      10.811   4.904   1.265+18.06 +0.00    +0.240 C 
ATOM     49  C49 UNL     1      10.186   4.680  -0.124 -0.02 +0.00    +0.172 C 
ATOM     50  C50 UNL     1       8.907   5.496  -0.277 -0.19 +0.00    +0.042 C 
ATOM     51  C51 UNL     1       9.813   2.655  -1.502 -0.12 +0.00    +0.241 C 
ATOM     52  C52 UNL     1       9.572   1.132  -1.459 -0.16 +0.00    +0.177 C 
ATOM     53  C53 UNL     1      10.712   0.361  -0.808 -0.38 +0.00    +0.044 C 
ATOM     54  C54 UNL     1      11.653   0.047  -1.970 -0.46 +0.00    +0.105 C 
ATOM     55  C55 UNL     1      10.739   0.056  -3.168 -0.24 +0.00    +0.218 C 
ATOM     56  C56 UNL     1      14.458   4.385   6.527 +4.65 +0.00    +0.146 C 
ATOM     57  C57 UNL     1      14.858   4.627   5.077+99.99 +0.00    +0.042 C 
ATOM     58  C58 UNL     1      28.485   7.350   5.241+99.99 +0.00    +0.238 C 
ATOM     59  S1  UNL     1      25.583   9.048   2.014 -0.60 -0.00    -0.173 SA
ATOM     60  N1  UNL     1      26.116   8.001   5.715+99.99 -0.00    -0.346 N 
ATOM     61  N2  UNL     1      23.158   7.344   5.834+99.99 -0.00    -0.346 N 
ATOM     62  N3  UNL     1      20.761   7.944   4.322+39.63 -0.00    -0.351 N 
ATOM     63  N4  UNL     1      18.334   6.617   5.103+99.99 -0.00    -0.346 N 
ATOM     64  N5  UNL     1      15.781   7.461   6.326+61.99 -0.00    -0.346 N 
ATOM     65  N6  UNL     1      13.443   6.471   7.427 -0.22 -0.00    -0.344 N 
ATOM     66  N7  UNL     1       8.406  11.991  10.228+99.99 +0.00    +0.078 N 
ATOM     67  N8  UNL     1      10.916   7.515   7.398 +6.68 -0.00    -0.346 N 
ATOM     68  N9  UNL     1      10.096   7.102   4.138 -0.14 -0.00    -0.337 N 
ATOM     69  N10 UNL     1      11.296   6.178   1.490 -0.15 -0.00    -0.346 N 
ATOM     70  N11 UNL     1       9.924   3.254  -0.270 +0.03 -0.00    -0.346 N 
ATOM     71  N12 UNL     1       9.515   0.561  -2.780 -0.03 -0.00    -0.348 N 
ATOM     72  N13 UNL     1      28.697   7.516   6.584+99.99 -0.00    -0.368 N 
ATOM     73  O1  UNL     1      25.975   5.721   5.919 -0.14 -0.00    -0.271 OA
ATOM     74  O2  UNL     1      23.718   9.536   5.599 +0.16 -0.00    -0.272 OA
ATOM     75  O3  UNL     1      21.692   5.919   3.901+99.99 -0.00    -0.271 OA
ATOM     76  O4  UNL     1      21.059   2.155   9.079+34.82 -0.00    -0.361 OA
ATOM     77  O5  UNL     1      17.994   8.494   3.871 -0.40 -0.00    -0.271 OA
ATOM     78  O6  UNL     1      17.029   6.052   7.587+99.99 -0.00    -0.271 OA
ATOM     79  O7  UNL     1      13.799   7.312   9.522 -0.47 -0.00    -0.271 OA
ATOM     80  O8  UNL     1      10.592   9.323   6.035 +0.87 -0.00    -0.271 OA
ATOM     81  O9  UNL     1      11.724   5.787   5.007 -0.20 -0.00    -0.271 OA
ATOM     82  O10 UNL     1      12.136   9.632   3.914 +5.03 -0.00    -0.776 OA
ATOM     83  O11 UNL     1      13.494   8.135   4.903 +0.00 -0.00    -0.650 OA
ATOM     84  O12 UNL     1      10.852   4.015   2.116+99.99 -0.00    -0.271 OA
ATOM     85  O13 UNL     1       9.865   3.298  -2.548 -0.18 -0.00    -0.271 OA
ATOM     86  O14 UNL     1      11.032  -0.284  -4.299 +2.80 -0.00    -0.274 OA
ATOM     87  O15 UNL     1      15.202   3.265   7.022 +5.53 -0.00    -0.393 OA
ATOM     88  O16 UNL     1      29.381   6.915   4.523+99.99 -0.00    -0.271 OA
ATOM     89  H69 UNL     1      25.477   8.796   5.668 +4.34 +0.00    +0.163 HD
ATOM     90  H70 UNL     1      22.835   6.556   5.269+99.99 +0.00    +0.163 HD
ATOM     91  H71 UNL     1      19.902   8.450   4.113 +0.10 +0.00    +0.163 HD
ATOM     92  H72 UNL     1      18.285   6.238   6.052+44.06 +0.00    +0.163 HD
ATOM     93  H73 UNL     1      14.842   7.728   6.027 +0.19 +0.00    +0.163 HD
ATOM     94  H74 UNL     1      12.983   6.641   6.532 +0.13 +0.00    +0.163 HD
ATOM     95  H75 UNL     1       8.022  11.119  10.586 +2.34 +0.00    +0.312 HD
ATOM     96  H76 UNL     1       7.608  12.605  10.062+99.99 +0.00    +0.312 HD
ATOM     97  H77 UNL     1      10.864   6.501   7.449 +0.14 +0.00    +0.163 HD
ATOM     98  H78 UNL     1      11.512   6.722   0.661 +0.08 +0.00    +0.163 HD
ATOM     99  H79 UNL     1       9.916   2.704   0.585 -0.46 +0.00    +0.163 HD
ATOM    100  H80 UNL     1       8.900   0.902  -3.511 +0.08 +0.00    +0.163 HD
ATOM    101  H81 UNL     1      27.873   7.555   7.170 +5.13 +0.00    +0.159 HD
ATOM    102  H82 UNL     1      29.498   7.022   6.952+99.99 +0.00    +0.159 HD
ATOM    103  H83 UNL     1      20.324   2.120   9.714 +1.20 +0.00    +0.217 HD
ATOM    104  H84 UNL     1      11.949   9.858   4.862+11.52 +0.00    +0.167 HD
ATOM    105  H85 UNL     1      14.982   2.496   6.469 +2.46 +0.00    +0.210 HD
ENDROOT
TORSDOF 40
TER
