USER    Run = 1
USER    DPF = ligand_245_receptor.dpf
USER  
USER    Estimated Free Energy of Binding    =  +5.57e+003 kcal/mol  [=(1)+(2)+(3)-(4)]
USER    
USER    (1) Final Intermolecular Energy     =  +5.57e+003 kcal/mol
USER        vdW + Hbond + desolv Energy     =  +5.57e+003 kcal/mol
USER        Electrostatic Energy            =   +0.00 kcal/mol
USER    (2) Final Total Internal Energy     =   +0.00 kcal/mol
USER    (3) Torsional Free Energy           =   +1.19 kcal/mol
USER    (4) Unbound System's Energy  [=(2)] =   +0.00 kcal/mol
USER    
USER    
USER    NEWDPF move ligand_245.pdbqt
USER    NEWDPF about 0.000000 0.000000 0.000000
USER    NEWDPF tran0 15.209846 7.171324 2.021917
USER    NEWDPF quaternion0 0.959590 0.113737 0.039509 -0.254343
USER    NEWDPF axisangle0 0.992220 0.117604 0.040852 -150.530714
USER    NEWDPF quat0 0.992220 0.117604 0.040852 -150.530714
USER  keepresnum = 1 
USER  
REMARK  0 active torsions:
REMARK  status: ('A' for Active; 'I' for Inactive)
REMARK       I    between atoms: C3_3  and  O29_81 
REMARK       I    between atoms: C4_4  and  N8_90 
REMARK       I    between atoms: C5_5  and  N7_89 
REMARK       I    between atoms: C6_6  and  O16_68 
REMARK       I    between atoms: C7_7  and  O1_53 
REMARK       I    between atoms: C8_8  and  C9_9 
REMARK       I    between atoms: C8_8  and  O1_53 
REMARK       I    between atoms: C13_13  and  O3_55 
REMARK       I    between atoms: C15_15  and  N1_82 
REMARK       I    between atoms: C16_16  and  O15_67 
REMARK       I    between atoms: C17_17  and  N6_88 
REMARK       I    between atoms: C18_18  and  N2_83 
REMARK       I    between atoms: C19_19  and  O5_57 
REMARK       I    between atoms: C20_20  and  O4_56 
REMARK       I    between atoms: C25_25  and  O7_59 
REMARK       I    between atoms: C25_25  and  O8_60 
REMARK       I    between atoms: C26_26  and  C34_34 
REMARK       I    between atoms: C27_27  and  N4_86 
REMARK       I    between atoms: C28_28  and  O13_65 
REMARK       I    between atoms: C29_29  and  O12_64 
REMARK       I    between atoms: C30_30  and  O11_63 
REMARK       I    between atoms: C31_31  and  O10_62 
REMARK       I    between atoms: C32_32  and  O9_61 
REMARK       I    between atoms: C34_34  and  N5_87 
REMARK       I    between atoms: C38_38  and  O26_78 
REMARK       I    between atoms: C38_38  and  O27_79 
REMARK       I    between atoms: C40_40  and  N9_91 
REMARK       I    between atoms: C41_41  and  O25_77 
REMARK       I    between atoms: C42_42  and  N11_93 
REMARK       I    between atoms: C43_43  and  N10_92 
REMARK       I    between atoms: C44_44  and  O19_71 
REMARK       I    between atoms: C45_45  and  O18_70 
REMARK       I    between atoms: C47_47  and  O23_75 
REMARK       I    between atoms: C47_47  and  O24_76 
REMARK       I    between atoms: C50_50  and  O21_73 
REMARK       I    between atoms: C50_50  and  O22_74 
REMARK       I    between atoms: C51_51  and  C52_52 
REMARK       I    between atoms: C52_52  and  N13_96 
USER                              x       y       z     vdW  Elec       q    Type
USER                           _______ _______ _______ _____ _____    ______ ____
ROOT
ATOM      1  C1  UNL     1      13.704   6.611   3.393 +0.43 +0.00    +0.054 C 
ATOM      2  C2  UNL     1      12.770   7.391   4.285 -0.43 +0.00    +0.010 A 
ATOM      3  C3  UNL     1      11.572   7.937   3.772 -0.33 +0.00    +0.105 A 
ATOM      4  C4  UNL     1      10.687   8.686   4.563 -0.14 +0.00    +0.114 A 
ATOM      5  C5  UNL     1      11.083   8.983   5.884 +3.46 +0.00    +0.074 A 
ATOM      6  C6  UNL     1      12.268   8.420   6.403 -0.18 +0.00    +0.123 A 
ATOM      7  C7  UNL     1      13.130   7.651   5.620 -0.34 +0.00    +0.112 A 
ATOM      8  C8  UNL     1      15.029   7.765   7.055+99.99 +0.00    +0.185 C 
ATOM      9  C9  UNL     1      16.520   7.373   7.038+99.99 +0.00    +0.066 C 
ATOM     10  C10 UNL     1      16.672   5.876   7.320+99.99 +0.00    +0.021 C 
ATOM     11  C11 UNL     1      18.131   5.546   7.542+99.99 +0.00    +0.104 C 
ATOM     12  C12 UNL     1      19.100   6.144   6.542+99.99 +0.00    +0.227 C 
ATOM     13  C13 UNL     1      17.307   7.707   5.737+35.45 +0.00    +0.142 C 
ATOM     14  C14 UNL     1      17.102   9.194   5.383+12.60 +0.00    +0.072 C 
ATOM     15  C15 UNL     1      19.759   8.007   5.186+16.65 +0.00    +0.111 A 
ATOM     16  C16 UNL     1      19.789   8.106   3.796 +0.48 +0.00    +0.119 A 
ATOM     17  C17 UNL     1      20.841   8.754   3.105 +0.13 +0.00    +0.072 A 
ATOM     18  C18 UNL     1      21.970   9.255   3.805 +0.06 +0.00    +0.102 A 
ATOM     19  C19 UNL     1      21.901   9.189   5.210+12.69 +0.00    +0.130 A 
ATOM     20  C20 UNL     1      20.831   8.568   5.880+83.05 +0.00    +0.131 A 
ATOM     21  C21 UNL     1      23.634   9.016   1.992 -0.30 +0.00    +0.282 C 
ATOM     22  C22 UNL     1      24.619   9.689   1.177 +0.15 +0.00    +0.134 C 
ATOM     23  C23 UNL     1      25.181  10.915   1.454 +2.65 +0.00    +0.017 C 
ATOM     24  C24 UNL     1      24.675  11.738   2.570+37.02 +0.00    +0.138 C 
ATOM     25  C25 UNL     1      23.978  10.833   3.628 +0.29 +0.00    +0.257 C 
ATOM     26  C26 UNL     1      26.285  11.047   0.576+99.99 +0.00    +0.125 C 
ATOM     27  C27 UNL     1      24.835   8.282  -0.928 +0.95 +0.00    +0.129 A 
ATOM     28  C28 UNL     1      25.806   7.579  -1.659 +5.45 +0.00    +0.134 A 
ATOM     29  C29 UNL     1      25.444   6.571  -2.575 +1.76 +0.00    +0.138 A 
ATOM     30  C30 UNL     1      24.104   6.275  -2.813 +0.30 +0.00    +0.140 A 
ATOM     31  C31 UNL     1      23.148   7.039  -2.136 +0.57 +0.00    +0.138 A 
ATOM     32  C32 UNL     1      23.496   8.037  -1.219 -0.03 +0.00    +0.134 A 
ATOM     33  C33 UNL     1      24.463   4.445  -4.301+11.76 +0.00    +0.210 C 
ATOM     34  C34 UNL     1      27.273  12.133   0.475+98.22 +0.00    +0.268 C 
ATOM     35  C35 UNL     1       8.592   8.734   3.068 +1.92 +0.00    +0.134 C 
ATOM     36  C36 UNL     1       7.694   9.760   2.829+59.16 +0.00    +0.017 C 
ATOM     37  C37 UNL     1       6.704   9.668   1.728+99.99 +0.00    +0.138 C 
ATOM     38  C38 UNL     1       7.149   8.601   0.695 +2.96 +0.00    +0.257 C 
ATOM     39  C39 UNL     1       8.529   7.446   2.409 -0.24 +0.00    +0.282 C 
ATOM     40  C40 UNL     1       7.384   6.090   0.739 -0.18 +0.00    +0.114 A 
ATOM     41  C41 UNL     1       7.586   5.821  -0.616 +0.15 +0.00    +0.119 A 
ATOM     42  C42 UNL     1       7.419   4.532  -1.168 +0.03 +0.00    +0.072 A 
ATOM     43  C43 UNL     1       6.945   3.474  -0.366 -0.06 +0.00    +0.102 A 
ATOM     44  C44 UNL     1       6.748   3.743   1.000 -0.06 +0.00    +0.130 A 
ATOM     45  C45 UNL     1       6.946   5.026   1.534 -0.09 +0.00    +0.131 A 
ATOM     46  C46 UNL     1       5.767   2.128  -2.057 -0.03 +0.00    +0.291 C 
ATOM     47  C47 UNL     1       5.491   0.683  -2.596 -0.07 +0.00    +0.244 C 
ATOM     48  C48 UNL     1       5.181  -0.217  -1.412 +4.07 +0.00    +0.086 C 
ATOM     49  C49 UNL     1       6.309  -0.212  -0.380+12.21 +0.00    +0.100 C 
ATOM     50  C50 UNL     1       7.262   0.987  -0.511 -0.10 +0.00    +0.253 C 
ATOM     51  C51 UNL     1       7.934  10.738   3.820+99.99 +0.00    +0.125 C 
ATOM     52  C52 UNL     1       7.248  12.017   4.080+99.99 +0.00    +0.268 C 
ATOM     53  O1  UNL     1      14.303   7.083   6.038 -0.22 -0.00    -0.347 OA
ATOM     54  O2  UNL     1      20.207   5.610   6.405 +6.04 -0.00    -0.273 OA
ATOM     55  O3  UNL     1      16.808   6.922   4.664 +1.03 -0.00    -0.370 OA
ATOM     56  O4  UNL     1      20.840   8.563   7.256 +2.50 -0.00    -0.356 OA
ATOM     57  O5  UNL     1      22.876   9.691   6.038 -0.00 -0.00    -0.356 OA
ATOM     58  O6  UNL     1      23.295   7.854   1.783 -0.28 -0.00    -0.265 OA
ATOM     59  O7  UNL     1      24.970  10.223   4.426+92.36 -0.00    -0.348 OA
ATOM     60  O8  UNL     1      23.233  11.682   4.498 +0.14 -0.00    -0.348 OA
ATOM     61  O9  UNL     1      22.480   8.813  -0.721 -0.07 -0.00    -0.356 OA
ATOM     62  O10 UNL     1      21.806   6.848  -2.378 +4.47 -0.00    -0.356 OA
ATOM     63  O11 UNL     1      23.565   5.343  -3.661+39.81 -0.00    -0.350 OA
ATOM     64  O12 UNL     1      26.470   5.927  -3.217+43.72 -0.00    -0.356 OA
ATOM     65  O13 UNL     1      27.161   7.799  -1.535 +0.56 -0.00    -0.356 OA
ATOM     66  O14 UNL     1      28.427  11.986   0.086+36.35 -0.00    -0.266 OA
ATOM     67  O15 UNL     1      18.791   7.562   3.018 +0.43 -0.00    -0.357 OA
ATOM     68  O16 UNL     1      12.515   8.681   7.731 -0.31 -0.00    -0.356 OA
ATOM     69  O17 UNL     1       9.212   6.485   2.766 -0.17 -0.00    -0.265 OA
ATOM     70  O18 UNL     1       6.622   5.232   2.854 -0.05 -0.00    -0.356 OA
ATOM     71  O19 UNL     1       6.301   2.792   1.887 -0.05 -0.00    -0.356 OA
ATOM     72  O20 UNL     1       5.247   3.091  -2.632 -0.09 -0.00    -0.267 OA
ATOM     73  O21 UNL     1       7.895   1.134   0.742 -0.15 -0.00    -0.348 OA
ATOM     74  O22 UNL     1       8.318   0.752  -1.413 -0.06 -0.00    -0.348 OA
ATOM     75  O23 UNL     1       6.610   0.156  -3.282 -0.18 -0.00    -0.358 OA
ATOM     76  O24 UNL     1       4.409   0.646  -3.499 -0.02 -0.00    -0.358 OA
ATOM     77  O25 UNL     1       8.016   6.808  -1.476 +0.32 -0.00    -0.357 OA
ATOM     78  O26 UNL     1       8.169   9.142  -0.118 +6.28 -0.00    -0.348 OA
ATOM     79  O27 UNL     1       6.021   8.370  -0.132 +0.69 -0.00    -0.348 OA
ATOM     80  O28 UNL     1       7.722  12.933   4.746+99.99 -0.00    -0.266 OA
ATOM     81  O29 UNL     1      11.340   7.758   2.434 -0.11 -0.00    -0.358 OA
ATOM     82  N1  UNL     1      18.725   7.331   5.909+99.99 -0.00    -0.279 N 
ATOM     83  N2  UNL     1      23.116   9.787   3.074 -0.29 -0.00    -0.251 N 
ATOM     84  N3  UNL     1      26.381   9.952  -0.201+99.99 -0.00    -0.287 N 
ATOM     85  H3  UNL     1      27.151   9.695  -0.820 +3.29 +0.00    +0.188 HD
ATOM     86  N4  UNL     1      25.224   9.257   0.017 +4.20 -0.00    -0.244 N 
ATOM     87  N5  UNL     1      26.817  13.385   0.803 +5.34 -0.00    -0.365 N 
ATOM     88  N6  UNL     1      20.759   8.687   1.674 +7.40 -0.00    -0.298 NA
ATOM     89  N7  UNL     1      10.241   9.636   6.847 +2.42 -0.00    -0.298 NA
ATOM     90  N8  UNL     1       9.448   9.195   4.056 +0.13 -0.00    -0.245 N 
ATOM     91  N9  UNL     1       7.632   7.375   1.317 -0.26 -0.00    -0.250 N 
ATOM     92  N10 UNL     1       6.594   2.201  -0.928 -0.03 -0.00    -0.252 N 
ATOM     93  N11 UNL     1       7.617   4.421  -2.580 +0.08 -0.00    -0.298 NA
ATOM     94  N12 UNL     1       8.934  10.332   4.619+33.42 -0.00    -0.287 N 
ATOM     95  H12 UNL     1       9.249  10.783   5.477+14.77 +0.00    +0.188 HD
ATOM     96  N13 UNL     1       5.980  12.148   3.574+99.99 -0.00    -0.365 N 
ATOM     97  H25 UNL     1      17.484   7.001   3.963 +0.16 +0.00    +0.212 HD
ATOM     98  H26 UNL     1      21.752   8.813   7.502 +0.19 +0.00    +0.218 HD
ATOM     99  H27 UNL     1      22.958  10.633   5.767 -0.37 +0.00    +0.218 HD
ATOM    100  H28 UNL     1      24.541   9.431   4.801 +0.16 +0.00    +0.215 HD
ATOM    101  H29 UNL     1      23.786  12.470   4.640 -0.05 +0.00    +0.215 HD
ATOM    102  H30 UNL     1      21.667   8.419  -1.111 +0.18 +0.00    +0.218 HD
ATOM    103  H31 UNL     1      21.778   6.109  -3.020+99.99 +0.00    +0.218 HD
ATOM    104  H32 UNL     1      27.284   6.337  -2.856 +0.22 +0.00    +0.218 HD
ATOM    105  H33 UNL     1      27.278   8.654  -1.055 +0.20 +0.00    +0.218 HD
ATOM    106  H34 UNL     1      19.087   7.776   2.104 +0.79 +0.00    +0.218 HD
ATOM    107  H35 UNL     1      11.786   9.295   7.971 +0.17 +0.00    +0.218 HD
ATOM    108  H36 UNL     1       6.342   4.356   3.188 +0.09 +0.00    +0.218 HD
ATOM    109  H37 UNL     1       6.822   1.983   1.689 +0.09 +0.00    +0.218 HD
ATOM    110  H38 UNL     1       8.805   1.364   0.474 +0.11 +0.00    +0.215 HD
ATOM    111  H39 UNL     1       8.007   0.087  -2.061 +0.10 +0.00    +0.215 HD
ATOM    112  H40 UNL     1       6.491   0.474  -4.197 +0.05 +0.00    +0.213 HD
ATOM    113  H41 UNL     1       4.200   1.577  -3.718 +0.04 +0.00    +0.213 HD
ATOM    114  H42 UNL     1       8.153   6.317  -2.322 -0.47 +0.00    +0.218 HD
ATOM    115  H43 UNL     1       8.594   8.356  -0.511 +0.07 +0.00    +0.215 HD
ATOM    116  H44 UNL     1       6.398   7.919  -0.906 -0.10 +0.00    +0.215 HD
ATOM    117  H45 UNL     1      10.908   6.876   2.389 +0.12 +0.00    +0.217 HD
ATOM    118  H46 UNL     1      27.459  14.128   0.551 +0.37 +0.00    +0.159 HD
ATOM    119  H47 UNL     1      25.833  13.594   0.715 -0.25 +0.00    +0.159 HD
ATOM    120  H48 UNL     1      21.206   9.507   1.261 +0.09 +0.00    +0.124 HD
ATOM    121  H49 UNL     1      21.378   7.904   1.400 +1.49 +0.00    +0.124 HD
ATOM    122  H50 UNL     1       9.585   8.950   7.224 +0.45 +0.00    +0.124 HD
ATOM    123  H51 UNL     1       9.659  10.315   6.324 +4.16 +0.00    +0.124 HD
ATOM    124  H52 UNL     1       6.674   4.391  -2.999 -0.17 +0.00    +0.124 HD
ATOM    125  H53 UNL     1       8.028   3.507  -2.781 +0.03 +0.00    +0.124 HD
ATOM    126  H54 UNL     1       5.430  11.337   3.337+99.99 +0.00    +0.159 HD
ATOM    127  H55 UNL     1       5.482  12.966   3.900+27.01 +0.00    +0.159 HD
ENDROOT
TORSDOF 36
TER
