USER    Run = 1
USER    DPF = ligand_373_receptor.dpf
USER  
USER    Estimated Free Energy of Binding    =   -1.94 kcal/mol  [=(1)+(2)+(3)-(4)]
USER    Estimated Inhibition Constant, Ki   =   37.81 mM (millimolar)  [Temperature = 298.15 K]
USER    
USER    (1) Final Intermolecular Energy     =   -3.13 kcal/mol
USER        vdW + Hbond + desolv Energy     =   -3.13 kcal/mol
USER        Electrostatic Energy            =   +0.00 kcal/mol
USER    (2) Final Total Internal Energy     =   +0.00 kcal/mol
USER    (3) Torsional Free Energy           =   +1.19 kcal/mol
USER    (4) Unbound System's Energy  [=(2)] =   +0.00 kcal/mol
USER    
USER    
USER    NEWDPF move ligand_373.pdbqt
USER    NEWDPF about 0.000000 0.000000 0.000000
USER    NEWDPF tran0 16.274867 6.827112 2.153136
USER    NEWDPF quaternion0 0.022930 -0.840369 -0.493923 -0.222023
USER    NEWDPF axisangle0 0.023517 -0.861880 -0.506567 -154.344231
USER    NEWDPF quat0 0.023517 -0.861880 -0.506567 -154.344231
USER  keepresnum = 1 
USER  
REMARK  0 active torsions:
REMARK  status: ('A' for Active; 'I' for Inactive)
REMARK       I    between atoms: C1_1  and  C2_2 
REMARK       I    between atoms: C1_1  and  C15_15 
REMARK       I    between atoms: C2_2  and  C3_3 
REMARK       I    between atoms: C3_3  and  N1_29 
REMARK       I    between atoms: C4_4  and  C5_5 
REMARK       I    between atoms: C4_4  and  N1_29 
REMARK       I    between atoms: C5_5  and  C6_6 
REMARK       I    between atoms: C6_6  and  C7_7 
REMARK       I    between atoms: C7_7  and  C8_8 
REMARK       I    between atoms: C8_8  and  O2_32 
REMARK       I    between atoms: C9_9  and  C10_10 
REMARK       I    between atoms: C9_9  and  O2_32 
REMARK       I    between atoms: C9_9  and  O7_37 
REMARK       I    between atoms: C10_10  and  C11_11 
REMARK       I    between atoms: C10_10  and  O6_36 
REMARK       I    between atoms: C11_11  and  C12_12 
REMARK       I    between atoms: C11_11  and  O5_35 
REMARK       I    between atoms: C12_12  and  C13_13 
REMARK       I    between atoms: C12_12  and  O4_34 
REMARK       I    between atoms: C13_13  and  C14_14 
REMARK       I    between atoms: C14_14  and  O3_33 
REMARK       I    between atoms: C15_15  and  C16_16 
REMARK       I    between atoms: C16_16  and  C17_17 
REMARK       I    between atoms: C16_16  and  N2_30 
REMARK       I    between atoms: C18_18  and  C19_19 
REMARK       I    between atoms: C18_18  and  N2_30 
REMARK       I    between atoms: C19_19  and  C20_20 
REMARK       I    between atoms: C20_20  and  C21_21 
REMARK       I    between atoms: C21_21  and  C22_22 
REMARK       I    between atoms: C22_22  and  O10_40 
REMARK       I    between atoms: C23_23  and  C24_24 
REMARK       I    between atoms: C23_23  and  O10_40 
REMARK       I    between atoms: C23_23  and  O15_45 
REMARK       I    between atoms: C24_24  and  C25_25 
REMARK       I    between atoms: C24_24  and  O14_44 
REMARK       I    between atoms: C25_25  and  C26_26 
REMARK       I    between atoms: C25_25  and  O13_43 
REMARK       I    between atoms: C26_26  and  C27_27 
REMARK       I    between atoms: C26_26  and  O12_42 
REMARK       I    between atoms: C27_27  and  C28_28 
REMARK       I    between atoms: C28_28  and  O11_41 
USER                              x       y       z     vdW  Elec       q    Type
USER                           _______ _______ _______ _____ _____    ______ ____
ROOT
ATOM      1  C1  UNL     1      15.458   9.142   2.577 -0.32 +0.00    +0.004 C 
ATOM      2  C2  UNL     1      14.322   8.638   3.473 -0.34 +0.00    +0.020 C 
ATOM      3  C3  UNL     1      14.792   8.176   4.851 -0.23 +0.00    +0.122 C 
ATOM      4  C4  UNL     1      13.384   6.232   5.437 -0.34 +0.00    +0.217 C 
ATOM      5  C5  UNL     1      12.189   5.820   6.275 -0.38 +0.00    +0.103 C 
ATOM      6  C6  UNL     1      11.757   4.368   6.073 -0.51 +0.00    +0.011 C 
ATOM      7  C7  UNL     1      11.201   4.028   4.684 -0.26 +0.00    +0.027 C 
ATOM      8  C8  UNL     1      10.047   4.908   4.213 -0.22 +0.00    +0.171 C 
ATOM      9  C9  UNL     1       7.867   5.644   4.796 -0.09 +0.00    +0.287 C 
ATOM     10  C10 UNL     1       6.900   4.749   3.976 -0.15 +0.00    +0.204 C 
ATOM     11  C11 UNL     1       5.745   5.576   3.398 -0.15 +0.00    +0.180 C 
ATOM     12  C12 UNL     1       4.652   4.758   2.670 -0.13 +0.00    +0.151 C 
ATOM     13  C13 UNL     1       5.150   3.930   1.472 -0.12 +0.00    +0.060 C 
ATOM     14  C14 UNL     1       5.385   2.466   1.815 -0.12 +0.00    +0.166 C 
ATOM     15  C15 UNL     1      16.176  10.374   3.144 -0.33 +0.00    +0.032 C 
ATOM     16  C16 UNL     1      17.165  11.035   2.174 -0.46 +0.00    +0.145 C 
ATOM     17  C17 UNL     1      16.480  11.623   0.943 -0.37 +0.00    +0.256 C 
ATOM     18  C18 UNL     1      19.472  10.603   1.385 -0.39 +0.00    +0.218 C 
ATOM     19  C19 UNL     1      20.433   9.502   0.979 +1.31 +0.00    +0.103 C 
ATOM     20  C20 UNL     1      21.773  10.058   0.500 -0.53 +0.00    +0.011 C 
ATOM     21  C21 UNL     1      22.726   8.977  -0.010 -0.52 +0.00    +0.027 C 
ATOM     22  C22 UNL     1      23.227   8.038   1.082 -0.34 +0.00    +0.171 C 
ATOM     23  C23 UNL     1      24.720   6.233   1.428 -0.18 +0.00    +0.287 C 
ATOM     24  C24 UNL     1      25.803   5.341   0.785 -0.29 +0.00    +0.204 C 
ATOM     25  C25 UNL     1      27.013   6.066   0.155 -0.26 +0.00    +0.180 C 
ATOM     26  C26 UNL     1      26.686   6.981  -1.057 -0.26 +0.00    +0.151 C 
ATOM     27  C27 UNL     1      27.877   7.765  -1.639 +0.22 +0.00    +0.060 C 
ATOM     28  C28 UNL     1      28.894   6.957  -2.434 -0.10 +0.00    +0.166 C 
ATOM     29  N1  UNL     1      13.714   7.562   5.599 -0.17 -0.00    -0.361 N 
ATOM     30  N2  UNL     1      18.237  10.127   1.771 -0.16 -0.00    -0.350 N 
ATOM     31  O1  UNL     1      14.001   5.473   4.700 +1.17 -0.00    -0.274 OA
ATOM     32  O2  UNL     1       9.023   4.917   5.203 -0.11 -0.00    -0.359 OA
ATOM     33  O3  UNL     1       4.144   1.860   2.154 -0.05 -0.00    -0.401 OA
ATOM     34  O4  UNL     1       3.721   5.740   2.156 -0.27 -0.00    -0.393 OA
ATOM     35  O5  UNL     1       6.264   6.562   2.486 -0.13 -0.00    -0.390 OA
ATOM     36  O6  UNL     1       6.379   3.703   4.817 -0.12 -0.00    -0.388 OA
ATOM     37  O7  UNL     1       7.197   6.009   6.003 +0.20 -0.00    -0.369 OA
ATOM     38  O8  UNL     1      15.342  12.088   0.946 +0.23 -0.00    -0.305 OA
ATOM     39  O9  UNL     1      19.749  11.797   1.374 -0.43 -0.00    -0.274 OA
ATOM     40  O10 UNL     1      24.137   7.116   0.481 -0.21 -0.00    -0.359 OA
ATOM     41  O11 UNL     1      29.748   6.244  -1.542 -0.04 -0.00    -0.401 OA
ATOM     42  O12 UNL     1      26.056   6.260  -2.119 -0.14 -0.00    -0.393 OA
ATOM     43  O13 UNL     1      27.889   4.990  -0.234 -0.13 -0.00    -0.390 OA
ATOM     44  O14 UNL     1      25.195   4.475  -0.205 -0.53 -0.00    -0.388 OA
ATOM     45  O15 UNL     1      23.704   5.387   1.957 +2.05 -0.00    -0.369 OA
ATOM     46  H43 UNL     1      13.117   8.155   6.161 +0.12 +0.00    +0.162 HD
ATOM     47  H44 UNL     1      18.011   9.162   1.563 +0.12 +0.00    +0.163 HD
ATOM     48  H45 UNL     1       4.348   0.967   2.484 +0.08 +0.00    +0.209 HD
ATOM     49  H46 UNL     1       2.940   5.235   1.860 +0.04 +0.00    +0.210 HD
ATOM     50  H47 UNL     1       5.462   6.907   2.039 +0.08 +0.00    +0.210 HD
ATOM     51  H48 UNL     1       6.467   4.052   5.729 +0.06 +0.00    +0.210 HD
ATOM     52  H49 UNL     1       7.799   6.640   6.432 +0.52 +0.00    +0.212 HD
ATOM     53  H50 UNL     1      30.444   5.844  -2.098 +0.06 +0.00    +0.209 HD
ATOM     54  H51 UNL     1      25.301   5.782  -1.718 +0.14 +0.00    +0.210 HD
ATOM     55  H52 UNL     1      28.700   5.404  -0.603 +0.10 +0.00    +0.210 HD
ATOM     56  H53 UNL     1      25.962   4.003  -0.597 +0.13 +0.00    +0.210 HD
ATOM     57  H54 UNL     1      23.602   4.696   1.272 +0.16 +0.00    +0.212 HD
ENDROOT
TORSDOF 39
TER
