USER    Run = 1
USER    DPF = ligand_255_receptor.dpf
USER  
USER    Estimated Free Energy of Binding    = +460.48 kcal/mol  [=(1)+(2)+(3)-(4)]
USER    
USER    (1) Final Intermolecular Energy     = +459.28 kcal/mol
USER        vdW + Hbond + desolv Energy     = +459.28 kcal/mol
USER        Electrostatic Energy            =   +0.00 kcal/mol
USER    (2) Final Total Internal Energy     =   +0.00 kcal/mol
USER    (3) Torsional Free Energy           =   +1.19 kcal/mol
USER    (4) Unbound System's Energy  [=(2)] =   +0.00 kcal/mol
USER    
USER    
USER    NEWDPF move ligand_255.pdbqt
USER    NEWDPF about 0.000000 0.000000 0.000000
USER    NEWDPF tran0 14.659062 7.002388 2.935886
USER    NEWDPF quaternion0 -0.577638 -0.131432 -0.156469 -0.790302
USER    NEWDPF axisangle0 -0.942748 -0.214507 -0.255369 -75.572476
USER    NEWDPF quat0 -0.942748 -0.214507 -0.255369 -75.572476
USER  keepresnum = 1 
USER  
REMARK  0 active torsions:
REMARK  status: ('A' for Active; 'I' for Inactive)
REMARK       I    between atoms: C2_2  and  O11_48 
REMARK       I    between atoms: C6_6  and  N4_53 
REMARK       I    between atoms: C7_7  and  N4_53 
REMARK       I    between atoms: C8_8  and  N6_55 
REMARK       I    between atoms: C9_9  and  O6_43 
REMARK       I    between atoms: C10_10  and  O4_41 
REMARK       I    between atoms: C11_11  and  C12_12 
REMARK       I    between atoms: C12_12  and  O3_40 
REMARK       I    between atoms: C13_13  and  O4_41 
REMARK       I    between atoms: C13_13  and  N5_54 
REMARK       I    between atoms: C14_14  and  C15_15 
REMARK       I    between atoms: C14_14  and  N6_55 
REMARK       I    between atoms: C15_15  and  C16_16 
REMARK       I    between atoms: C16_16  and  C17_17 
REMARK       I    between atoms: C16_16  and  N14_63 
REMARK       I    between atoms: C17_17  and  C18_18 
REMARK       I    between atoms: C18_18  and  C19_19 
REMARK       I    between atoms: C19_19  and  N7_56 
REMARK       I    between atoms: C20_20  and  C21_21 
REMARK       I    between atoms: C20_20  and  N7_56 
REMARK       I    between atoms: C21_21  and  C22_22 
REMARK       I    between atoms: C22_22  and  C23_23 
REMARK       I    between atoms: C22_22  and  N13_62 
REMARK       I    between atoms: C23_23  and  C24_24 
REMARK       I    between atoms: C24_24  and  C25_25 
REMARK       I    between atoms: C25_25  and  N8_57 
REMARK       I    between atoms: C26_26  and  C27_27 
REMARK       I    between atoms: C26_26  and  N8_57 
REMARK       I    between atoms: C27_27  and  C28_28 
REMARK       I    between atoms: C28_28  and  C29_29 
REMARK       I    between atoms: C28_28  and  N12_61 
REMARK       I    between atoms: C29_29  and  C30_30 
REMARK       I    between atoms: C30_30  and  C31_31 
REMARK       I    between atoms: C31_31  and  N9_58 
REMARK       I    between atoms: C32_32  and  C33_33 
REMARK       I    between atoms: C32_32  and  N9_58 
REMARK       I    between atoms: C33_33  and  C34_34 
REMARK       I    between atoms: C34_34  and  C35_35 
REMARK       I    between atoms: C34_34  and  N11_60 
REMARK       I    between atoms: C35_35  and  C36_36 
REMARK       I    between atoms: C36_36  and  C37_37 
REMARK       I    between atoms: C37_37  and  N10_59 
USER                              x       y       z     vdW  Elec       q    Type
USER                           _______ _______ _______ _____ _____    ______ ____
ROOT
ATOM      1  C1  UNL     1       5.592   0.183   0.251+11.77 +0.00    +0.156 C 
ATOM      2  C2  UNL     1       4.758   0.935   1.275 +0.05 +0.00    +0.156 C 
ATOM      3  C3  UNL     1       5.574   1.074   2.569 -0.23 +0.00    +0.124 C 
ATOM      4  C4  UNL     1       6.964   1.684   2.354 -0.19 +0.00    +0.196 C 
ATOM      5  C5  UNL     1       7.606   1.437   0.990 -0.15 +0.00    +0.242 C 
ATOM      6  C6  UNL     1       5.662   3.228   3.240 -0.16 +0.00    +0.130 C 
ATOM      7  C7  UNL     1       5.770   5.591   3.768 -0.12 +0.00    +0.226 C 
ATOM      8  C8  UNL     1       6.632   5.726   5.052 -0.10 +0.00    +0.159 C 
ATOM      9  C9  UNL     1       5.719   5.928   6.280 -0.21 +0.00    +0.176 C 
ATOM     10  C10 UNL     1       4.764   7.112   6.051 +6.66 +0.00    +0.195 C 
ATOM     11  C11 UNL     1       3.984   6.901   4.743 +0.68 +0.00    +0.179 C 
ATOM     12  C12 UNL     1       3.097   8.113   4.411 +0.02 +0.00    +0.198 C 
ATOM     13  C13 UNL     1       4.286   7.833   8.250 +2.80 +0.00    +0.358 C 
ATOM     14  C14 UNL     1       8.712   6.907   5.739+41.04 +0.00    +0.220 C 
ATOM     15  C15 UNL     1       9.546   8.148   5.483+31.62 +0.00    +0.138 C 
ATOM     16  C16 UNL     1      10.935   8.070   6.134 -0.21 +0.00    +0.226 C 
ATOM     17  C17 UNL     1      11.828   7.032   5.419 -0.40 +0.00    +0.037 C 
ATOM     18  C18 UNL     1      13.149   6.760   6.154 -0.49 +0.00    +0.022 C 
ATOM     19  C19 UNL     1      13.940   5.619   5.514 +0.12 +0.00    +0.122 C 
ATOM     20  C20 UNL     1      15.527   6.716   3.963+17.07 +0.00    +0.219 C 
ATOM     21  C21 UNL     1      15.732   7.016   2.484+79.92 +0.00    +0.138 C 
ATOM     22  C22 UNL     1      16.932   7.874   2.054 -0.21 +0.00    +0.226 C 
ATOM     23  C23 UNL     1      18.297   7.149   2.074+15.82 +0.00    +0.037 C 
ATOM     24  C24 UNL     1      18.922   6.745   3.411 +7.19 +0.00    +0.022 C 
ATOM     25  C25 UNL     1      19.387   7.886   4.317 +0.46 +0.00    +0.122 C 
ATOM     26  C26 UNL     1      20.652   9.586   2.995 -0.13 +0.00    +0.219 C 
ATOM     27  C27 UNL     1      22.067  10.020   2.650 -0.26 +0.00    +0.138 C 
ATOM     28  C28 UNL     1      22.199  10.862   1.369+17.69 +0.00    +0.226 C 
ATOM     29  C29 UNL     1      21.739  10.079   0.123 -0.48 +0.00    +0.037 C 
ATOM     30  C30 UNL     1      22.075  10.752  -1.216+27.68 +0.00    +0.022 C 
ATOM     31  C31 UNL     1      23.569  10.877  -1.518+13.22 +0.00    +0.122 C 
ATOM     32  C32 UNL     1      24.867   8.905  -0.737 +5.02 +0.00    +0.219 C 
ATOM     33  C33 UNL     1      25.367   7.543  -1.195 +0.51 +0.00    +0.138 C 
ATOM     34  C34 UNL     1      26.298   6.786  -0.232 -0.28 +0.00    +0.226 C 
ATOM     35  C35 UNL     1      27.765   7.269  -0.246 -0.36 +0.00    +0.037 C 
ATOM     36  C36 UNL     1      28.025   8.684   0.280 -0.08 +0.00    +0.032 C 
ATOM     37  C37 UNL     1      29.508   9.070   0.274 +0.54 +0.00    +0.267 C 
ATOM     38  O1  UNL     1       8.760   1.767   0.722 -0.17 -0.00    -0.271 OA
ATOM     39  O2  UNL     1       4.864   6.693   3.630 +0.04 -0.00    -0.359 OA
ATOM     40  O3  UNL     1       3.858   9.320   4.401 +2.94 -0.00    -0.398 OA
ATOM     41  O4  UNL     1       3.824   7.206   7.146 -0.24 -0.00    -0.293 OA
ATOM     42  O5  UNL     1       5.405   8.288   8.408 -0.03 -0.00    -0.239 OA
ATOM     43  O6  UNL     1       4.942   4.734   6.516 -0.23 -0.00    -0.391 OA
ATOM     44  O7  UNL     1       8.972   6.071   6.597 +0.03 -0.00    -0.274 OA
ATOM     45  O8  UNL     1      16.255   7.078   4.877 -0.48 -0.00    -0.274 OA
ATOM     46  O9  UNL     1      19.653  10.174   2.594 -0.28 -0.00    -0.274 OA
ATOM     47  O10 UNL     1      25.016   9.343   0.399 +1.20 -0.00    -0.274 OA
ATOM     48  O11 UNL     1       3.523   0.255   1.527 -0.07 -0.00    -0.392 OA
ATOM     49  N1  UNL     1       6.859   0.825   0.020 -0.01 -0.00    -0.357 N 
ATOM     50  N2  UNL     1       6.785   3.157   2.591 -0.05 -0.00    -0.356 N 
ATOM     51  H2  UNL     1       7.400   3.920   2.309 +0.07 +0.00    +0.162 HD
ATOM     52  N3  UNL     1       4.963   2.077   3.441 -0.14 -0.00    -0.260 NA
ATOM     53  N4  UNL     1       5.044   4.332   3.714 -0.06 -0.00    -0.240 NA
ATOM     54  N5  UNL     1       3.316   7.886   9.188+44.48 -0.00    -0.346 N 
ATOM     55  N6  UNL     1       7.603   6.825   4.928 +4.29 -0.00    -0.350 N 
ATOM     56  N7  UNL     1      14.398   5.941   4.177 +4.55 -0.00    -0.361 N 
ATOM     57  N8  UNL     1      20.618   8.497   3.838 +0.76 -0.00    -0.361 N 
ATOM     58  N9  UNL     1      24.197   9.586  -1.733 +8.94 -0.00    -0.361 N 
ATOM     59  N10 UNL     1      30.307   8.306   1.224 -0.22 +0.00    +0.078 N 
ATOM     60  N11 UNL     1      25.753   6.685   1.125 -0.33 +0.00    +0.083 N 
ATOM     61  N12 UNL     1      21.495  12.149   1.452+54.36 +0.00    +0.083 N 
ATOM     62  N13 UNL     1      16.937   9.182   2.692 -0.42 +0.00    +0.083 N 
ATOM     63  N14 UNL     1      11.554   9.402   6.062+23.17 +0.00    +0.083 N 
ATOM     64  H49 UNL     1       3.297  10.006   3.999 +0.07 +0.00    +0.209 HD
ATOM     65  H50 UNL     1       4.564   4.837   7.412 +0.09 +0.00    +0.210 HD
ATOM     66  H51 UNL     1       3.714  -0.589   1.974 +0.16 +0.00    +0.210 HD
ATOM     67  H52 UNL     1       7.363   0.658  -0.843 +0.06 +0.00    +0.162 HD
ATOM     68  H53 UNL     1       3.960   2.186   3.322 +0.05 +0.00    +0.130 HD
ATOM     69  H54 UNL     1       4.599   4.138   4.612 +0.06 +0.00    +0.132 HD
ATOM     70  H55 UNL     1       2.373   7.622   8.951 +0.09 +0.00    +0.161 HD
ATOM     71  H56 UNL     1       3.495   8.424  10.024 +5.53 +0.00    +0.161 HD
ATOM     72  H57 UNL     1       7.356   7.619   4.346 +0.48 +0.00    +0.163 HD
ATOM     73  H58 UNL     1      13.753   5.800   3.410 -0.01 +0.00    +0.162 HD
ATOM     74  H59 UNL     1      21.487   8.041   4.086 +1.62 +0.00    +0.162 HD
ATOM     75  H60 UNL     1      24.018   9.118  -2.612 +0.44 +0.00    +0.162 HD
ATOM     76  H61 UNL     1      29.894   8.380   2.153 +0.17 +0.00    +0.312 HD
ATOM     77  H62 UNL     1      30.292   7.317   0.983 +0.15 +0.00    +0.312 HD
ATOM     78  H63 UNL     1      25.524   7.632   1.451 +0.25 +0.00    +0.313 HD
ATOM     79  H64 UNL     1      26.464   6.336   1.765 +0.23 +0.00    +0.313 HD
ATOM     80  H65 UNL     1      21.794  12.645   2.292+29.89 +0.00    +0.313 HD
ATOM     81  H66 UNL     1      20.500  11.948   1.614 +0.29 +0.00    +0.313 HD
ATOM     82  H67 UNL     1      17.836   9.658   2.528 +0.25 +0.00    +0.313 HD
ATOM     83  H68 UNL     1      16.220   9.787   2.302 +0.23 +0.00    +0.313 HD
ATOM     84  H69 UNL     1      11.021  10.055   6.636 +0.93 +0.00    +0.313 HD
ATOM     85  H70 UNL     1      12.487   9.374   6.473 +0.35 +0.00    +0.313 HD
ENDROOT
TORSDOF 37
TER
