USER    Run = 1
USER    DPF = ligand_244_receptor.dpf
USER  
USER    Estimated Free Energy of Binding    =  +1.02e+007 kcal/mol  [=(1)+(2)+(3)-(4)]
USER    
USER    (1) Final Intermolecular Energy     =  +1.02e+007 kcal/mol
USER        vdW + Hbond + desolv Energy     =  +5.30e+006 kcal/mol
USER        Electrostatic Energy            =  +4.89e+006 kcal/mol
USER    (2) Final Total Internal Energy     =   +0.00 kcal/mol
USER    (3) Torsional Free Energy           =   +1.19 kcal/mol
USER    (4) Unbound System's Energy  [=(2)] =   +0.00 kcal/mol
USER    
USER    
USER    NEWDPF move ligand_244.pdbqt
USER    NEWDPF about 0.000000 0.000000 0.000000
USER    NEWDPF tran0 16.229092 8.134502 2.279081
USER    NEWDPF quaternion0 -0.175261 0.689086 -0.700257 0.063918
USER    NEWDPF axisangle0 -0.175620 0.690498 -0.701691 172.670593
USER    NEWDPF quat0 -0.175620 0.690498 -0.701691 172.670593
USER  keepresnum = 1 
USER  
REMARK  0 active torsions:
REMARK  status: ('A' for Active; 'I' for Inactive)
REMARK       I    between atoms: C4_4  and  C5_5 
REMARK       I    between atoms: C5_5  and  N3_80 
REMARK       I    between atoms: C6_6  and  N3_80 
REMARK       I    between atoms: C8_8  and  C9_9 
REMARK       I    between atoms: C9_9  and  N6_84 
REMARK       I    between atoms: C10_10  and  N6_84 
REMARK       I    between atoms: C12_12  and  C14_14 
REMARK       I    between atoms: C14_14  and  N8_86 
REMARK       I    between atoms: C15_15  and  N8_86 
REMARK       I    between atoms: C17_17  and  C19_19 
REMARK       I    between atoms: C19_19  and  N10_88 
REMARK       I    between atoms: C20_20  and  C21_21 
REMARK       I    between atoms: C20_20  and  N10_88 
REMARK       I    between atoms: C21_21  and  C22_22 
REMARK       I    between atoms: C22_22  and  C23_23 
REMARK       I    between atoms: C23_23  and  N11_89 
REMARK       I    between atoms: C23_23  and  O12_118 
REMARK       I    between atoms: C24_24  and  N11_89 
REMARK       I    between atoms: C26_26  and  C27_27 
REMARK       I    between atoms: C27_27  and  N14_94 
REMARK       I    between atoms: C28_28  and  N14_94 
REMARK       I    between atoms: C30_30  and  C31_31 
REMARK       I    between atoms: C31_31  and  N17_98 
REMARK       I    between atoms: C32_32  and  N17_98 
REMARK       I    between atoms: C34_34  and  C36_36 
REMARK       I    between atoms: C36_36  and  N19_100 
REMARK       I    between atoms: C37_37  and  N19_100 
REMARK       I    between atoms: C39_39  and  C41_41 
REMARK       I    between atoms: C41_41  and  N21_102 
REMARK       I    between atoms: C42_42  and  C43_43 
REMARK       I    between atoms: C42_42  and  N21_102 
REMARK       I    between atoms: C43_43  and  C44_44 
REMARK       I    between atoms: C44_44  and  N22_103 
REMARK       I    between atoms: C44_44  and  O11_117 
REMARK       I    between atoms: C45_45  and  C46_46 
REMARK       I    between atoms: C45_45  and  N22_103 
REMARK       I    between atoms: C46_46  and  O9_115 
REMARK       I    between atoms: C47_47  and  C48_48 
REMARK       I    between atoms: C47_47  and  O9_115 
REMARK       I    between atoms: C48_48  and  O10_116 
REMARK       I    between atoms: C49_49  and  C50_50 
REMARK       I    between atoms: C49_49  and  O10_116 
REMARK       I    between atoms: C50_50  and  C51_51 
REMARK       I    between atoms: C51_51  and  N23_105 
REMARK       I    between atoms: C54_54  and  C55_55 
REMARK       I    between atoms: C55_55  and  C56_56 
USER                              x       y       z     vdW  Elec       q    Type
USER                           _______ _______ _______ _____ _____    ______ ____
ROOT
ATOM      1  C1  UNL     1       5.667  -1.725  14.364+99.99+99.99    +0.157 C 
ATOM      2  C2  UNL     1       4.414  -3.777  15.055+99.99+99.99    +0.109 A 
ATOM      3  C3  UNL     1       3.416  -4.512  14.461+99.99+99.99    +0.107 A 
ATOM      4  C4  UNL     1       3.852  -2.912  13.090+99.99+99.99    +0.176 A 
ATOM      5  C5  UNL     1       3.792  -2.056  11.908+99.99+99.99    +0.291 C 
ATOM      6  C6  UNL     1       2.523  -1.927   9.829+99.99+99.99    +0.125 A 
ATOM      7  C7  UNL     1       1.562  -2.385   8.960+99.99+99.99    +0.140 A 
ATOM      8  C8  UNL     1       2.557  -0.568   8.166+99.99 +0.00    +0.178 A 
ATOM      9  C9  UNL     1       2.943   0.559   7.328+45.40 +0.00    +0.290 C 
ATOM     10  C10 UNL     1       4.545   2.423   7.391+99.99 +0.00    +0.053 A 
ATOM     11  C11 UNL     1       5.544   3.109   8.036+99.99 +0.00    +0.120 A 
ATOM     12  C12 UNL     1       5.157   4.198   6.089 -0.32 +0.00    +0.105 A 
ATOM     13  C13 UNL     1       4.307   3.098   6.171 -0.28 +0.00    +0.066 A 
ATOM     14  C14 UNL     1       5.295   5.205   5.035 -0.15 +0.00    +0.273 C 
ATOM     15  C15 UNL     1       4.210   5.988   2.973 -0.18 +0.00    +0.053 A 
ATOM     16  C16 UNL     1       3.194   5.885   2.051 +2.49 +0.00    +0.120 A 
ATOM     17  C17 UNL     1       4.525   7.571   1.369+62.64 +0.00    +0.104 A 
ATOM     18  C18 UNL     1       5.031   7.061   2.558 -0.08 +0.00    +0.066 A 
ATOM     19  C19 UNL     1       5.071   8.666   0.598+99.99 +0.00    +0.268 C 
ATOM     20  C20 UNL     1       5.736   9.349  -1.687+17.34 +0.00    +0.123 C 
ATOM     21  C21 UNL     1       4.702   9.986  -2.612+48.41 +0.00    +0.027 C 
ATOM     22  C22 UNL     1       3.635  10.785  -1.861+67.65 +0.00    +0.085 C 
ATOM     23  C23 UNL     1       3.433  12.151  -2.461+99.99 +0.00    +0.116 C 
ATOM     24  C24 UNL     1       5.110  13.157  -1.366+99.99 +0.00    +0.124 A 
ATOM     25  C25 UNL     1       4.997  13.345  -0.012+99.99 +0.00    +0.140 A 
ATOM     26  C26 UNL     1       7.084  12.865  -0.591+99.99 +0.00    +0.178 A 
ATOM     27  C27 UNL     1       8.521  12.621  -0.549+99.99 +0.00    +0.291 C 
ATOM     28  C28 UNL     1      10.326  12.180  -2.131+32.98 +0.00    +0.125 A 
ATOM     29  C29 UNL     1      10.817  12.019  -3.404+94.12 +0.00    +0.140 A 
ATOM     30  C30 UNL     1      12.431  11.826  -1.896 +2.89 +0.00    +0.178 A 
ATOM     31  C31 UNL     1      13.720  11.641  -1.244+29.14 +0.00    +0.290 C 
ATOM     32  C32 UNL     1      14.623  11.587   1.043 +1.08 +0.00    +0.053 A 
ATOM     33  C33 UNL     1      14.426  11.680   2.398+10.04 +0.00    +0.120 A 
ATOM     34  C34 UNL     1      16.637  11.298   2.085 -0.44 +0.00    +0.105 A 
ATOM     35  C35 UNL     1      16.001  11.342   0.846 -0.42 +0.00    +0.066 A 
ATOM     36  C36 UNL     1      18.045  11.081   2.413 -0.34 +0.00    +0.273 C 
ATOM     37  C37 UNL     1      20.261  10.922   1.337 -0.48 +0.00    +0.053 A 
ATOM     38  C38 UNL     1      21.069  10.650   2.411 -0.09 +0.00    +0.120 A 
ATOM     39  C39 UNL     1      22.418  10.743   0.599 +1.87 +0.00    +0.104 A 
ATOM     40  C40 UNL     1      21.105  10.976   0.200 -0.43 +0.00    +0.066 A 
ATOM     41  C41 UNL     1      23.638  10.692  -0.189 +9.36 +0.00    +0.268 C 
ATOM     42  C42 UNL     1      24.697  11.401  -2.310+99.99 +0.00    +0.131 C 
ATOM     43  C43 UNL     1      25.513  12.646  -1.979+99.99 +0.00    +0.103 C 
ATOM     44  C44 UNL     1      26.765  12.777  -2.798+99.99 +0.00    +0.112 C 
ATOM     45  C45 UNL     1      27.712  14.610  -1.617+99.99+99.99    +0.147 C 
ATOM     46  C46 UNL     1      28.544  14.140  -0.422+99.99 +0.00    +0.187 C 
ATOM     47  C47 UNL     1      28.529  12.548   1.335+99.99 +0.00    +0.193 C 
ATOM     48  C48 UNL     1      27.606  11.636   2.135+99.99 +0.00    +0.193 C 
ATOM     49  C49 UNL     1      27.575   9.868   3.695 +9.71 +0.00    +0.169 C 
ATOM     50  C50 UNL     1      28.454   8.792   4.318+99.99 +0.00    +0.046 C 
ATOM     51  C51 UNL     1      28.892   7.679   3.352 +3.49 +0.00    +0.130 C 
ATOM     52  C52 UNL     1      31.176   8.405   2.729 +1.93 +0.00    +0.092 C 
ATOM     53  C53 UNL     1      32.148   8.841   1.920 -0.26 +0.00    +0.029 C 
ATOM     54  C54 UNL     1      31.858   9.005   0.499 -0.23 -0.00    -0.020 C 
ATOM     55  C55 UNL     1      32.838   9.124  -0.424+99.99+99.99    +0.049 C 
ATOM     56  C56 UNL     1      34.217   9.032  -0.115+99.99+99.99    +0.077 A 
ATOM     57  C57 UNL     1      36.226   8.162   0.549+99.99+99.99    +0.052 A 
ATOM     58  C58 UNL     1      37.172   7.232   1.023+99.99+99.99    +0.031 A 
ATOM     59  C59 UNL     1      38.489   7.655   1.237+99.99+99.99    +0.002 A 
ATOM     60  C60 UNL     1      38.862   8.973   0.987+99.99+99.99    +0.002 A 
ATOM     61  C61 UNL     1      37.934   9.906   0.519+99.99+99.99    +0.021 A 
ATOM     62  C62 UNL     1      36.615   9.477   0.309+99.99+99.99    +0.034 A 
ATOM     63  C63 UNL     1      34.264   6.634   0.397+99.99+99.99    +0.157 C 
ATOM     64  C64 UNL     1      30.410   8.965   0.080 -0.19 +0.00    +0.001 A 
ATOM     65  C65 UNL     1      29.973   9.418  -1.182 +2.51 +0.00    +0.014 A 
ATOM     66  C66 UNL     1      28.638   9.311  -1.561+99.99 +0.00    +0.001 A 
ATOM     67  C67 UNL     1      27.721   8.749  -0.687 +6.70 +0.00    +0.002 A 
ATOM     68  C68 UNL     1      28.126   8.325   0.581 -0.32 +0.00    +0.030 A 
ATOM     69  C69 UNL     1      29.457   8.448   1.017 +0.08 +0.00    +0.045 A 
ATOM     70  C70 UNL     1      23.487  10.259   2.832 +0.52 +0.00    +0.156 C 
ATOM     71  C71 UNL     1      15.807  11.529   4.461+99.99 +0.00    +0.156 C 
ATOM     72  C72 UNL     1      13.111  11.571  -4.301+24.52 +0.00    +0.157 C 
ATOM     73  C73 UNL     1       6.616  13.062   1.872+99.99 +0.00    +0.157 C 
ATOM     74  C74 UNL     1       2.415   7.149   0.054+99.99 +0.00    +0.156 C 
ATOM     75  C75 UNL     1       6.941   5.124   7.618 -0.26 +0.00    +0.156 C 
ATOM     76  C76 UNL     1       0.755  -1.577   6.733+99.99+99.99    +0.157 C 
ATOM     77  N1  UNL     1       4.682  -2.764  14.176+99.99+99.99    -0.342 N 
ATOM     78  N2  UNL     1       3.072  -3.975  13.248+99.99+99.99    -0.346 N 
ATOM     79  H2  UNL     1       2.363  -4.320  12.601+99.99+99.99    +0.167 HD
ATOM     80  N3  UNL     1       2.833  -2.506  11.026+99.99+99.99    -0.305 N 
ATOM     81  N4  UNL     1       1.591  -1.512   7.905+99.99+99.99    -0.339 N 
ATOM     82  N5  UNL     1       3.130  -0.814   9.335+99.99 -0.00    -0.323 N 
ATOM     83  H5  UNL     1       3.877  -0.277   9.777 +0.63 +0.00    +0.169 HD
ATOM     84  N6  UNL     1       3.954   1.296   7.914+99.99 -0.00    -0.319 N 
ATOM     85  N7  UNL     1       5.913   4.172   7.250 -0.22 -0.00    -0.354 N 
ATOM     86  N8  UNL     1       4.308   5.150   4.068 -0.05 -0.00    -0.320 N 
ATOM     87  N9  UNL     1       3.369   6.865   1.106+99.99 -0.00    -0.354 N 
ATOM     88  N10 UNL     1       5.138   8.413  -0.756+20.09 -0.00    -0.356 N 
ATOM     89  N11 UNL     1       4.057  13.263  -2.265+33.89 -0.00    -0.326 N 
ATOM     90  H11 UNL     1       3.801  14.136  -2.727 +0.11 +0.00    +0.169 HD
ATOM     91  N12 UNL     1       6.249  13.097   0.478+99.99 -0.00    -0.339 N 
ATOM     92  N13 UNL     1       6.395  12.878  -1.728+99.99 -0.00    -0.323 N 
ATOM     93  H13 UNL     1       6.750  12.714  -2.670+39.14 +0.00    +0.169 HD
ATOM     94  N14 UNL     1       9.019  12.429  -1.822+99.99 -0.00    -0.305 N 
ATOM     95  N15 UNL     1      12.159  11.796  -3.242+24.38 -0.00    -0.339 N 
ATOM     96  N16 UNL     1      11.321  12.058  -1.211 +1.38 -0.00    -0.323 N 
ATOM     97  H16 UNL     1      11.229  12.130  -0.198 +0.38 +0.00    +0.169 HD
ATOM     98  N17 UNL     1      13.602  11.720   0.129 +3.41 -0.00    -0.319 N 
ATOM     99  N18 UNL     1      15.634  11.498   3.023 +1.40 -0.00    -0.354 N 
ATOM    100  N19 UNL     1      18.890  11.107   1.316 -0.25 -0.00    -0.320 N 
ATOM    101  N20 UNL     1      22.360  10.535   1.966 +3.07 -0.00    -0.354 N 
ATOM    102  N21 UNL     1      23.543  11.262  -1.440 +6.22 -0.00    -0.355 N 
ATOM    103  N22 UNL     1      27.739  13.602  -2.685+99.99 -0.00    -0.372 N 
ATOM    104  H22 UNL     1      28.527  13.560  -3.332 -0.24 +0.00    +0.161 HD
ATOM    105  N23 UNL     1      29.878   8.109   2.339 -0.15 -0.00    -0.356 N 
ATOM    106  N24 UNL     1      34.882   7.951   0.267+99.99+99.99    -0.344 N 
ATOM    107  O1  UNL     1       4.517  -1.077  11.760+99.99+99.99    -0.264 OA
ATOM    108  O2  UNL     1       2.418   0.800   6.244 +0.17 -0.00    -0.264 OA
ATOM    109  O3  UNL     1       6.212   6.021   5.035 -0.04 -0.00    -0.266 OA
ATOM    110  O4  UNL     1       5.465   9.712   1.102+99.99 -0.00    -0.266 OA
ATOM    111  O5  UNL     1       9.168  12.610   0.494+99.99 -0.00    -0.264 OA
ATOM    112  O6  UNL     1      14.764  11.443  -1.863+99.99 -0.00    -0.264 OA
ATOM    113  O7  UNL     1      18.423  10.907   3.569 +0.03 -0.00    -0.266 OA
ATOM    114  O8  UNL     1      24.686  10.202   0.222+31.14 -0.00    -0.266 OA
ATOM    115  O9  UNL     1      27.756  13.248   0.365 +6.32 -0.00    -0.387 OA
ATOM    116  O10 UNL     1      28.386  10.800   2.988+99.99 -0.00    -0.389 OA
ATOM    117  O11 UNL     1      26.867  11.928  -3.829+14.70 -0.00    -0.350 OA
ATOM    118  O12 UNL     1       2.431  12.175  -3.359+74.16 -0.00    -0.349 OA
ATOM    119  S1  UNL     1      35.263  10.382  -0.254+99.99+99.99    -0.070 SA
ATOM    120  H76 UNL     1       2.324  -3.336  11.313+99.99+99.99    +0.170 HD
ATOM    121  H77 UNL     1       4.272   0.957   8.820+81.88 +0.00    +0.169 HD
ATOM    122  H78 UNL     1       3.577   4.464   4.166 +0.06 +0.00    +0.169 HD
ATOM    123  H79 UNL     1       5.009   7.457  -1.059 -0.13 +0.00    +0.162 HD
ATOM    124  H80 UNL     1       8.345  12.505  -2.575+99.99 +0.00    +0.170 HD
ATOM    125  H81 UNL     1      12.661  11.893   0.478 +0.33 +0.00    +0.169 HD
ATOM    126  H82 UNL     1      18.486  11.299   0.412 +0.14 +0.00    +0.169 HD
ATOM    127  H83 UNL     1      22.707  11.776  -1.674 +0.11 +0.00    +0.162 HD
ATOM    128  H84 UNL     1      27.687  12.160  -4.297 -0.17 +0.00    +0.219 HD
ATOM    129  H85 UNL     1       2.378  13.086  -3.698 +0.03 +0.00    +0.219 HD
ENDROOT
TORSDOF 38
TER
