USER    Run = 1
USER    DPF = ligand_148_receptor.dpf
USER  
USER    Estimated Free Energy of Binding    = +337.44 kcal/mol  [=(1)+(2)+(3)-(4)]
USER    
USER    (1) Final Intermolecular Energy     = +336.25 kcal/mol
USER        vdW + Hbond + desolv Energy     = +336.25 kcal/mol
USER        Electrostatic Energy            =   +0.00 kcal/mol
USER    (2) Final Total Internal Energy     =   +8.90 kcal/mol
USER    (3) Torsional Free Energy           =   +1.19 kcal/mol
USER    (4) Unbound System's Energy  [=(2)] =   +8.90 kcal/mol
USER    
USER    
USER    NEWDPF move ligand_148.pdbqt
USER    NEWDPF about 0.000000 0.000000 0.000000
USER    NEWDPF tran0 18.758663 12.152226 -0.236138
USER    NEWDPF quaternion0 -0.421534 0.598713 0.642375 0.226288
USER    NEWDPF axisangle0 -0.432759 0.614657 0.659482 153.842706
USER    NEWDPF quat0 -0.432759 0.614657 0.659482 153.842706
USER    NEWDPF dihe0 180.00 28.23 99.29 104.27 -2.78 95.03 48.26 -27.77 180.00 21.72 -154.58 -56.96 -119.22 -142.61 86.14 -180.00 180.00 -171.55 180.00 -23.18 134.32 47.58 16.95 
USER  keepresnum = 1 
USER  
REMARK  23 active torsions:
REMARK  status: ('A' for Active; 'I' for Inactive)
REMARK    1  A    between atoms: C2_2  and  C4_4 
REMARK    2  A    between atoms: C4_4  and  C5_5 
REMARK    3  A    between atoms: C4_4  and  N15_79 
REMARK       I    between atoms: C5_5  and  N1_59 
REMARK    4  A    between atoms: C6_6  and  C7_7 
REMARK    5  A    between atoms: C6_6  and  C12_12 
REMARK    6  A    between atoms: C6_6  and  N1_59 
REMARK    7  A    between atoms: C7_7  and  C8_8 
REMARK    8  A    between atoms: C8_8  and  C9_9 
REMARK    9  A    between atoms: C9_9  and  C10_10 
REMARK   10  A    between atoms: C10_10  and  N2_60 
REMARK       I    between atoms: C11_11  and  N2_60 
REMARK       I    between atoms: C11_11  and  N3_61 
REMARK       I    between atoms: C12_12  and  N4_62 
REMARK   11  A    between atoms: C13_13  and  C14_14 
REMARK   12  A    between atoms: C13_13  and  N4_62 
REMARK   13  A    between atoms: C14_14  and  C15_15 
REMARK   14  A    between atoms: C15_15  and  C16_16 
REMARK       I    between atoms: C16_16  and  N5_63 
REMARK   15  A    between atoms: C17_17  and  N5_63 
REMARK   16  A    between atoms: C22_22  and  N8_68 
REMARK   17  A    between atoms: C30_30  and  N10_71 
REMARK   18  A    between atoms: C34_34  and  N14_78 
REMARK   19  A    between atoms: C37_37  and  C38_38 
REMARK       I    between atoms: C37_37  and  N15_79 
REMARK   20  A    between atoms: C38_38  and  C39_39 
REMARK   21  A    between atoms: C39_39  and  N16_80 
REMARK   22  A    between atoms: O11_54  and  P2_82 
REMARK   23  A    between atoms: P1_81  and  S2_84 
USER                              x       y       z     vdW  Elec       q    Type
USER                           _______ _______ _______ _____ _____    ______ ____
ROOT
ATOM      1  C17 UNL     1      21.639  10.888   1.138 +2.99 +0.00    +0.139 A 
ATOM      2  C18 UNL     1      20.662  10.895   2.141 -0.21 +0.00    +0.122 A 
ATOM      3  C19 UNL     1      19.341  10.976   1.730 -0.40 +0.00    +0.142 A 
ATOM      4  C20 UNL     1      19.918  10.993  -0.416 +1.09 +0.00    +0.183 A 
ATOM      5  C21 UNL     1      19.511  10.922   3.930+99.99 +0.00    +0.188 A 
ATOM      6  N6  UNL     1      18.896  11.004   0.462 -0.25 -0.00    -0.336 N 
ATOM      7  H6  UNL     1      17.911  11.031   0.198 +0.14 +0.00    +0.168 HD
ATOM      8  N7  UNL     1      21.241  10.978  -0.155 -0.21 -0.00    -0.337 N 
ATOM      9  H7  UNL     1      21.925  11.033  -0.910 +0.15 +0.00    +0.168 HD
ATOM     10  N8  UNL     1      18.618  11.023   2.889 -0.15 -0.00    -0.297 N 
ATOM     11  N9  UNL     1      20.756  10.837   3.514 +5.93 -0.00    -0.346 N 
ATOM     12  H9  UNL     1      21.601  10.749   4.079 +0.23 +0.00    +0.167 HD
ENDROOT
BRANCH   1  13
ATOM     13  N5  UNL     1      22.978  10.760   1.526+10.33 -0.00    -0.311 N 
ATOM     14  C16 UNL     1      24.060  11.191   0.804+19.48 +0.00    +0.223 C 
ATOM     15  O4  UNL     1      24.012  11.807  -0.260+17.15 -0.00    -0.273 OA
ATOM     16  H52 UNL     1      23.109  10.350   2.442 +0.16 +0.00    +0.170 HD
BRANCH  14  17
ATOM     17  C15 UNL     1      25.408  10.787   1.381 +3.50 +0.00    +0.105 C 
BRANCH  17  18
ATOM     18  C14 UNL     1      26.019   9.460   0.928 +1.19 +0.00    +0.029 C 
BRANCH  18  19
ATOM     19  C13 UNL     1      25.284   8.179   1.326 -0.41 +0.00    +0.123 C 
BRANCH  19  20
ATOM     20  N4  UNL     1      25.412   7.096   0.389 -0.12 -0.00    -0.359 N 
ATOM     21  C12 UNL     1      25.948   5.866   0.687 -0.27 +0.00    +0.240 C 
ATOM     22  O3  UNL     1      26.376   5.576   1.801 +1.90 -0.00    -0.271 OA
ATOM     23  H51 UNL     1      25.198   7.278  -0.595 +0.11 +0.00    +0.162 HD
BRANCH  21  24
ATOM     24  C6  UNL     1      26.048   4.898  -0.515 -0.37 +0.00    +0.176 C 
BRANCH  24  25
ATOM     25  C7  UNL     1      24.939   3.828  -0.439 -0.29 +0.00    +0.035 C 
BRANCH  25  26
ATOM     26  C8  UNL     1      24.068   3.729  -1.702+16.96 +0.00    +0.004 C 
BRANCH  26  27
ATOM     27  C9  UNL     1      23.752   5.115  -2.271+15.79 +0.00    +0.020 C 
BRANCH  27  28
ATOM     28  C10 UNL     1      24.634   6.213  -1.685 -0.51 +0.00    +0.124 C 
BRANCH  28  29
ATOM     29  N2  UNL     1      23.904   7.463  -1.606 -0.25 -0.00    -0.343 N 
ATOM     30  C11 UNL     1      23.016   7.696  -0.599 -0.31 +0.00    +0.313 C 
ATOM     31  O2  UNL     1      22.852   7.000   0.391 -0.17 -0.00    -0.248 OA
ATOM     32  N3  UNL     1      22.295   8.826  -0.806 +0.41 -0.00    -0.352 N 
ATOM     33  H49 UNL     1      21.742   9.112  -0.009 +0.11 +0.00    +0.160 HD
ATOM     34  H50 UNL     1      22.754   9.576  -1.304 +0.18 +0.00    +0.160 HD
ATOM     35  H48 UNL     1      23.646   7.875  -2.502 +0.18 +0.00    +0.164 HD
ENDBRANCH  28  29
ENDBRANCH  27  28
ENDBRANCH  26  27
ENDBRANCH  25  26
ENDBRANCH  24  25
BRANCH  24  36
ATOM     36  N1  UNL     1      27.413   4.372  -0.694 -0.13 -0.00    -0.346 N 
ATOM     37  C5  UNL     1      28.295   4.773  -1.667 -0.14 +0.00    +0.241 C 
ATOM     38  O1  UNL     1      27.935   5.525  -2.578 -0.07 -0.00    -0.271 OA
ATOM     39  H47 UNL     1      27.571   3.445  -0.317 +0.07 +0.00    +0.163 HD
BRANCH  37  40
ATOM     40  C4  UNL     1      29.734   4.173  -1.587 -0.08 +0.00    +0.180 C 
BRANCH  40  41
ATOM     41  C2  UNL     1      29.862   2.758  -0.955 -0.22 +0.00    +0.009 C 
ATOM     42  C1  UNL     1      29.615   2.803   0.563 -0.41 +0.00    +0.012 C 
ATOM     43  C3  UNL     1      31.239   2.118  -1.181 -0.20 +0.00    +0.012 C 
ENDBRANCH  40  41
BRANCH  40  44
ATOM     44  N15 UNL     1      30.564   5.202  -0.934 +0.01 -0.00    -0.347 N 
ATOM     45  C37 UNL     1      30.514   6.528  -1.319 -0.06 +0.00    +0.219 C 
ATOM     46  O13 UNL     1      29.626   7.003  -2.022 -0.20 -0.00    -0.274 OA
ATOM     47  H55 UNL     1      31.476   4.846  -0.656 +0.05 +0.00    +0.163 HD
BRANCH  45  48
ATOM     48  C38 UNL     1      31.618   7.380  -0.731 -0.08 +0.00    +0.123 C 
BRANCH  48  49
ATOM     49  C39 UNL     1      31.575   8.791  -1.308 -0.17 +0.00    +0.145 C 
BRANCH  49  50
ATOM     50  N16 UNL     1      31.791   9.805  -0.292 -0.15 -0.00    -0.281 N 
ATOM     51  C40 UNL     1      32.032  11.118  -0.524 -0.08 +0.00    +0.250 A 
ATOM     52  C41 UNL     1      32.190  11.764   0.783 +0.61 +0.00    +0.080 A 
ATOM     53  O14 UNL     1      32.146  11.705  -1.587 +0.84 -0.00    -0.268 OA
ATOM     54  C42 UNL     1      32.088  10.820   1.719 +1.01 +0.00    +0.080 A 
ATOM     55  C43 UNL     1      31.845   9.544   1.041 +0.05 +0.00    +0.250 A 
ATOM     56  O15 UNL     1      31.727   8.479   1.618 -0.19 -0.00    -0.268 OA
ENDBRANCH  49  50
ENDBRANCH  48  49
ENDBRANCH  45  48
ENDBRANCH  40  44
ENDBRANCH  37  40
ENDBRANCH  24  36
ENDBRANCH  21  24
ENDBRANCH  19  20
ENDBRANCH  18  19
ENDBRANCH  17  18
ENDBRANCH  14  17
ENDBRANCH   1  13
BRANCH  10  57
ATOM     57  C22 UNL     1      17.188  11.146   3.063 -0.29 +0.00    +0.267 C 
ATOM     58  C23 UNL     1      16.277  10.567   1.974 -0.35 +0.00    +0.251 C 
ATOM     59  C24 UNL     1      15.860   9.246   2.578 -0.36 +0.00    +0.201 C 
ATOM     60  F2  UNL     1      15.169  11.367   1.875 -0.08 -0.00    -0.242 F 
ATOM     61  C25 UNL     1      15.684   9.666   4.034 +0.49 +0.00    +0.181 C 
ATOM     62  O10 UNL     1      14.669   8.668   2.087 +3.10 -0.00    -0.303 OA
ATOM     63  C26 UNL     1      15.578   8.447   4.957 +1.55 +0.00    +0.213 C 
ATOM     64  O5  UNL     1      16.853  10.464   4.308 -0.16 -0.00    -0.353 OA
ATOM     65  O6  UNL     1      14.564   8.536   5.951 +3.60 -0.00    -0.304 OA
ATOM     66  P1  UNL     1      12.993   8.658   5.591 +0.85 +0.00    +0.388 P 
ATOM     67  O7  UNL     1      12.720   9.431   4.340 +6.52 -0.00    -0.246 OA
ATOM     68  O8  UNL     1      12.473   7.132   5.479 -0.21 -0.00    -0.295 OA
ATOM     69  C27 UNL     1      12.937   6.216   4.491 -0.12 +0.00    +0.201 C 
ATOM     70  C28 UNL     1      12.502   6.591   3.066 -0.21 +0.00    +0.181 C 
ATOM     71  C31 UNL     1      12.221   4.890   4.690 +1.65 +0.00    +0.251 C 
ATOM     72  C29 UNL     1      13.454   6.036   1.991+25.89 +0.00    +0.213 C 
ATOM     73  O12 UNL     1      11.180   6.026   2.876 -0.16 -0.00    -0.353 OA
ATOM     74  O9  UNL     1      13.442   6.869   0.831 +0.54 -0.00    -0.311 OA
ATOM     75  P2  UNL     1      14.605   7.971   0.642+17.19 +0.00    +0.327 P 
ATOM     76  S1  UNL     1      14.531   9.076  -0.925+25.29 -0.00    -0.007 SA
ATOM     77  C30 UNL     1      10.902   5.147   3.987 -0.11 +0.00    +0.267 C 
ATOM     78  F1  UNL     1      12.045   4.619   6.005 -0.08 -0.00    -0.242 F 
BRANCH  66  79
ATOM     79  S2  UNL     1      12.011   9.551   7.193 +3.61 -0.00    -0.058 SA
ATOM     80  H56 UNL     1      13.071   9.517   8.007 +0.06 +0.00    +0.114 HD
ENDBRANCH  66  79
BRANCH  75  81
ATOM     81  O11 UNL     1      15.906   7.022   0.663+28.48 -0.00    -0.324 OA
ATOM     82  H46 UNL     1      16.348   7.033  -0.210 -0.24 +0.00    +0.220 HD
ENDBRANCH  75  81
BRANCH  77  83
ATOM     83  N10 UNL     1      10.204   3.979   3.500 +0.14 -0.00    -0.297 N 
ATOM     84  C32 UNL     1      10.740   2.718   3.436 +9.44 +0.00    +0.188 A 
ATOM     85  N11 UNL     1       9.888   1.841   2.949 +8.83 -0.00    -0.346 N 
ATOM     86  C33 UNL     1       8.745   2.570   2.691 +0.09 +0.00    +0.116 A 
ATOM     87  H11 UNL     1      10.039   0.845   2.795 +0.45 +0.00    +0.167 HD
ATOM     88  C34 UNL     1       7.491   2.207   2.173 -0.21 +0.00    +0.109 A 
ATOM     89  C36 UNL     1       8.919   3.902   3.034 -0.16 +0.00    +0.142 A 
ATOM     90  N12 UNL     1       6.538   3.160   2.062 -0.03 -0.00    -0.341 N 
ATOM     91  C35 UNL     1       6.849   4.420   2.429 -0.06 +0.00    +0.183 A 
ATOM     92  H12 UNL     1       5.609   2.932   1.710 +0.06 +0.00    +0.167 HD
ATOM     93  N13 UNL     1       8.015   4.891   2.921 -0.03 -0.00    -0.336 N 
ATOM     94  H13 UNL     1       8.187   5.864   3.173 +0.09 +0.00    +0.168 HD
BRANCH  88  95
ATOM     95  N14 UNL     1       7.174   0.912   1.784 +0.32 -0.00    -0.287 NA
ATOM     96  H53 UNL     1       6.349   0.544   2.244 +0.05 +0.00    +0.125 HD
ATOM     97  H54 UNL     1       7.254   0.780   0.785 +0.04 +0.00    +0.125 HD
ENDBRANCH  88  95
ENDBRANCH  77  83
ENDBRANCH  10  57
TORSDOF 23
TER
