USER    Run = 1
USER    DPF = ligand_472_receptor.dpf
USER  
USER    Estimated Free Energy of Binding    =  +23.50 kcal/mol  [=(1)+(2)+(3)-(4)]
USER    
USER    (1) Final Intermolecular Energy     =  +22.30 kcal/mol
USER        vdW + Hbond + desolv Energy     =  +22.30 kcal/mol
USER        Electrostatic Energy            =   +0.00 kcal/mol
USER    (2) Final Total Internal Energy     =   -4.99 kcal/mol
USER    (3) Torsional Free Energy           =   +1.19 kcal/mol
USER    (4) Unbound System's Energy  [=(2)] =   -4.99 kcal/mol
USER    
USER    
USER    NEWDPF move ligand_472.pdbqt
USER    NEWDPF about 0.000000 0.000000 0.000000
USER    NEWDPF tran0 14.857723 12.038073 5.265494
USER    NEWDPF quaternion0 0.806945 0.440380 -0.123513 -0.373697
USER    NEWDPF axisangle0 0.869974 0.474778 -0.133161 -136.112438
USER    NEWDPF quat0 0.869974 0.474778 -0.133161 -136.112438
USER    NEWDPF dihe0 -180.00 168.04 179.98 178.67 -26.09 84.15 103.88 175.68 61.13 132.55 86.98 142.40 177.63 -67.01 175.43 -134.18 164.83 8.12 -8.50 68.34 27.47 74.52 -47.99 180.00 119.42 
USER  keepresnum = 1 
USER  
REMARK  25 active torsions:
REMARK  status: ('A' for Active; 'I' for Inactive)
REMARK    1  A    between atoms: C5_5  and  C6_6 
REMARK    2  A    between atoms: C6_6  and  O1_62 
REMARK    3  A    between atoms: C7_7  and  C8_8 
REMARK    4  A    between atoms: C7_7  and  O1_62 
REMARK    5  A    between atoms: C8_8  and  C9_9 
REMARK    6  A    between atoms: C8_8  and  C15_15 
REMARK    7  A    between atoms: C8_8  and  O9_70 
REMARK    8  A    between atoms: C17_17  and  O3_64 
REMARK    9  A    between atoms: C21_21  and  C22_22 
REMARK   10  A    between atoms: C21_21  and  O3_64 
REMARK   11  A    between atoms: C25_25  and  C28_28 
REMARK       I    between atoms: C28_28  and  N2_59 
REMARK   12  A    between atoms: C29_29  and  C30_30 
REMARK   13  A    between atoms: C29_29  and  N2_59 
REMARK   14  A    between atoms: C30_30  and  C31_31 
REMARK   15  A    between atoms: C31_31  and  C32_32 
REMARK   16  A    between atoms: C32_32  and  C33_33 
REMARK   17  A    between atoms: C36_36  and  C39_39 
REMARK   18  A    between atoms: C39_39  and  N3_60 
REMARK   19  A    between atoms: C40_40  and  C41_41 
REMARK   20  A    between atoms: C40_40  and  N3_60 
REMARK   21  A    between atoms: C41_41  and  C42_42 
REMARK   22  A    between atoms: C41_41  and  O8_69 
REMARK   23  A    between atoms: C48_48  and  O7_68 
REMARK   24  A    between atoms: C51_51  and  C52_52 
REMARK   25  A    between atoms: C51_51  and  N1_58 
USER                              x       y       z     vdW  Elec       q    Type
USER                           _______ _______ _______ _____ _____    ______ ____
ROOT
ATOM      1  C22 UNL     1      17.350   9.654   2.576 -0.46 -0.00    -0.034 A 
ATOM      2  C23 UNL     1      17.360   9.215   1.244 -0.48 +0.00    +0.010 A 
ATOM      3  C24 UNL     1      18.539   9.248   0.490 +0.60 +0.00    +0.017 A 
ATOM      4  C25 UNL     1      19.723   9.727   1.059 +0.10 +0.00    +0.032 A 
ATOM      5  C26 UNL     1      19.726  10.125   2.402 -0.42 +0.00    +0.017 A 
ATOM      6  C27 UNL     1      18.551  10.089   3.155 -0.29 +0.00    +0.010 A 
ENDROOT
BRANCH   4   7
ATOM      7  C28 UNL     1      20.992   9.876   0.286 -0.16 +0.00    +0.251 C 
ATOM      8  N2  UNL     1      21.761  10.992   0.556 +0.48 -0.00    -0.357 N 
ATOM      9  H53 UNL     1      21.528  11.562   1.364 +0.41 +0.00    +0.162 HD
ATOM     10  O4  UNL     1      21.344   8.989  -0.485 +0.00 -0.00    -0.268 OA
BRANCH   8  11
ATOM     11  C29 UNL     1      23.130  11.092   0.090 +3.02 +0.00    +0.123 C 
BRANCH  11  12
ATOM     12  C30 UNL     1      24.117  10.324   0.978 +1.04 +0.00    +0.027 C 
BRANCH  12  13
ATOM     13  C31 UNL     1      24.872   9.204   0.251 +2.55 +0.00    +0.085 C 
BRANCH  13  14
ATOM     14  C32 UNL     1      24.100   7.890   0.255 -0.40 +0.00    +0.159 C 
ATOM     15  O5  UNL     1      23.094   7.728   0.948 -0.26 -0.00    -0.292 OA
BRANCH  14  16
ATOM     16  C33 UNL     1      24.559   6.770  -0.622 -0.49 +0.00    +0.010 A 
ATOM     17  C34 UNL     1      25.648   7.003  -1.473 -0.19 +0.00    +0.015 A 
ATOM     18  C35 UNL     1      26.161   5.976  -2.268 +0.62 +0.00    +0.010 A 
ATOM     19  C36 UNL     1      25.579   4.702  -2.246 -0.21 -0.00    -0.030 A 
ATOM     20  C37 UNL     1      24.482   4.477  -1.403 +0.12 +0.00    +0.010 A 
ATOM     21  C38 UNL     1      23.971   5.503  -0.598 -0.43 +0.00    +0.015 A 
BRANCH  19  22
ATOM     22  C39 UNL     1      26.145   3.580  -3.085 +0.47 +0.00    +0.308 C 
BRANCH  22  23
ATOM     23  N3  UNL     1      26.673   2.445  -2.317 -0.27 +0.00    +0.090 N 
ATOM     24  H54 UNL     1      26.676   2.703  -1.328 +0.19 +0.00    +0.316 HD
BRANCH  23  25
ATOM     25  C40 UNL     1      28.049   2.045  -2.685 -0.01 +0.00    +0.306 C 
BRANCH  25  26
ATOM     26  C41 UNL     1      29.094   2.370  -1.589 -0.13 +0.00    +0.180 C 
BRANCH  26  27
ATOM     27  C42 UNL     1      29.568   3.814  -1.669 -0.12 -0.00    -0.015 A 
ATOM     28  C43 UNL     1      28.991   4.845  -0.890 -0.18 +0.00    +0.003 A 
ATOM     29  C44 UNL     1      27.874   4.628   0.044 -0.27 +0.00    +0.020 A 
ATOM     30  C47 UNL     1      29.500   6.158  -0.994 -0.13 +0.00    +0.079 A 
ATOM     31  C45 UNL     1      27.393   5.628   0.794 +0.33 +0.00    +0.075 A 
ATOM     32  C46 UNL     1      27.968   6.987   0.722 -0.17 +0.00    +0.245 A 
ATOM     33  N4  UNL     1      28.974   7.178  -0.180 -0.10 -0.00    -0.321 N 
ATOM     34  O6  UNL     1      27.551   7.887   1.442 -0.30 -0.00    -0.268 OA
ATOM     35  H55 UNL     1      29.404   8.091  -0.160 +0.08 +0.00    +0.169 HD
ATOM     36  C48 UNL     1      30.544   6.446  -1.876 -0.08 +0.00    +0.093 A 
ATOM     37  C49 UNL     1      31.133   5.439  -2.621 -0.04 +0.00    +0.039 A 
ATOM     38  C50 UNL     1      30.650   4.135  -2.516 -0.05 +0.00    +0.013 A 
BRANCH  36  39
ATOM     39  O7  UNL     1      31.008   7.718  -2.058 -0.06 -0.00    -0.358 OA
ATOM     40  H56 UNL     1      31.972   7.654  -2.168 +0.05 +0.00    +0.217 HD
ENDBRANCH  36  39
ENDBRANCH  26  27
BRANCH  26  41
ATOM     41  O8  UNL     1      28.506   2.092  -0.308 +0.05 -0.00    -0.389 OA
ATOM     42  H57 UNL     1      29.071   2.572   0.329 +0.10 +0.00    +0.210 HD
ENDBRANCH  26  41
ENDBRANCH  25  26
ENDBRANCH  23  25
ENDBRANCH  22  23
ENDBRANCH  19  22
ENDBRANCH  14  16
ENDBRANCH  13  14
ENDBRANCH  12  13
ENDBRANCH  11  12
ENDBRANCH   8  11
ENDBRANCH   4   7
BRANCH   1  43
ATOM     43  C21 UNL     1      16.074   9.646   3.386 -0.31 +0.00    +0.214 C 
BRANCH  43  44
ATOM     44  O3  UNL     1      15.520   8.328   3.340 -0.35 -0.00    -0.347 OA
BRANCH  44  45
ATOM     45  C17 UNL     1      15.059   7.810   4.518 -0.41 +0.00    +0.069 A 
ATOM     46  C16 UNL     1      13.952   8.262   5.238 -0.32 +0.00    +0.047 A 
ATOM     47  C15 UNL     1      13.560   7.652   6.453 -0.33 -0.00    -0.007 A 
ATOM     48  C20 UNL     1      14.327   6.576   6.927 -0.39 +0.00    +0.011 A 
ATOM     49  C19 UNL     1      15.437   6.123   6.212 +8.03 +0.00    +0.003 A 
ATOM     50  C18 UNL     1      15.798   6.738   5.015 +2.54 +0.00    +0.037 A 
BRANCH  47  51
ATOM     51  C8  UNL     1      12.321   8.191   7.189 -0.30 +0.00    +0.201 C 
BRANCH  51  52
ATOM     52  C7  UNL     1      11.031   8.240   6.322 -0.11 +0.00    +0.303 C 
ATOM     53  O2  UNL     1      10.455   9.292   6.048 +0.46 -0.00    -0.261 OA
BRANCH  52  54
ATOM     54  O1  UNL     1      10.605   7.004   5.941 -0.18 -0.00    -0.318 OA
BRANCH  54  55
ATOM     55  C6  UNL     1      11.640   6.121   5.482 -0.27 +0.00    +0.183 C 
BRANCH  55  56
ATOM     56  C5  UNL     1      11.285   5.658   4.059 -0.29 +0.00    +0.013 C 
ATOM     57  C1  UNL     1      10.654   6.798   3.231 -0.37 +0.00    +0.037 C 
ATOM     58  C2  UNL     1       9.127   6.693   3.104 -0.19 +0.00    +0.273 C 
ATOM     59  N1  UNL     1       8.558   6.176   4.341 -0.20 +0.00    +0.092 N 
ATOM     60  C3  UNL     1       8.948   4.792   4.616 -0.17 +0.00    +0.273 C 
ATOM     61  C4  UNL     1      10.348   4.448   4.085 -0.28 +0.00    +0.037 C 
BRANCH  59  62
ATOM     62  C51 UNL     1       7.126   6.444   4.522 +1.11 +0.00    +0.311 C 
BRANCH  62  63
ATOM     63  C52 UNL     1       6.326   5.406   5.282 -0.24 -0.00    -0.030 A 
ATOM     64  C53 UNL     1       5.776   4.299   4.616 -0.23 +0.00    +0.009 A 
ATOM     65  C54 UNL     1       5.042   3.340   5.316 -0.27 +0.00    +0.001 A 
ATOM     66  C55 UNL     1       4.851   3.471   6.690 -0.02 +0.00    +0.000 A 
ATOM     67  C56 UNL     1       5.398   4.559   7.366 -0.24 +0.00    +0.001 A 
ATOM     68  C57 UNL     1       6.133   5.519   6.667 -0.40 +0.00    +0.009 A 
ENDBRANCH  62  63
ENDBRANCH  59  62
ENDBRANCH  55  56
ENDBRANCH  54  55
ENDBRANCH  52  54
ENDBRANCH  51  52
BRANCH  51  69
ATOM     69  C9  UNL     1      12.562   9.554   7.865 -0.40 -0.00    -0.009 A 
ATOM     70  C10 UNL     1      11.662  10.056   8.824 +3.58 +0.00    +0.011 A 
ATOM     71  C11 UNL     1      11.862  11.307   9.413 +7.08 +0.00    +0.001 A 
ATOM     72  C12 UNL     1      12.959  12.082   9.051 +0.25 +0.00    +0.000 A 
ATOM     73  C13 UNL     1      13.856  11.612   8.096 -0.37 +0.00    +0.001 A 
ATOM     74  C14 UNL     1      13.658  10.362   7.505 +0.44 +0.00    +0.011 A 
ENDBRANCH  51  69
BRANCH  51  75
ATOM     75  O9  UNL     1      12.082   7.209   8.229 +0.77 -0.00    -0.371 OA
ATOM     76  H58 UNL     1      12.688   7.448   8.960 +0.17 +0.00    +0.212 HD
ENDBRANCH  51  75
ENDBRANCH  47  51
ENDBRANCH  44  45
ENDBRANCH  43  44
ENDBRANCH   1  43
TORSDOF 25
TER
