USER    Run = 1
USER    DPF = ligand_44_receptor.dpf
USER  
USER    Estimated Free Energy of Binding    =  +8.20e+003 kcal/mol  [=(1)+(2)+(3)-(4)]
USER    
USER    (1) Final Intermolecular Energy     =  +8.20e+003 kcal/mol
USER        vdW + Hbond + desolv Energy     =  +8.20e+003 kcal/mol
USER        Electrostatic Energy            =   +0.00 kcal/mol
USER    (2) Final Total Internal Energy     =   +0.00 kcal/mol
USER    (3) Torsional Free Energy           =   +1.19 kcal/mol
USER    (4) Unbound System's Energy  [=(2)] =   +0.00 kcal/mol
USER    
USER    
USER    NEWDPF move ligand_44.pdbqt
USER    NEWDPF about 0.000000 0.000000 0.000000
USER    NEWDPF tran0 12.203544 5.041347 3.384906
USER    NEWDPF quaternion0 0.715790 0.160716 0.059568 0.676954
USER    NEWDPF axisangle0 0.972507 0.218356 0.080932 94.787879
USER    NEWDPF quat0 0.972507 0.218356 0.080932 94.787879
USER  keepresnum = 1 
USER  
REMARK  0 active torsions:
REMARK  status: ('A' for Active; 'I' for Inactive)
REMARK       I    between atoms: C2_2  and  C3_3 
REMARK       I    between atoms: C3_3  and  C5_5 
REMARK       I    between atoms: C5_5  and  C6_6 
REMARK       I    between atoms: C5_5  and  N11_94 
REMARK       I    between atoms: C6_6  and  C7_7 
REMARK       I    between atoms: C6_6  and  O12_81 
REMARK       I    between atoms: C7_7  and  C8_8 
REMARK       I    between atoms: C8_8  and  N1_84 
REMARK       I    between atoms: C12_12  and  C13_13 
REMARK       I    between atoms: C13_13  and  C14_14 
REMARK       I    between atoms: C13_13  and  O11_80 
REMARK       I    between atoms: C14_14  and  C16_16 
REMARK       I    between atoms: C16_16  and  N2_85 
REMARK       I    between atoms: C17_17  and  C18_18 
REMARK       I    between atoms: C17_17  and  C25_25 
REMARK       I    between atoms: C17_17  and  N2_85 
REMARK       I    between atoms: C18_18  and  C19_19 
REMARK       I    between atoms: C25_25  and  N3_86 
REMARK       I    between atoms: C26_26  and  C27_27 
REMARK       I    between atoms: C26_26  and  N3_86 
REMARK       I    between atoms: C30_30  and  N4_87 
REMARK       I    between atoms: C33_33  and  C34_34 
REMARK       I    between atoms: C33_33  and  N4_87 
REMARK       I    between atoms: C34_34  and  C35_35 
REMARK       I    between atoms: C34_34  and  N7_90 
REMARK       I    between atoms: C35_35  and  C36_36 
REMARK       I    between atoms: C36_36  and  C37_37 
REMARK       I    between atoms: C37_37  and  N5_88 
REMARK       I    between atoms: C38_38  and  N5_88 
REMARK       I    between atoms: C38_38  and  N6_89 
REMARK       I    between atoms: C39_39  and  C40_40 
REMARK       I    between atoms: C39_39  and  N7_90 
REMARK       I    between atoms: C40_40  and  C41_41 
REMARK       I    between atoms: C40_40  and  N8_91 
REMARK       I    between atoms: C44_44  and  C45_45 
REMARK       I    between atoms: C44_44  and  N8_91 
REMARK       I    between atoms: C45_45  and  C46_46 
REMARK       I    between atoms: C46_46  and  C47_47 
REMARK       I    between atoms: C47_47  and  N9_92 
REMARK       I    between atoms: C50_50  and  C54_54 
REMARK       I    between atoms: C58_58  and  C59_59 
REMARK       I    between atoms: C58_58  and  N11_94 
REMARK       I    between atoms: C59_59  and  C60_60 
REMARK       I    between atoms: C59_59  and  N12_95 
REMARK       I    between atoms: C63_63  and  C64_64 
REMARK       I    between atoms: C63_63  and  N12_95 
REMARK       I    between atoms: C64_64  and  C65_65 
REMARK       I    between atoms: C64_64  and  N13_96 
REMARK       I    between atoms: N9_92  and  N10_93 
USER                              x       y       z     vdW  Elec       q    Type
USER                           _______ _______ _______ _____ _____    ______ ____
ROOT
ATOM      1  C1  UNL     1       2.545   1.801   0.449 -0.12 +0.00    +0.005 C 
ATOM      2  C2  UNL     1       3.346   2.551   1.507 -0.12 +0.00    +0.002 C 
ATOM      3  C3  UNL     1       4.024   1.633   2.557 -0.22 +0.00    +0.006 C 
ATOM      4  C4  UNL     1       2.944   0.903   3.370 -0.25 +0.00    +0.012 C 
ATOM      5  C5  UNL     1       5.002   2.472   3.451 -0.21 +0.00    +0.119 C 
ATOM      6  C6  UNL     1       5.659   1.745   4.681 +7.09 +0.00    +0.152 C 
ATOM      7  C7  UNL     1       4.807   1.855   5.962 +4.62 +0.00    +0.137 C 
ATOM      8  C8  UNL     1       5.021   3.174   6.689 +1.65 +0.00    +0.222 C 
ATOM      9  C9  UNL     1       3.813   2.232   8.669+67.52 +0.00    +0.126 C 
ATOM     10  C10 UNL     1       3.108   3.051   9.736+99.99 +0.00    +0.022 C 
ATOM     11  C11 UNL     1       4.191   4.016  10.186+99.99 +0.00    +0.029 C 
ATOM     12  C12 UNL     1       4.933   4.360   8.882+99.99 +0.00    +0.117 C 
ATOM     13  C13 UNL     1       6.394   4.842   9.173+99.99 +0.00    +0.156 C 
ATOM     14  C14 UNL     1       7.538   3.798   9.220+88.46 +0.00    +0.105 C 
ATOM     15  C15 UNL     1       7.310   2.643  10.190+99.99 +0.00    +0.022 C 
ATOM     16  C16 UNL     1       7.968   3.283   7.845 -0.25 +0.00    +0.224 C 
ATOM     17  C17 UNL     1       9.064   4.019   5.722 -0.33 +0.00    +0.180 C 
ATOM     18  C18 UNL     1      10.230   3.027   5.574 -0.36 +0.00    +0.073 C 
ATOM     19  C19 UNL     1      11.521   3.429   6.253 -0.20 -0.00    -0.056 A 
ATOM     20  C20 UNL     1      11.720   3.183   7.618 +0.39 +0.00    +0.007 A 
ATOM     21  C21 UNL     1      12.915   3.552   8.239 -0.28 +0.00    +0.001 A 
ATOM     22  C22 UNL     1      13.925   4.166   7.502 -0.47 +0.00    +0.000 A 
ATOM     23  C23 UNL     1      13.739   4.413   6.143 +0.26 +0.00    +0.001 A 
ATOM     24  C24 UNL     1      12.545   4.046   5.523 +0.00 +0.00    +0.007 A 
ATOM     25  C25 UNL     1       9.366   5.392   5.081 -0.18 +0.00    +0.241 C 
ATOM     26  C26 UNL     1       9.894   6.534   2.951 -0.26 +0.00    +0.161 C 
ATOM     27  C27 UNL     1      11.386   6.691   2.827 -0.33 -0.00    -0.040 A 
ATOM     28  C28 UNL     1      12.104   7.407   3.790 -0.40 +0.00    +0.011 A 
ATOM     29  C29 UNL     1      13.493   7.524   3.698 -0.44 +0.00    +0.030 A 
ATOM     30  C30 UNL     1      14.193   6.921   2.647+20.59 +0.00    +0.034 A 
ATOM     31  C31 UNL     1      13.481   6.199   1.690+31.30 +0.00    +0.030 A 
ATOM     32  C32 UNL     1      12.088   6.081   1.781 -0.01 +0.00    +0.011 A 
ATOM     33  C33 UNL     1      16.508   6.614   1.709+99.99 +0.00    +0.245 C 
ATOM     34  C34 UNL     1      17.972   6.943   2.109 +4.63 +0.00    +0.177 C 
ATOM     35  C35 UNL     1      18.570   5.704   2.790+39.51 +0.00    +0.036 C 
ATOM     36  C36 UNL     1      20.066   5.853   3.069+99.99 +0.00    +0.022 C 
ATOM     37  C37 UNL     1      20.683   4.538   3.535+73.19 +0.00    +0.124 C 
ATOM     38  C38 UNL     1      22.820   3.619   4.264+23.17 +0.00    +0.291 C 
ATOM     39  C39 UNL     1      17.977   9.401   2.461 -0.34 +0.00    +0.241 C 
ATOM     40  C40 UNL     1      18.098  10.524   3.526 -0.05 +0.00    +0.180 C 
ATOM     41  C41 UNL     1      17.785  11.925   2.946 -0.32 +0.00    +0.009 C 
ATOM     42  C42 UNL     1      18.128  13.046   3.937+99.99 +0.00    +0.012 C 
ATOM     43  C43 UNL     1      16.301  12.050   2.572 -0.02 +0.00    +0.012 C 
ATOM     44  C44 UNL     1      19.777   9.624   5.129+99.99 +0.00    +0.218 C 
ATOM     45  C45 UNL     1      21.198   9.763   5.629+99.99 +0.00    +0.112 C 
ATOM     46  C46 UNL     1      22.189   9.056   4.719 +8.32 +0.00    +0.113 C 
ATOM     47  C47 UNL     1      22.467   9.826   3.441 -0.35 +0.00    +0.232 C 
ATOM     48  C48 UNL     1      22.851   8.646   0.327 -0.43 +0.00    +0.115 C 
ATOM     49  C49 UNL     1      23.728   7.538  -0.284 -0.55 +0.00    +0.032 C 
ATOM     50  C50 UNL     1      24.903   7.087   0.584 -0.42 +0.00    +0.089 C 
ATOM     51  C51 UNL     1      25.690   8.281   1.149 -0.47 +0.00    +0.036 C 
ATOM     52  C52 UNL     1      24.970   9.635   0.968 +0.97 +0.00    +0.076 C 
ATOM     53  C53 UNL     1      25.655  10.734   1.789 +1.14 +0.00    +0.028 C 
ATOM     54  C54 UNL     1      24.474   6.197   1.752 +0.41 +0.00    +0.177 C 
ATOM     55  C55 UNL     1       6.296   7.173   8.576 +8.03 +0.00    +0.202 C 
ATOM     56  C56 UNL     1       6.881  -0.254   5.179+99.99 +0.00    +0.202 C 
ATOM     57  C57 UNL     1       6.094   4.653   2.934 -0.12 +0.00    +0.153 C 
ATOM     58  C58 UNL     1       7.266   2.664   2.250 -0.16 +0.00    +0.243 C 
ATOM     59  C59 UNL     1       7.253   1.343   1.434 -0.13 +0.00    +0.180 C 
ATOM     60  C60 UNL     1       8.670   0.735   1.229 -0.01 +0.00    +0.009 C 
ATOM     61  C61 UNL     1       8.665  -0.431   0.233 -0.05 +0.00    +0.012 C 
ATOM     62  C62 UNL     1       9.252   0.224   2.553+99.99 +0.00    +0.012 C 
ATOM     63  C63 UNL     1       7.023   2.387  -0.852 -0.03 +0.00    +0.252 C 
ATOM     64  C64 UNL     1       5.961   2.756  -1.934 -0.04 +0.00    +0.316 C 
ATOM     65  C65 UNL     1       6.097   1.833  -3.181 -0.12 +0.00    +0.020 C 
ATOM     66  C66 UNL     1       5.831   0.364  -2.825 -0.15 +0.00    +0.012 C 
ATOM     67  C67 UNL     1       5.126   2.235  -4.301 -0.10 +0.00    +0.012 C 
ATOM     68  C68 UNL     1       5.607   5.033  -1.096 +2.17 +0.00    +0.310 C 
ATOM     69  C69 UNL     1       7.198   4.710  -2.859 +6.37 +0.00    +0.310 C 
ATOM     70  O1  UNL     1       5.384   4.187   6.096 -0.32 -0.00    -0.273 OA
ATOM     71  O2  UNL     1       7.785   2.127   7.469+18.68 -0.00    -0.273 OA
ATOM     72  O3  UNL     1       9.395   6.436   5.737 +0.07 -0.00    -0.271 OA
ATOM     73  O4  UNL     1      16.257   5.899   0.742+99.99 -0.00    -0.271 OA
ATOM     74  O5  UNL     1      22.358   2.552   4.649+99.99 -0.00    -0.254 OA
ATOM     75  O6  UNL     1      17.790   9.611   1.267 -0.28 -0.00    -0.271 OA
ATOM     76  O7  UNL     1      18.987   8.798   5.582+42.78 -0.00    -0.274 OA
ATOM     77  O8  UNL     1      21.984  10.937   3.223 +0.47 -0.00    -0.272 OA
ATOM     78  O9  UNL     1      23.448   6.556   2.404 +9.62 -0.00    -0.648 OA
ATOM     79  O10 UNL     1      25.197   5.192   1.997 +0.16 -0.00    -0.648 OA
ATOM     80  O11 UNL     1       6.802   5.883   8.263 +0.60 -0.00    -0.388 OA
ATOM     81  O12 UNL     1       5.912   0.370   4.337 +0.19 -0.00    -0.388 OA
ATOM     82  O13 UNL     1       8.324   3.261   2.488 -0.16 -0.00    -0.271 OA
ATOM     83  O14 UNL     1       8.200   2.725  -0.919 -0.05 -0.00    -0.271 OA
ATOM     84  N1  UNL     1       4.739   3.171   8.044+25.73 -0.00    -0.345 N 
ATOM     85  N2  UNL     1       8.629   4.227   7.099 -0.23 -0.00    -0.347 N 
ATOM     86  N3  UNL     1       9.560   5.361   3.719 -0.06 -0.00    -0.355 N 
ATOM     87  N4  UNL     1      15.589   7.080   2.637+23.73 -0.00    -0.325 N 
ATOM     88  N5  UNL     1      22.085   4.687   3.839+99.99 -0.00    -0.348 N 
ATOM     89  N6  UNL     1      24.153   3.862   4.265+21.75 -0.00    -0.254 NA
ATOM     90  N7  UNL     1      18.019   8.120   2.986 -0.27 -0.00    -0.346 N 
ATOM     91  N8  UNL     1      19.436  10.479   4.113+99.99 -0.00    -0.347 N 
ATOM     92  N9  UNL     1      23.307   9.123   2.598 -0.24 -0.00    -0.289 N 
ATOM     93  N10 UNL     1      23.526   9.568   1.265 -0.26 -0.00    -0.225 NA
ATOM     94  N11 UNL     1       6.033   3.223   2.645 -0.03 -0.00    -0.347 N 
ATOM     95  N12 UNL     1       6.519   1.621   0.186 -0.05 -0.00    -0.346 N 
ATOM     96  N13 UNL     1       5.960   4.214  -2.255 +0.50 +0.00    +0.094 N 
ATOM     97  HA1 UNL     1       8.434   5.203   7.339 +0.10 +0.00    +0.163 HD
ATOM     98  HA2 UNL     1       9.360   4.502   3.204 +0.04 +0.00    +0.162 HD
ATOM     99  HA3 UNL     1      15.995   7.651   3.368 -0.01 +0.00    +0.169 HD
ATOM    100  HA4 UNL     1      22.622   5.375   3.292+99.99 +0.00    +0.163 HD
ATOM    101  HA5 UNL     1      24.505   4.433   3.484 +0.98 +0.00    +0.128 HD
ATOM    102  HA6 UNL     1      24.715   3.036   4.398 +1.64 +0.00    +0.128 HD
ATOM    103  HA7 UNL     1      18.356   8.019   3.945 +0.10 +0.00    +0.163 HD
ATOM    104  HA8 UNL     1      20.202  10.912   3.588 +0.38 +0.00    +0.163 HD
ATOM    105  HA9 UNL     1      23.357   8.096   2.745 +0.13 +0.00    +0.184 HD
ATOM    106  HB0 UNL     1       5.517   1.537   0.240 +0.05 +0.00    +0.163 HD
ENDROOT
TORSDOF 38
TER
