USER    Run = 1
USER    DPF = ligand_337_receptor.dpf
USER  
USER    Estimated Free Energy of Binding    =   -9.87 kcal/mol  [=(1)+(2)+(3)-(4)]
USER    Estimated Inhibition Constant, Ki   =   58.43 nM (nanomolar)  [Temperature = 298.15 K]
USER    
USER    (1) Final Intermolecular Energy     =  -11.06 kcal/mol
USER        vdW + Hbond + desolv Energy     =  -11.06 kcal/mol
USER        Electrostatic Energy            =   +0.00 kcal/mol
USER    (2) Final Total Internal Energy     =   -1.65 kcal/mol
USER    (3) Torsional Free Energy           =   +1.19 kcal/mol
USER    (4) Unbound System's Energy  [=(2)] =   -1.65 kcal/mol
USER    
USER    
USER    NEWDPF move ligand_337.pdbqt
USER    NEWDPF about 0.000000 0.000000 0.000000
USER    NEWDPF tran0 21.069614 7.944763 1.250326
USER    NEWDPF quaternion0 -0.903902 -0.093427 0.020029 0.416932
USER    NEWDPF axisangle0 -0.994459 -0.102787 0.022036 130.717944
USER    NEWDPF quat0 -0.994459 -0.102787 0.022036 130.717944
USER    NEWDPF dihe0 -83.49 180.00 -8.31 37.99 77.11 -106.78 66.78 177.09 -42.36 -39.45 -39.89 162.99 97.23 
USER  keepresnum = 1 
USER  
REMARK  13 active torsions:
REMARK  status: ('A' for Active; 'I' for Inactive)
REMARK    1  A    between atoms: C5_5  and  C20_20 
REMARK    2  A    between atoms: C7_7  and  C8_8 
REMARK    3  A    between atoms: C8_8  and  C9_9 
REMARK    4  A    between atoms: C9_9  and  C10_10 
REMARK    5  A    between atoms: C16_16  and  N3_38 
REMARK    6  A    between atoms: C17_17  and  N3_38 
REMARK       I    between atoms: C20_20  and  N6_42 
REMARK    7  A    between atoms: C21_21  and  N6_42 
REMARK    8  A    between atoms: C23_23  and  C34_34 
REMARK    9  A    between atoms: C24_24  and  C27_27 
REMARK   10  A    between atoms: C27_27  and  N7_43 
REMARK   11  A    between atoms: C32_32  and  C33_33 
REMARK   12  A    between atoms: C32_32  and  N8_44 
REMARK   13  A    between atoms: C33_33  and  O2_46 
USER                              x       y       z     vdW  Elec       q    Type
USER                           _______ _______ _______ _____ _____    ______ ____
ROOT
ATOM      1  C1  UNL     1      16.226  12.174   3.192 +0.82 +0.00    +0.050 C 
ATOM      2  C2  UNL     1      17.433  11.518   2.579 -0.49 -0.00    -0.040 A 
ATOM      3  C3  UNL     1      18.548  12.298   2.241 -0.60 +0.00    +0.051 A 
ATOM      4  C4  UNL     1      19.679  11.711   1.672 -0.49 +0.00    +0.132 A 
ATOM      5  C5  UNL     1      19.735  10.340   1.424 -0.42 +0.00    +0.072 A 
ATOM      6  C6  UNL     1      18.620   9.556   1.762 -0.29 +0.00    +0.041 A 
ATOM      7  C7  UNL     1      17.478  10.135   2.334 -0.45 +0.00    +0.025 A 
ATOM      8  F4  UNL     1      20.714  12.510   1.370 +0.37 -0.00    -0.205 F 
ENDROOT
BRANCH   5   9
ATOM      9  C20 UNL     1      20.921   9.660   0.818 +0.01 +0.00    +0.259 C 
ATOM     10  N6  UNL     1      21.811   9.067   1.695 -0.10 -0.00    -0.323 N 
ATOM     11  H31 UNL     1      21.592   9.132   2.684 +0.12 +0.00    +0.169 HD
ATOM     12  O1  UNL     1      21.026   9.676  -0.405 +0.04 -0.00    -0.267 OA
BRANCH  10  13
ATOM     13  C21 UNL     1      22.997   8.370   1.384 -0.39 +0.00    +0.035 A 
ATOM     14  C22 UNL     1      24.099   8.581   2.223 -0.43 +0.00    +0.046 A 
ATOM     15  C23 UNL     1      25.339   7.940   2.003 -0.42 +0.00    +0.058 A 
ATOM     16  C24 UNL     1      25.459   7.048   0.916 -0.39 -0.00    -0.015 A 
ATOM     17  C25 UNL     1      24.350   6.846   0.077 -0.46 +0.00    +0.012 A 
ATOM     18  C26 UNL     1      23.136   7.500   0.308 -0.36 +0.00    +0.030 A 
BRANCH  15  19
ATOM     19  C34 UNL     1      26.475   8.217   2.969 -0.23 +0.00    +0.418 C 
ATOM     20  F1  UNL     1      27.716   8.143   2.413 -0.20 -0.00    -0.166 F 
ATOM     21  F2  UNL     1      26.407   9.483   3.487 -0.24 -0.00    -0.166 F 
ATOM     22  F3  UNL     1      26.474   7.396   4.054 -0.07 -0.00    -0.166 F 
ENDBRANCH  15  19
BRANCH  16  23
ATOM     23  C27 UNL     1      26.742   6.290   0.620 -0.17 +0.00    +0.311 C 
BRANCH  23  24
ATOM     24  N7  UNL     1      27.244   6.543  -0.739 -0.28 +0.00    +0.096 N 
ATOM     25  C28 UNL     1      28.698   6.800  -0.764 -0.15 +0.00    +0.303 C 
ATOM     26  C29 UNL     1      29.592   5.591  -0.378 -0.07 +0.00    +0.302 C 
ATOM     27  N8  UNL     1      28.965   4.269  -0.597 -0.17 +0.00    +0.093 N 
ATOM     28  C30 UNL     1      28.074   4.326  -1.768 -0.13 +0.00    +0.302 C 
ATOM     29  C31 UNL     1      26.953   5.393  -1.627 -0.18 +0.00    +0.303 C 
BRANCH  27  30
ATOM     30  C32 UNL     1      29.955   3.194  -0.731 -0.10 +0.00    +0.298 C 
BRANCH  30  31
ATOM     31  C33 UNL     1      30.127   2.346   0.539 -0.28 +0.00    +0.194 C 
BRANCH  31  32
ATOM     32  O2  UNL     1      29.367   2.897   1.611 -0.29 -0.00    -0.399 OA
ATOM     33  H32 UNL     1      29.828   2.669   2.436 -0.36 +0.00    +0.209 HD
ENDBRANCH  31  32
ENDBRANCH  30  31
ENDBRANCH  27  30
ENDBRANCH  23  24
ENDBRANCH  16  23
ENDBRANCH  10  13
ENDBRANCH   5   9
BRANCH   7  34
ATOM     34  C8  UNL     1      16.373   9.282   2.658 -0.51 -0.00    -0.059 C 
BRANCH  34  35
ATOM     35  C9  UNL     1      15.444   8.572   2.933 -0.49 -0.00    -0.041 C 
BRANCH  35  36
ATOM     36  C10 UNL     1      14.344   7.735   3.261 -0.26 +0.00    +0.110 A 
ATOM     37  C11 UNL     1      13.267   7.409   2.473 +0.13 +0.00    +0.129 A 
ATOM     38  N1  UNL     1      12.409   6.570   3.133 -0.16 -0.00    -0.347 N 
ATOM     39  C12 UNL     1      12.926   6.387   4.336 -0.18 +0.00    +0.139 A 
ATOM     40  H1  UNL     1      11.545   6.168   2.769 +0.06 +0.00    +0.167 HD
ATOM     41  C16 UNL     1      12.479   5.601   5.471 -0.33 +0.00    +0.077 A 
ATOM     42  N2  UNL     1      14.145   7.063   4.448 -0.27 -0.00    -0.298 N 
ATOM     43  C15 UNL     1      13.319   5.541   6.538 -0.49 +0.00    +0.035 A 
ATOM     44  C14 UNL     1      14.579   6.259   6.619 -0.36 +0.00    +0.020 A 
ATOM     45  C13 UNL     1      14.960   7.007   5.576 -0.02 +0.00    +0.099 A 
BRANCH  41  46
ATOM     46  N3  UNL     1      11.289   4.868   5.507 -0.13 -0.00    -0.351 N 
ATOM     47  H29 UNL     1      11.204   4.246   4.709 +0.08 +0.00    +0.166 HD
BRANCH  46  48
ATOM     48  C17 UNL     1      10.325   4.768   6.451 -0.33 +0.00    +0.066 A 
ATOM     49  C18 UNL     1      10.122   3.641   7.210 -0.40 +0.00    +0.138 A 
ATOM     50  N4  UNL     1       9.096   3.936   8.060 -0.31 -0.00    -0.310 N 
ATOM     51  N5  UNL     1       8.643   5.193   7.938 -0.25 -0.00    -0.310 N 
ATOM     52  H30 UNL     1       8.665   3.338   8.755 +0.12 +0.00    +0.186 HD
ATOM     53  C19 UNL     1       9.386   5.697   6.944 -0.19 +0.00    +0.138 A 
ATOM     54  H5  UNL     1       7.908   5.655   8.475 +0.11 +0.00    +0.186 HD
ENDBRANCH  46  48
ENDBRANCH  41  46
ENDBRANCH  35  36
ENDBRANCH  34  35
ENDBRANCH   7  34
TORSDOF 13
TER
