USER    Run = 1
USER    DPF = ligand_452_receptor.dpf
USER  
USER    Estimated Free Energy of Binding    = +296.08 kcal/mol  [=(1)+(2)+(3)-(4)]
USER    
USER    (1) Final Intermolecular Energy     = +294.88 kcal/mol
USER        vdW + Hbond + desolv Energy     = +294.88 kcal/mol
USER        Electrostatic Energy            =   +0.00 kcal/mol
USER    (2) Final Total Internal Energy     =  +10.15 kcal/mol
USER    (3) Torsional Free Energy           =   +1.19 kcal/mol
USER    (4) Unbound System's Energy  [=(2)] =  +10.15 kcal/mol
USER    
USER    
USER    NEWDPF move ligand_452.pdbqt
USER    NEWDPF about 0.000000 0.000000 0.000000
USER    NEWDPF tran0 11.045297 5.531800 2.615733
USER    NEWDPF quaternion0 0.680410 0.191514 -0.085546 0.702172
USER    NEWDPF axisangle0 0.955623 0.268978 -0.120148 90.796893
USER    NEWDPF quat0 0.955623 0.268978 -0.120148 90.796893
USER    NEWDPF dihe0 180.00 180.00 -146.56 91.89 73.53 171.42 -40.33 175.84 -57.71 154.93 -144.19 165.23 132.15 -165.10 -71.29 7.21 10.98 68.36 
USER  keepresnum = 1 
USER  
REMARK  18 active torsions:
REMARK  status: ('A' for Active; 'I' for Inactive)
REMARK    1  A    between atoms: C5_5  and  C6_6 
REMARK    2  A    between atoms: C5_5  and  O1_89 
REMARK    3  A    between atoms: C6_6  and  C7_7 
REMARK    4  A    between atoms: C7_7  and  N2_69 
REMARK    5  A    between atoms: C17_17  and  O16_104 
REMARK    6  A    between atoms: C31_31  and  C41_41 
REMARK    7  A    between atoms: C33_33  and  C34_34 
REMARK    8  A    between atoms: C34_34  and  O7_95 
REMARK    9  A    between atoms: C41_41  and  O9_97 
REMARK   10  A    between atoms: C45_45  and  O12_100 
REMARK   11  A    between atoms: C46_46  and  C47_47 
REMARK   12  A    between atoms: C48_48  and  C49_49 
REMARK       I    between atoms: C49_49  and  N12_84 
REMARK   13  A    between atoms: C50_50  and  C52_52 
REMARK   14  A    between atoms: C50_50  and  N12_84 
REMARK       I    between atoms: C52_52  and  N13_85 
REMARK   15  A    between atoms: C59_59  and  O16_104 
REMARK   16  A    between atoms: C61_61  and  O18_106 
REMARK   17  A    between atoms: C62_62  and  N15_88 
REMARK   18  A    between atoms: N1_68  and  O1_89 
USER                              x       y       z     vdW  Elec       q    Type
USER                           _______ _______ _______ _____ _____    ______ ____
ROOT
ATOM      1  C1  UNL     1       9.277   2.912  -1.863 -0.10 +0.00    +0.147 A 
ATOM      2  C2  UNL     1       8.449   2.276  -0.920 -0.11 +0.00    +0.014 A 
ATOM      3  C3  UNL     1       7.254   1.793  -1.615 -0.10 +0.00    +0.012 A 
ATOM      4  C4  UNL     1       7.447   2.104  -2.965 -0.09 +0.00    +0.075 A 
ATOM      5  C11 UNL     1       6.514   1.817  -3.975 -0.09 +0.00    +0.033 A 
ATOM      6  C12 UNL     1       5.339   1.177  -3.621 -0.08 +0.00    +0.003 A 
ATOM      7  C13 UNL     1       5.100   0.855  -2.294 -0.11 +0.00    +0.010 A 
ATOM      8  C14 UNL     1       6.017   1.160  -1.252 -0.13 -0.00    -0.021 A 
ATOM      9  C15 UNL     1       5.554   0.715   0.132 +0.54 +0.00    +0.218 C 
ATOM     10  C16 UNL     1       5.327   2.756   1.345 -0.05 +0.00    +0.291 C 
ATOM     11  C17 UNL     1       6.035   3.643   2.397 -0.06 +0.00    +0.255 C 
ATOM     12  C18 UNL     1       7.527   3.222   2.469 -0.16 +0.00    +0.189 C 
ATOM     13  C19 UNL     1       8.426   4.034   3.440 -0.20 +0.00    +0.174 C 
ATOM     14  C20 UNL     1       8.623   5.461   2.956 -0.16 +0.00    +0.077 A 
ATOM     15  C21 UNL     1       9.453   7.090   1.675 -0.25 +0.00    +0.102 A 
ATOM     16  C22 UNL     1      10.321   7.543   0.587 +0.51 +0.00    +0.248 C 
ATOM     17  C23 UNL     1      12.021   5.847   0.284 -0.31 +0.00    +0.144 C 
ATOM     18  C24 UNL     1      13.208   6.760   0.068 -0.09 +0.00    +0.071 A 
ATOM     19  C25 UNL     1      14.919   8.086   0.581 +4.05 +0.00    +0.067 A 
ATOM     20  C26 UNL     1      15.875   8.766   1.463 -0.27 +0.00    +0.073 A 
ATOM     21  C27 UNL     1      15.631   9.015   2.818 -0.42 +0.00    +0.029 A 
ATOM     22  C28 UNL     1      14.375   8.698   3.495 -0.30 +0.00    +0.087 C 
ATOM     23  C29 UNL     1      12.899   7.641   4.764 -0.41 +0.00    +0.102 C 
ATOM     24  C30 UNL     1      12.449   6.555   5.632 -0.27 +0.00    +0.248 C 
ATOM     25  C31 UNL     1      13.479   4.678   6.841 -0.48 +0.00    +0.183 C 
ATOM     26  C32 UNL     1      12.264   4.188   7.649 -0.39 +0.00    +0.242 C 
ATOM     27  C33 UNL     1      10.474   5.034   9.124 +1.59 +0.00    +0.098 C 
ATOM     28  C37 UNL     1       9.545   4.091   8.563 -0.16 +0.00    +0.104 C 
ATOM     29  C38 UNL     1       8.476   2.978   6.955 +0.50 +0.00    +0.108 C 
ATOM     30  C39 UNL     1       8.103   2.792   5.554 +6.91 +0.00    +0.269 C 
ATOM     31  C40 UNL     1       8.357   2.048   7.966 +8.37 +0.00    +0.087 C 
ATOM     32  C43 UNL     1      12.052   8.542   4.146 -0.17 +0.00    +0.086 C 
ATOM     33  C44 UNL     1      16.663   9.594   3.570 -0.44 +0.00    +0.055 A 
ATOM     34  C45 UNL     1      17.871   9.932   2.960 -0.39 +0.00    +0.096 A 
ATOM     35  C46 UNL     1      18.033   9.685   1.594 -0.36 +0.00    +0.100 A 
ATOM     36  C54 UNL     1      14.882   8.289  -0.786 +6.35 +0.00    +0.083 A 
ATOM     37  C55 UNL     1      12.246   4.444  -0.319 +4.12 +0.00    +0.205 C 
ATOM     38  C56 UNL     1      10.515   3.665  -1.762 +0.08 +0.00    +0.313 C 
ATOM     39  C57 UNL     1       8.682   7.859   2.519 -0.20 +0.00    +0.086 A 
ATOM     40  C58 UNL     1       8.672   2.218   0.563 -0.14 +0.00    +0.210 C 
ATOM     41  N1  UNL     1       8.656   2.737  -3.075 +0.26 -0.00    -0.215 N 
ATOM     42  N3  UNL     1       9.404   5.727   1.932 -0.05 -0.00    -0.348 N 
ATOM     43  H3  UNL     1       9.909   5.021   1.394 -0.13 +0.00    +0.166 HD
ATOM     44  N4  UNL     1      10.772   6.466  -0.179 -0.20 -0.00    -0.244 NA
ATOM     45  N5  UNL     1      13.992   7.166   1.046 +7.09 -0.00    -0.350 N 
ATOM     46  H5  UNL     1      13.926   6.847   2.013 -0.39 +0.00    +0.166 HD
ATOM     47  N6  UNL     1      14.251   7.810   4.461 -0.25 -0.00    -0.345 N 
ATOM     48  H6  UNL     1      15.022   7.322   4.917 +0.10 +0.00    +0.167 HD
ATOM     49  N7  UNL     1      13.430   6.105   6.498 -0.28 -0.00    -0.241 NA
ATOM     50  N8  UNL     1      11.726   5.123   8.524 -0.22 -0.00    -0.321 N 
ATOM     51  N9  UNL     1       9.070   4.176   7.335 -0.24 -0.00    -0.344 N 
ATOM     52  H9  UNL     1       9.130   5.007   6.746 +0.11 +0.00    +0.167 HD
ATOM     53  N10 UNL     1       8.157   3.982   4.859 -0.13 -0.00    -0.343 N 
ATOM     54  N14 UNL     1      17.045   9.109   0.853 -0.23 -0.00    -0.349 N 
ATOM     55  H14 UNL     1      17.179   8.939  -0.144 +0.12 +0.00    +0.166 HD
ATOM     56  O2  UNL     1       5.964   1.564   1.196 -0.13 -0.00    -0.315 OA
ATOM     57  O3  UNL     1       4.308   3.072   0.742 -0.07 -0.00    -0.262 OA
ATOM     58  O4  UNL     1      10.621   8.709   0.373+45.68 -0.00    -0.272 OA
ATOM     59  O5  UNL     1      11.323   6.077   5.567 -0.18 -0.00    -0.272 OA
ATOM     60  O6  UNL     1      11.935   3.004   7.600 +0.39 -0.00    -0.271 OA
ATOM     61  O8  UNL     1       7.841   1.704   5.059+46.79 -0.00    -0.266 OA
ATOM     62  O13 UNL     1      10.995   3.721  -0.485 +0.17 -0.00    -0.314 OA
ATOM     63  O14 UNL     1      11.096   4.195  -2.706 +1.27 -0.00    -0.258 OA
ATOM     64  O15 UNL     1       8.070   3.374   1.132 -0.04 -0.00    -0.376 OA
ATOM     65  S1  UNL     1       9.065   2.658   9.408 +7.09 -0.00    -0.079 SA
ATOM     66  S2  UNL     1      12.945   9.582   3.122+13.08 -0.00    -0.081 SA
ATOM     67  S4  UNL     1      13.622   7.366  -1.491+43.93 -0.00    -0.085 SA
ATOM     68  S5  UNL     1       7.896   6.846   3.666 -0.12 -0.00    -0.084 SA
ATOM     69  H65 UNL     1      10.067   5.739  -0.069 +0.06 +0.00    +0.131 HD
ATOM     70  H66 UNL     1      14.352   6.474   6.258 +0.08 +0.00    +0.131 HD
ATOM     71  H67 UNL     1      12.223   6.000   8.594 +0.14 +0.00    +0.169 HD
ATOM     72  H68 UNL     1       8.580   4.722   5.422 +0.10 +0.00    +0.163 HD
ENDROOT
BRANCH  35  73
ATOM     73  C47 UNL     1      19.282   9.993   0.861 -0.28 +0.00    +0.104 A 
ATOM     74  N11 UNL     1      20.370   9.242   0.840 +2.36 -0.00    -0.344 N 
ATOM     75  C48 UNL     1      21.359   9.813   0.037 -0.17 +0.00    +0.108 A 
ATOM     76  H11 UNL     1      20.474   8.361   1.345 +4.15 +0.00    +0.167 HD
ATOM     77  C53 UNL     1      21.004  11.014  -0.543 +1.30 +0.00    +0.087 A 
ATOM     78  S3  UNL     1      19.414  11.441  -0.084 -0.66 -0.00    -0.079 SA
BRANCH  75  79
ATOM     79  C49 UNL     1      22.656   9.147  -0.139 -0.30 +0.00    +0.273 C 
ATOM     80  N12 UNL     1      23.409   9.232   1.011 -0.20 -0.00    -0.318 N 
ATOM     81  H69 UNL     1      22.936   9.704   1.781 +0.14 +0.00    +0.169 HD
ATOM     82  O10 UNL     1      22.976   8.616  -1.194 +0.43 -0.00    -0.266 OA
BRANCH  80  83
ATOM     83  C50 UNL     1      24.658   8.719   1.282 -0.43 +0.00    +0.093 C 
ATOM     84  C51 UNL     1      25.470   9.116   2.268 -0.58 +0.00    +0.049 C 
BRANCH  83  85
ATOM     85  C52 UNL     1      25.159   7.620   0.382 -0.27 +0.00    +0.265 C 
ATOM     86  N13 UNL     1      24.724   6.368   0.720 -0.15 -0.00    -0.365 N 
ATOM     87  H70 UNL     1      25.184   5.614   0.225 +0.12 +0.00    +0.159 HD
ATOM     88  H71 UNL     1      24.409   6.177   1.660 +0.12 +0.00    +0.159 HD
ATOM     89  O11 UNL     1      25.915   7.794  -0.566 -0.22 -0.00    -0.266 OA
ENDBRANCH  83  85
ENDBRANCH  80  83
ENDBRANCH  75  79
ENDBRANCH  35  73
BRANCH  34  90
ATOM     90  O12 UNL     1      18.854  10.510   3.715 +1.90 -0.00    -0.358 OA
ATOM     91  H73 UNL     1      19.581  10.805   3.140 +0.18 +0.00    +0.217 HD
ENDBRANCH  34  90
BRANCH  25  92
ATOM     92  C41 UNL     1      14.770   4.389   7.641 +0.91 +0.00    +0.141 C 
ATOM     93  C42 UNL     1      15.492   5.660   8.078+12.77 +0.00    +0.041 C 
BRANCH  92  94
ATOM     94  O9  UNL     1      14.422   3.639   8.820 +6.00 -0.00    -0.394 OA
ATOM     95  H72 UNL     1      13.465   3.455   8.776 +0.18 +0.00    +0.210 HD
ENDBRANCH  92  94
ENDBRANCH  25  92
BRANCH  41  96
ATOM     96  O1  UNL     1       9.102   3.295  -4.284+16.89 -0.00    -0.272 OA
BRANCH  96  97
ATOM     97  C5  UNL     1       9.034   4.719  -4.233 -0.07 +0.00    +0.203 C 
BRANCH  97  98
ATOM     98  C6  UNL     1       8.501   5.147  -2.863 +0.04 +0.00    +0.057 C 
BRANCH  98  99
ATOM     99  C7  UNL     1       8.632   6.658  -2.649 +0.91 +0.00    +0.238 C 
BRANCH  99 100
ATOM    100  N2  UNL     1       9.902   7.271  -3.279 -0.29 -0.00    -0.079 N 
ATOM    101  C8  UNL     1      10.878   7.707  -2.186 -0.11 +0.00    +0.271 C 
ATOM    102  C9  UNL     1       9.479   8.524  -4.051 +0.15 +0.00    +0.271 C 
ATOM    103  C10 UNL     1      10.587   6.317  -4.239 -0.17 +0.00    +0.271 C 
ENDBRANCH  99 100
ENDBRANCH  98  99
ENDBRANCH  97  98
ENDBRANCH  96  97
ENDBRANCH  41  96
BRANCH  27 104
ATOM    104  C34 UNL     1      10.056   5.891  10.085+23.01 +0.00    +0.071 C 
ATOM    105  C36 UNL     1       8.665   5.939  10.660+20.92 +0.00    +0.078 C 
BRANCH 104 106
ATOM    106  O7  UNL     1      10.970   6.746  10.697+10.64 -0.00    -0.358 OA
ATOM    107  C35 UNL     1      12.318   6.289  10.606 +2.23 +0.00    +0.209 C 
ENDBRANCH 104 106
ENDBRANCH  27 104
BRANCH  11 108
ATOM    108  O16 UNL     1       5.385   3.535   3.666 -0.07 -0.00    -0.343 OA
BRANCH 108 109
ATOM    109  C59 UNL     1       4.064   4.084   3.655 -0.07 +0.00    +0.264 C 
ATOM    110  C60 UNL     1       3.274   3.579   4.851 -0.15 +0.00    +0.100 C 
ATOM    111  C61 UNL     1       3.829   4.072   6.203 -0.31 +0.00    +0.092 C 
ATOM    112  C62 UNL     1       4.626   5.437   6.057 -0.21 +0.00    +0.284 C 
ATOM    113  C67 UNL     1       4.695   2.950   6.813 +4.53 +0.00    +0.048 C 
ATOM    114  C63 UNL     1       4.067   6.217   4.820 -0.11 +0.00    +0.157 C 
ATOM    115  C64 UNL     1       2.665   6.800   5.011 -0.18 +0.00    +0.042 C 
ATOM    116  O17 UNL     1       4.114   5.498   3.580 -0.09 -0.00    -0.354 OA
BRANCH 111 117
ATOM    117  O18 UNL     1       2.689   4.243   7.066 -0.15 -0.00    -0.388 OA
ATOM    118  H74 UNL     1       2.988   4.176   7.988 +0.07 +0.00    +0.210 HD
ENDBRANCH 111 117
BRANCH 112 119
ATOM    119  N15 UNL     1       4.735   6.335   7.257 -0.36 +0.00    +0.090 N 
ATOM    120  C65 UNL     1       6.097   6.571   7.726 +0.20 +0.00    +0.310 C 
ATOM    121  C66 UNL     1       4.095   7.639   7.033 +0.01 +0.00    +0.310 C 
ENDBRANCH 112 119
ENDBRANCH 108 109
ENDBRANCH  11 108
TORSDOF 18
TER
