USER    Run = 1
USER    DPF = ligand_464_receptor.dpf
USER  
USER    Estimated Free Energy of Binding    =  +5.40e+005 kcal/mol  [=(1)+(2)+(3)-(4)]
USER    
USER    (1) Final Intermolecular Energy     =  +5.40e+005 kcal/mol
USER        vdW + Hbond + desolv Energy     =  +4.08e+005 kcal/mol
USER        Electrostatic Energy            =  +1.32e+005 kcal/mol
USER    (2) Final Total Internal Energy     =   +0.00 kcal/mol
USER    (3) Torsional Free Energy           =   +1.19 kcal/mol
USER    (4) Unbound System's Energy  [=(2)] =   +0.00 kcal/mol
USER    
USER    
USER    NEWDPF move ligand_464.pdbqt
USER    NEWDPF about 0.000000 0.000000 0.000000
USER    NEWDPF tran0 18.426511 7.761660 4.825611
USER    NEWDPF quaternion0 -0.964668 0.004606 0.077203 -0.251862
USER    NEWDPF axisangle0 -0.996802 0.004759 0.079774 -150.824591
USER    NEWDPF quat0 -0.996802 0.004759 0.079774 -150.824591
USER  keepresnum = 1 
USER  
REMARK  0 active torsions:
REMARK  status: ('A' for Active; 'I' for Inactive)
REMARK       I    between atoms: C2_2  and  C3_3 
REMARK       I    between atoms: C2_2  and  N7_102 
REMARK       I    between atoms: C3_3  and  N1_95 
REMARK       I    between atoms: C4_4  and  N1_95 
REMARK       I    between atoms: C7_7  and  C10_10 
REMARK       I    between atoms: C10_10  and  O2_79 
REMARK       I    between atoms: C11_11  and  O2_79 
REMARK       I    between atoms: C11_11  and  N2_96 
REMARK       I    between atoms: C24_24  and  O12_89 
REMARK       I    between atoms: C25_25  and  O5_82 
REMARK       I    between atoms: C28_28  and  C29_29 
REMARK       I    between atoms: C28_28  and  O5_82 
REMARK       I    between atoms: C31_31  and  N6_101 
REMARK       I    between atoms: C33_33  and  C35_35 
REMARK       I    between atoms: C35_35  and  O6_83 
REMARK       I    between atoms: C36_36  and  O6_83 
REMARK       I    between atoms: C37_37  and  O8_85 
REMARK       I    between atoms: C53_53  and  C54_54 
REMARK       I    between atoms: C53_53  and  N6_101 
REMARK       I    between atoms: C54_54  and  O9_86 
REMARK       I    between atoms: C55_55  and  C56_56 
REMARK       I    between atoms: C55_55  and  O9_86 
REMARK       I    between atoms: C56_56  and  O10_87 
REMARK       I    between atoms: C57_57  and  C58_58 
REMARK       I    between atoms: C57_57  and  O10_87 
REMARK       I    between atoms: C58_58  and  O11_88 
REMARK       I    between atoms: C61_61  and  C62_62 
REMARK       I    between atoms: C61_61  and  N7_102 
REMARK       I    between atoms: C62_62  and  C63_63 
REMARK       I    between atoms: C62_62  and  N8_103 
REMARK       I    between atoms: C66_66  and  C67_67 
REMARK       I    between atoms: C66_66  and  N8_103 
REMARK       I    between atoms: C67_67  and  C68_68 
REMARK       I    between atoms: C68_68  and  C69_69 
REMARK       I    between atoms: C69_69  and  C70_70 
REMARK       I    between atoms: C70_70  and  C71_71 
REMARK       I    between atoms: C71_71  and  N9_104 
REMARK       I    between atoms: C72_72  and  C73_73 
REMARK       I    between atoms: C72_72  and  N9_104 
REMARK       I    between atoms: C73_73  and  N10_105 
USER                              x       y       z     vdW  Elec       q    Type
USER                           _______ _______ _______ _____ _____    ______ ____
ROOT
ATOM      1  C1  UNL     1      27.293   8.669   2.628 -0.36 +0.00    +0.042 C 
ATOM      2  C2  UNL     1      26.287   9.069   1.555 -0.34 +0.00    +0.172 C 
ATOM      3  C3  UNL     1      24.844   8.790   2.030 -0.35 +0.00    +0.244 C 
ATOM      4  C4  UNL     1      23.355   6.842   2.561+42.06 +0.00    +0.034 A 
ATOM      5  C5  UNL     1      22.254   7.555   3.036 +5.23 +0.00    +0.030 A 
ATOM      6  C6  UNL     1      21.100   6.885   3.458+52.18 +0.00    +0.011 A 
ATOM      7  C7  UNL     1      21.024   5.488   3.403+99.99 -0.00    -0.034 A 
ATOM      8  C8  UNL     1      22.131   4.773   2.939+52.88 +0.00    +0.011 A 
ATOM      9  C9  UNL     1      23.284   5.444   2.520+99.99 +0.00    +0.030 A 
ATOM     10  C10 UNL     1      19.791   4.769   3.883+39.71 +0.00    +0.219 C 
ATOM     11  C11 UNL     1      20.307   3.387   5.742 +8.30 +0.00    +0.367 C 
ATOM     12  C12 UNL     1      21.079   2.095   7.634+99.99 +0.00    +0.160 C 
ATOM     13  C13 UNL     1      21.289   1.967   9.144+37.50 +0.00    +0.116 C 
ATOM     14  C14 UNL     1      21.951   0.619   9.508+71.61 +0.00    +0.068 C 
ATOM     15  C15 UNL     1      23.330   1.045   9.900+99.99 -0.00    -0.029 A 
ATOM     16  C16 UNL     1      24.407   0.230  10.218+29.33 +0.00    +0.009 A 
ATOM     17  C17 UNL     1      25.602   0.836  10.609+62.94 +0.00    +0.001 A 
ATOM     18  C18 UNL     1      25.700   2.233  10.684 +6.34 +0.00    +0.002 A 
ATOM     19  C19 UNL     1      24.606   3.044  10.367+99.99 +0.00    +0.030 A 
ATOM     20  C20 UNL     1      23.428   2.435   9.974+99.99 +0.00    +0.044 A 
ATOM     21  C21 UNL     1      21.920   4.369   9.578+99.99 +0.00    +0.261 C 
ATOM     22  C22 UNL     1      20.543   4.756   9.178+99.99 +0.00    +0.062 A 
ATOM     23  C23 UNL     1      19.940   5.738   9.986+99.99 +0.00    +0.059 A 
ATOM     24  C24 UNL     1      18.671   6.229   9.683+15.88 +0.00    +0.102 A 
ATOM     25  C25 UNL     1      17.965   5.710   8.602+99.99 +0.00    +0.104 A 
ATOM     26  C26 UNL     1      18.584   4.764   7.775+99.99 +0.00    +0.070 A 
ATOM     27  C27 UNL     1      19.879   4.274   8.035+99.99 +0.00    +0.058 A 
ATOM     28  C28 UNL     1      15.773   6.306   9.270+25.81 +0.00    +0.214 C 
ATOM     29  C29 UNL     1      14.377   6.048   8.748 -0.32 -0.00    -0.031 A 
ATOM     30  C30 UNL     1      13.503   5.195   9.442+24.67 +0.00    +0.038 A 
ATOM     31  C31 UNL     1      12.192   4.966   9.002 -0.35 +0.00    +0.029 A 
ATOM     32  C32 UNL     1      11.803   5.557   7.795 -0.38 +0.00    +0.038 A 
ATOM     33  C33 UNL     1      12.636   6.444   7.093 -0.41 -0.00    -0.031 A 
ATOM     34  C34 UNL     1      13.924   6.682   7.583 -0.50 +0.00    +0.018 A 
ATOM     35  C35 UNL     1      12.181   7.129   5.821 -0.29 +0.00    +0.214 C 
ATOM     36  C36 UNL     1       9.983   8.031   5.585 +4.64 +0.00    +0.104 A 
ATOM     37  C37 UNL     1       9.973   9.004   6.595+12.41 +0.00    +0.102 A 
ATOM     38  C38 UNL     1       9.058  10.055   6.500+99.99 +0.00    +0.059 A 
ATOM     39  C39 UNL     1       8.122  10.115   5.447+99.99 +0.00    +0.062 A 
ATOM     40  C40 UNL     1       8.100   9.117   4.461+99.99 +0.00    +0.050 A 
ATOM     41  C41 UNL     1       9.049   8.092   4.545 +9.27 +0.00    +0.070 A 
ATOM     42  C42 UNL     1       5.970   9.320   3.500+99.99 +0.00    +0.087 C 
ATOM     43  C43 UNL     1       5.314   9.725   4.801+99.99 +0.00    +0.136 C 
ATOM     44  C44 UNL     1       3.794   9.898   4.668 +4.12 +0.00    +0.072 C 
ATOM     45  C45 UNL     1       3.645  11.389   4.705 +0.86 -0.00    -0.029 A 
ATOM     46  C46 UNL     1       2.479  12.123   4.549 +0.98 +0.00    +0.009 A 
ATOM     47  C47 UNL     1       2.552  13.512   4.667+45.89 +0.00    +0.001 A 
ATOM     48  C48 UNL     1       3.776  14.140   4.945+99.99 +0.00    +0.002 A 
ATOM     49  C49 UNL     1       4.944  13.388   5.107+99.99 +0.00    +0.030 A 
ATOM     50  C50 UNL     1       4.863  12.012   4.982+99.99 +0.00    +0.044 A 
ATOM     51  C51 UNL     1       7.195  11.281   5.454+99.99 +0.00    +0.261 C 
ATOM     52  C52 UNL     1      10.770   9.754   8.721+30.36 +0.00    +0.210 C 
ATOM     53  C53 UNL     1       9.929   4.098   9.543+35.13 +0.00    +0.146 C 
ATOM     54  C54 UNL     1       9.275   5.373  10.097+73.70 +0.00    +0.187 C 
ATOM     55  C55 UNL     1       7.791   6.120   8.400 +0.72 +0.00    +0.193 C 
ATOM     56  C56 UNL     1       6.314   6.290   8.049 +0.91 +0.00    +0.193 C 
ATOM     57  C57 UNL     1       6.107   5.922   5.693 -0.00 +0.00    +0.193 C 
ATOM     58  C58 UNL     1       4.661   5.518   5.399 -0.19 +0.00    +0.193 C 
ATOM     59  C59 UNL     1       2.613   6.277   4.514 -0.13 +0.00    +0.201 C 
ATOM     60  C60 UNL     1      18.620   8.485  10.086+99.99 +0.00    +0.210 C 
ATOM     61  C61 UNL     1      27.375  10.980   0.408+99.99 +0.00    +0.241 C 
ATOM     62  C62 UNL     1      27.291  12.506   0.152+17.03 +0.00    +0.180 C 
ATOM     63  C63 UNL     1      27.839  13.363   1.320+99.99 +0.00    +0.009 C 
ATOM     64  C64 UNL     1      29.236  12.947   1.787+99.99 +0.00    +0.012 C 
ATOM     65  C65 UNL     1      26.883  13.395   2.516+99.99 +0.00    +0.012 C 
ATOM     66  C66 UNL     1      27.330  12.684  -2.301+62.55 +0.00    +0.218 C 
ATOM     67  C67 UNL     1      28.198  12.924  -3.518+12.01 +0.00    +0.103 C 
ATOM     68  C68 UNL     1      28.464  11.635  -4.291+37.79 +0.00    +0.010 C 
ATOM     69  C69 UNL     1      29.452  10.668  -3.625+38.10 +0.00    +0.010 C 
ATOM     70  C70 UNL     1      30.887  11.197  -3.568+99.99 +0.00    +0.103 C 
ATOM     71  C71 UNL     1      31.291  11.562  -2.153+99.99 +0.00    +0.217 C 
ATOM     72  C72 UNL     1      32.679  10.874  -0.237+99.99+99.99    +0.143 C 
ATOM     73  C73 UNL     1      31.677  10.221   0.722 +0.25 +0.00    +0.155 C 
ATOM     74  C74 UNL     1      31.399   8.064   1.883 -0.15 +0.00    +0.250 A 
ATOM     75  C75 UNL     1      31.344   6.646   1.520 -0.23 +0.00    +0.080 A 
ATOM     76  C76 UNL     1      31.542   6.560   0.206 -0.09 +0.00    +0.080 A 
ATOM     77  C77 UNL     1      31.733   7.922  -0.306 -0.05 +0.00    +0.250 A 
ATOM     78  O1  UNL     1      24.078   9.720   2.283 -0.31 -0.00    -0.271 OA
ATOM     79  O2  UNL     1      19.867   4.596   5.302+99.99 -0.00    -0.299 OA
ATOM     80  O3  UNL     1      20.608   2.461   4.994+63.47 -0.00    -0.238 OA
ATOM     81  O4  UNL     1      22.683   5.269   9.925+15.23 -0.00    -0.267 OA
ATOM     82  O5  UNL     1      16.705   6.072   8.211+99.99 -0.00    -0.344 OA
ATOM     83  O6  UNL     1      10.788   6.921   5.549 -0.15 -0.00    -0.344 OA
ATOM     84  O7  UNL     1       7.648  12.362   5.823+99.99 -0.00    -0.267 OA
ATOM     85  O8  UNL     1      10.846   8.842   7.634 +4.81 -0.00    -0.353 OA
ATOM     86  O9  UNL     1       7.910   5.495   9.680+19.20 -0.00    -0.387 OA
ATOM     87  O10 UNL     1       6.162   6.879   6.758 +1.34 -0.00    -0.387 OA
ATOM     88  O11 UNL     1       3.969   6.614   4.783 -0.04 -0.00    -0.394 OA
ATOM     89  O12 UNL     1      18.143   7.198  10.493+99.99 -0.00    -0.353 OA
ATOM     90  O13 UNL     1      28.264  10.262  -0.049+26.64 -0.00    -0.271 OA
ATOM     91  O14 UNL     1      26.141  12.390  -2.397+99.99 -0.00    -0.274 OA
ATOM     92  O15 UNL     1      30.764  12.483  -1.533+39.06 -0.00    -0.274 OA
ATOM     93  O16 UNL     1      31.179   8.473   3.010 +2.33 -0.00    -0.268 OA
ATOM     94  O17 UNL     1      31.890   8.163  -1.491 -0.06 -0.00    -0.268 OA
ATOM     95  N1  UNL     1      24.556   7.438   2.125 -0.10 -0.00    -0.325 N 
ATOM     96  N2  UNL     1      20.441   3.312   7.137+27.06 -0.00    -0.291 N 
ATOM     97  N3  UNL     1      22.207   3.022   9.599+73.82 -0.00    -0.307 N 
ATOM     98  N4  UNL     1       7.235   9.062   3.349+12.99 -0.00    -0.367 N 
ATOM     99  H4  UNL     1       7.602   8.819   2.428 +0.04 +0.00    +0.165 HD
ATOM    100  N5  UNL     1       5.883  11.053   5.085+99.99 -0.00    -0.303 N 
ATOM    101  N6  UNL     1      11.383   4.081   9.723 +9.84 -0.00    -0.388 N 
ATOM    102  N7  UNL     1      26.397  10.486   1.239 +4.00 -0.00    -0.346 N 
ATOM    103  N8  UNL     1      27.980  12.828  -1.097+49.48 -0.00    -0.347 N 
ATOM    104  N9  UNL     1      32.287  10.770  -1.631 +0.07 -0.00    -0.359 N 
ATOM    105  N10 UNL     1      31.705   8.764   0.759 -0.11 -0.00    -0.280 N 
ATOM    106  H82 UNL     1      25.276   6.795   1.820 +0.13 +0.00    +0.169 HD
ATOM    107  H83 UNL     1      11.662   4.010  10.699 +1.21 +0.00    +0.159 HD
ATOM    108  H84 UNL     1      25.574  11.052   1.441 +0.14 +0.00    +0.163 HD
ATOM    109  H85 UNL     1      28.997  12.717  -1.113 -0.20 +0.00    +0.163 HD
ATOM    110  H86 UNL     1      32.369   9.835  -2.035 +0.04 +0.00    +0.162 HD
ENDROOT
TORSDOF 35
TER
