USER    Run = 1
USER    DPF = ligand_168_receptor.dpf
USER  
USER    Estimated Free Energy of Binding    =  +1.17e+004 kcal/mol  [=(1)+(2)+(3)-(4)]
USER    
USER    (1) Final Intermolecular Energy     =  +1.17e+004 kcal/mol
USER        vdW + Hbond + desolv Energy     =  +1.17e+004 kcal/mol
USER        Electrostatic Energy            =   +0.00 kcal/mol
USER    (2) Final Total Internal Energy     =   +0.00 kcal/mol
USER    (3) Torsional Free Energy           =   +1.19 kcal/mol
USER    (4) Unbound System's Energy  [=(2)] =   +0.00 kcal/mol
USER    
USER    
USER    NEWDPF move ligand_168.pdbqt
USER    NEWDPF about 0.000000 0.000000 0.000000
USER    NEWDPF tran0 14.799660 6.595186 2.023410
USER    NEWDPF quaternion0 0.067885 0.586464 0.798885 0.115039
USER    NEWDPF axisangle0 0.068338 0.590384 0.804224 166.788196
USER    NEWDPF quat0 0.068338 0.590384 0.804224 166.788196
USER  keepresnum = 1 
USER  
REMARK  0 active torsions:
REMARK  status: ('A' for Active; 'I' for Inactive)
REMARK       I    between atoms: C2_2  and  C3_3 
REMARK       I    between atoms: C2_2  and  O17_66 
REMARK       I    between atoms: C3_3  and  C4_4 
REMARK       I    between atoms: C3_3  and  N12_79 
REMARK       I    between atoms: C4_4  and  N1_67 
REMARK       I    between atoms: C5_5  and  C6_6 
REMARK       I    between atoms: C5_5  and  C9_9 
REMARK       I    between atoms: C5_5  and  N1_67 
REMARK       I    between atoms: C9_9  and  N2_68 
REMARK       I    between atoms: C10_10  and  C11_11 
REMARK       I    between atoms: C10_10  and  C15_15 
REMARK       I    between atoms: C10_10  and  N2_68 
REMARK       I    between atoms: C11_11  and  C12_12 
REMARK       I    between atoms: C12_12  and  C13_13 
REMARK       I    between atoms: C13_13  and  N3_69 
REMARK       I    between atoms: C14_14  and  N4_71 
REMARK       I    between atoms: C14_14  and  N5_72 
REMARK       I    between atoms: C15_15  and  N6_73 
REMARK       I    between atoms: C16_16  and  C17_17 
REMARK       I    between atoms: C16_16  and  C24_24 
REMARK       I    between atoms: C16_16  and  N6_73 
REMARK       I    between atoms: C17_17  and  C18_18 
REMARK       I    between atoms: C24_24  and  N7_74 
REMARK       I    between atoms: C25_25  and  C26_26 
REMARK       I    between atoms: C25_25  and  C29_29 
REMARK       I    between atoms: C25_25  and  N7_74 
REMARK       I    between atoms: C26_26  and  C27_27 
REMARK       I    between atoms: C27_27  and  C28_28 
REMARK       I    between atoms: C28_28  and  N8_75 
REMARK       I    between atoms: C29_29  and  N9_76 
REMARK       I    between atoms: C30_30  and  C31_31 
REMARK       I    between atoms: C30_30  and  C32_32 
REMARK       I    between atoms: C30_30  and  N9_76 
REMARK       I    between atoms: C31_31  and  O7_56 
REMARK       I    between atoms: C32_32  and  N10_77 
REMARK       I    between atoms: C33_33  and  C34_34 
REMARK       I    between atoms: C33_33  and  C36_36 
REMARK       I    between atoms: C33_33  and  N10_77 
REMARK       I    between atoms: C34_34  and  C35_35 
REMARK       I    between atoms: C35_35  and  O10_59 
REMARK       I    between atoms: C36_36  and  N11_78 
REMARK       I    between atoms: C37_37  and  C38_38 
REMARK       I    between atoms: C37_37  and  N12_79 
REMARK       I    between atoms: C38_38  and  C39_39 
REMARK       I    between atoms: C38_38  and  N13_80 
REMARK       I    between atoms: C39_39  and  C40_40 
REMARK       I    between atoms: C40_40  and  C41_41 
REMARK       I    between atoms: C41_41  and  O14_63 
REMARK       I    between atoms: C42_42  and  C43_43 
REMARK       I    between atoms: C42_42  and  N13_80 
REMARK       I    between atoms: C43_43  and  C44_44 
REMARK       I    between atoms: C43_43  and  N17_85 
REMARK       I    between atoms: C44_44  and  C45_45 
REMARK       I    between atoms: C45_45  and  C46_46 
REMARK       I    between atoms: C46_46  and  N14_81 
REMARK       I    between atoms: C47_47  and  N15_83 
REMARK       I    between atoms: C47_47  and  N16_84 
REMARK       I    between atoms: C48_48  and  N17_85 
USER                              x       y       z     vdW  Elec       q    Type
USER                           _______ _______ _______ _____ _____    ______ ____
ROOT
ATOM      1  C1  UNL     1      17.820  10.927  -1.278+18.25 +0.00    +0.042 C 
ATOM      2  C2  UNL     1      17.517   9.586  -0.618 -0.25 +0.00    +0.146 C 
ATOM      3  C3  UNL     1      18.512   9.290   0.527 +0.42 +0.00    +0.205 C 
ATOM      4  C4  UNL     1      17.909   8.213   1.453 +2.54 +0.00    +0.243 C 
ATOM      5  C5  UNL     1      16.109   7.753   3.062 -0.16 +0.00    +0.180 C 
ATOM      6  C6  UNL     1      15.603   8.286   4.419 -0.43 +0.00    +0.009 C 
ATOM      7  C7  UNL     1      14.847   9.614   4.314 +3.90 +0.00    +0.012 C 
ATOM      8  C8  UNL     1      16.761   8.423   5.412+17.89 +0.00    +0.012 C 
ATOM      9  C9  UNL     1      14.941   7.418   2.112+37.47 +0.00    +0.241 C 
ATOM     10  C10 UNL     1      13.296   5.668   1.494+19.85 +0.00    +0.176 C 
ATOM     11  C11 UNL     1      13.859   4.512   0.650+99.99 +0.00    +0.036 C 
ATOM     12  C12 UNL     1      15.106   4.854  -0.175+99.99 +0.00    +0.022 C 
ATOM     13  C13 UNL     1      14.826   5.786  -1.352+99.99 +0.00    +0.121 C 
ATOM     14  C14 UNL     1      16.808   5.553  -2.642+99.99 +0.00    +0.121 C 
ATOM     15  C15 UNL     1      12.153   5.144   2.386+22.49 +0.00    +0.241 C 
ATOM     16  C16 UNL     1       9.775   4.427   2.411 +1.06 +0.00    +0.180 C 
ATOM     17  C17 UNL     1       9.846   2.970   2.908 +1.96 +0.00    +0.073 C 
ATOM     18  C18 UNL     1       9.739   1.836   1.909 +0.93 -0.00    -0.056 A 
ATOM     19  C19 UNL     1       9.262   0.593   2.367+48.84 +0.00    +0.007 A 
ATOM     20  C20 UNL     1       9.155  -0.499   1.505+13.54 +0.00    +0.001 A 
ATOM     21  C21 UNL     1       9.534  -0.373   0.172 -0.35 +0.00    +0.000 A 
ATOM     22  C22 UNL     1      10.027   0.843  -0.293 -0.32 +0.00    +0.001 A 
ATOM     23  C23 UNL     1      10.136   1.937   0.570 +1.19 +0.00    +0.007 A 
ATOM     24  C24 UNL     1       8.567   4.721   1.496 -0.08 +0.00    +0.241 C 
ATOM     25  C25 UNL     1       6.093   4.714   1.288 -0.11 +0.00    +0.177 C 
ATOM     26  C26 UNL     1       5.728   3.543   0.359 -0.11 +0.00    +0.044 C 
ATOM     27  C27 UNL     1       5.889   2.145   0.959 -0.14 +0.00    +0.105 C 
ATOM     28  C28 UNL     1       5.289   2.016   2.337 -0.16 +0.00    +0.215 C 
ATOM     29  C29 UNL     1       4.942   5.091   2.249 -0.12 +0.00    +0.241 C 
ATOM     30  C30 UNL     1       4.431   6.329   4.350 +0.08 +0.00    +0.200 C 
ATOM     31  C31 UNL     1       3.911   5.207   5.259 -0.15 +0.00    +0.199 C 
ATOM     32  C32 UNL     1       5.193   7.362   5.196+99.99 +0.00    +0.243 C 
ATOM     33  C33 UNL     1       4.959   9.014   7.039 +8.81 +0.00    +0.186 C 
ATOM     34  C34 UNL     1       4.025  10.191   7.282 -0.19 +0.00    +0.144 C 
ATOM     35  C35 UNL     1       4.745  11.269   8.036 +1.11 +0.00    +0.141 C 
ATOM     36  C36 UNL     1       5.138   8.244   8.365 +1.74 +0.00    +0.238 C 
ATOM     37  C37 UNL     1      20.912   8.718   0.734+42.48 +0.00    +0.241 C 
ATOM     38  C38 UNL     1      22.130   8.040   0.062 +2.68 +0.00    +0.177 C 
ATOM     39  C39 UNL     1      21.800   6.745  -0.695 +8.37 +0.00    +0.045 C 
ATOM     40  C40 UNL     1      21.242   5.632   0.196+99.99 +0.00    +0.112 C 
ATOM     41  C41 UNL     1      20.452   4.631  -0.605+99.99 +0.00    +0.139 C 
ATOM     42  C42 UNL     1      24.475   7.689   0.805 -0.31 +0.00    +0.241 C 
ATOM     43  C43 UNL     1      25.399   7.642   2.038 -0.38 +0.00    +0.176 C 
ATOM     44  C44 UNL     1      25.453   8.987   2.783 -0.64 +0.00    +0.036 C 
ATOM     45  C45 UNL     1      25.592  10.264   1.935 -0.15 +0.00    +0.022 C 
ATOM     46  C46 UNL     1      26.748  10.317   0.936+11.15 +0.00    +0.121 C 
ATOM     47  C47 UNL     1      29.087  10.088   0.948+99.99 +0.00    +0.121 C 
ATOM     48  C48 UNL     1      27.579   6.589   2.539+63.45 +0.00    +0.214 C 
ATOM     49  C49 UNL     1      28.956   6.323   1.992 +5.18 +0.00    +0.117 C 
ATOM     50  O1  UNL     1      18.210   7.022   1.382+33.21 -0.00    -0.271 OA
ATOM     51  O2  UNL     1      14.597   8.171   1.201 +5.72 -0.00    -0.271 OA
ATOM     52  O3  UNL     1      12.291   4.944   3.592+17.58 -0.00    -0.271 OA
ATOM     53  O4  UNL     1       8.715   5.196   0.367 -0.08 -0.00    -0.271 OA
ATOM     54  O5  UNL     1       5.910   2.290   3.360 -0.19 -0.00    -0.274 OA
ATOM     55  O6  UNL     1       3.759   4.841   2.029 -0.46 -0.00    -0.271 OA
ATOM     56  O7  UNL     1       2.969   5.708   6.218 -0.07 -0.00    -0.398 OA
ATOM     57  O8  UNL     1       6.418   7.467   5.153+99.99 -0.00    -0.271 OA
ATOM     58  O9  UNL     1       5.797  11.795   7.715+17.94 -0.00    -0.650 OA
ATOM     59  O10 UNL     1       4.085  11.660   9.141+46.07 -0.00    -0.776 OA
ATOM     60  O11 UNL     1       5.830   8.655   9.292+14.00 -0.00    -0.271 OA
ATOM     61  O12 UNL     1      20.982   9.189   1.872 -0.08 -0.00    -0.271 OA
ATOM     62  O13 UNL     1      20.087   4.738  -1.767+95.74 -0.00    -0.650 OA
ATOM     63  O14 UNL     1      20.132   3.540   0.117+99.99 -0.00    -0.776 OA
ATOM     64  O15 UNL     1      24.900   7.633  -0.349 -0.27 -0.00    -0.271 OA
ATOM     65  O16 UNL     1      27.265   6.285   3.686+99.99 -0.00    -0.274 OA
ATOM     66  O17 UNL     1      17.637   8.578  -1.637 -0.24 -0.00    -0.393 OA
ATOM     67  N1  UNL     1      16.972   8.697   2.354 -0.23 -0.00    -0.346 N 
ATOM     68  N2  UNL     1      14.316   6.223   2.370+99.99 -0.00    -0.346 N 
ATOM     69  N3  UNL     1      16.077   6.303  -1.907+42.31 -0.00    -0.372 N 
ATOM     70  H3  UNL     1      16.366   7.260  -1.707 +0.05 +0.00    +0.161 HD
ATOM     71  N4  UNL     1      16.624   4.278  -3.048+99.99 -0.00    -0.279 NA
ATOM     72  N5  UNL     1      17.972   6.024  -3.142 +1.09 -0.00    -0.279 NA
ATOM     73  N6  UNL     1      10.986   4.865   1.713+17.80 -0.00    -0.346 N 
ATOM     74  N7  UNL     1       7.328   4.488   2.040 -0.00 -0.00    -0.346 N 
ATOM     75  N8  UNL     1       3.982   1.640   2.372 -0.06 -0.00    -0.370 N 
ATOM     76  N9  UNL     1       5.346   5.831   3.333 -0.07 -0.00    -0.344 N 
ATOM     77  N10 UNL     1       4.390   8.130   6.012+25.15 -0.00    -0.345 N 
ATOM     78  N11 UNL     1       4.348   7.141   8.548+11.41 -0.00    -0.368 N 
ATOM     79  N12 UNL     1      19.779   8.817  -0.031+23.38 -0.00    -0.344 N 
ATOM     80  N13 UNL     1      23.138   7.827   1.096 -0.15 -0.00    -0.346 N 
ATOM     81  N14 UNL     1      28.000  10.015   1.616+99.99 -0.00    -0.372 N 
ATOM     82  H14 UNL     1      28.010   9.752   2.602 +0.92 +0.00    +0.161 HD
ATOM     83  N15 UNL     1      29.292  10.406  -0.348+18.54 -0.00    -0.279 NA
ATOM     84  N16 UNL     1      30.264   9.820   1.553+99.99 -0.00    -0.279 NA
ATOM     85  N17 UNL     1      26.718   7.174   1.644 -0.13 -0.00    -0.348 N 
ATOM     86  H55 UNL     1       2.453   4.934   6.519 +0.07 +0.00    +0.209 HD
ATOM     87  H56 UNL     1       4.686  12.315   9.558+99.99 +0.00    +0.167 HD
ATOM     88  H57 UNL     1      19.563   3.010  -0.477 +1.01 +0.00    +0.167 HD
ATOM     89  H58 UNL     1      16.907   7.926  -1.491 +0.14 +0.00    +0.210 HD
ATOM     90  H59 UNL     1      16.531   9.576   2.110 +0.12 +0.00    +0.163 HD
ATOM     91  H60 UNL     1      14.535   5.699   3.212 +0.30 +0.00    +0.163 HD
ATOM     92  H61 UNL     1      15.664   3.964  -3.015+99.99 +0.00    +0.126 HD
ATOM     93  H62 UNL     1      17.035   4.119  -3.960 -0.24 +0.00    +0.126 HD
ATOM     94  H63 UNL     1      18.762   5.432  -2.870 -0.11 +0.00    +0.126 HD
ATOM     95  H64 UNL     1      18.152   6.964  -2.790 -0.30 +0.00    +0.126 HD
ATOM     96  H65 UNL     1      10.836   5.273   0.793 -0.13 +0.00    +0.163 HD
ATOM     97  H66 UNL     1       7.246   3.889   2.862 +0.08 +0.00    +0.163 HD
ATOM     98  H67 UNL     1       3.387   1.812   1.570 +0.05 +0.00    +0.159 HD
ATOM     99  H68 UNL     1       3.527   1.690   3.274 +0.06 +0.00    +0.159 HD
ATOM    100  H69 UNL     1       6.329   6.085   3.422 +0.07 +0.00    +0.163 HD
ATOM    101  H70 UNL     1       3.439   7.795   6.153 +0.07 +0.00    +0.163 HD
ATOM    102  H71 UNL     1       4.534   6.612   9.392+33.42 +0.00    +0.159 HD
ATOM    103  H72 UNL     1       3.997   6.622   7.751 +0.06 +0.00    +0.159 HD
ATOM    104  H73 UNL     1      19.657   8.228  -0.846 +0.83 +0.00    +0.163 HD
ATOM    105  H74 UNL     1      22.858   8.072   2.043 +0.11 +0.00    +0.163 HD
ATOM    106  H75 UNL     1      30.038   9.864  -0.769 +0.06 +0.00    +0.126 HD
ATOM    107  H76 UNL     1      28.460  10.387  -0.924+99.99 +0.00    +0.126 HD
ATOM    108  H77 UNL     1      30.960  10.529   1.359 +0.99 +0.00    +0.126 HD
ATOM    109  H78 UNL     1      30.116   9.744   2.556+33.18 +0.00    +0.126 HD
ATOM    110  H79 UNL     1      27.086   7.535   0.773 +0.11 +0.00    +0.163 HD
ENDROOT
TORSDOF 43
TER
