USER    Run = 1
USER    DPF = ligand_63_receptor.dpf
USER  
USER    Estimated Free Energy of Binding    =   -6.26 kcal/mol  [=(1)+(2)+(3)-(4)]
USER    Estimated Inhibition Constant, Ki   =   25.75 uM (micromolar)  [Temperature = 298.15 K]
USER    
USER    (1) Final Intermolecular Energy     =   -7.45 kcal/mol
USER        vdW + Hbond + desolv Energy     =   -7.45 kcal/mol
USER        Electrostatic Energy            =   +0.00 kcal/mol
USER    (2) Final Total Internal Energy     =   -3.35 kcal/mol
USER    (3) Torsional Free Energy           =   +1.19 kcal/mol
USER    (4) Unbound System's Energy  [=(2)] =   -3.35 kcal/mol
USER    
USER    
USER    NEWDPF move ligand_63.pdbqt
USER    NEWDPF about 0.000000 0.000000 0.000000
USER    NEWDPF tran0 8.423608 3.793224 3.164279
USER    NEWDPF quaternion0 -0.441508 -0.642688 -0.119570 -0.614594
USER    NEWDPF axisangle0 -0.559690 -0.814722 -0.151576 -104.155168
USER    NEWDPF quat0 -0.559690 -0.814722 -0.151576 -104.155168
USER    NEWDPF dihe0 155.28 26.63 38.64 33.88 11.33 122.40 132.19 -58.22 -97.13 123.60 148.67 -28.59 -107.98 -180.00 -134.94 -140.65 -71.69 -165.73 2.26 -9.73 10.80 -22.99 
USER  keepresnum = 1 
USER  
REMARK  22 active torsions:
REMARK  status: ('A' for Active; 'I' for Inactive)
REMARK    1  A    between atoms: C2_2  and  C3_3 
REMARK    2  A    between atoms: C3_3  and  C4_4 
REMARK    3  A    between atoms: C4_4  and  C5_5 
REMARK    4  A    between atoms: C4_4  and  N6_46 
REMARK       I    between atoms: C5_5  and  N1_39 
REMARK    5  A    between atoms: C6_6  and  C7_7 
REMARK    6  A    between atoms: C6_6  and  N1_39 
REMARK    7  A    between atoms: C7_7  and  C8_8 
REMARK    8  A    between atoms: C8_8  and  C9_9 
REMARK    9  A    between atoms: C9_9  and  N3_42 
REMARK   10  A    between atoms: C12_12  and  C13_13 
REMARK   11  A    between atoms: C12_12  and  N3_42 
REMARK   12  A    between atoms: C13_13  and  O3_35 
REMARK   13  A    between atoms: C14_14  and  C17_17 
REMARK   14  A    between atoms: C14_14  and  N4_43 
REMARK   15  A    between atoms: C19_19  and  C20_20 
REMARK       I    between atoms: C19_19  and  N6_46 
REMARK   16  A    between atoms: C23_23  and  N7_47 
REMARK   17  A    between atoms: C26_26  and  C27_27 
REMARK   18  A    between atoms: C26_26  and  N7_47 
REMARK   19  A    between atoms: C32_32  and  N12_55 
REMARK   20  A    between atoms: O2_34  and  N2_40 
REMARK   21  A    between atoms: O3_35  and  N4_43 
REMARK   22  A    between atoms: O4_36  and  N5_44 
USER                              x       y       z     vdW  Elec       q    Type
USER                           _______ _______ _______ _____ _____    ______ ____
ROOT
ATOM      1  C4  UNL     1       3.242   3.514   3.818 -0.08 +0.00    +0.177 C 
ENDROOT
BRANCH   1   2
ATOM      2  C3  UNL     1       2.374   2.425   4.470 -0.14 +0.00    +0.034 C 
BRANCH   2   3
ATOM      3  C2  UNL     1       3.020   1.618   5.605 -0.31 -0.00    -0.002 C 
ATOM      4  C1  UNL     1       2.781   2.173   6.999 -0.39 +0.00    +0.005 C 
ENDBRANCH   2   3
ENDBRANCH   1   2
BRANCH   1   5
ATOM      5  C5  UNL     1       3.582   3.233   2.338 -0.06 +0.00    +0.240 C 
ATOM      6  O1  UNL     1       2.840   2.634   1.564 -0.07 -0.00    -0.271 OA
ATOM      7  N1  UNL     1       4.764   3.818   1.932 -0.01 -0.00    -0.359 N 
ATOM      8  H41 UNL     1       5.362   4.211   2.654 +0.06 +0.00    +0.162 HD
BRANCH   7   9
ATOM      9  C6  UNL     1       5.357   3.570   0.635 -0.09 +0.00    +0.128 C 
BRANCH   9  10
ATOM     10  C7  UNL     1       6.025   2.200   0.562 -0.13 +0.00    +0.077 C 
BRANCH  10  11
ATOM     11  C8  UNL     1       5.598   1.336  -0.634 -0.15 +0.00    +0.049 C 
ATOM     12  N2  UNL     1       4.416   0.781  -0.561 -0.09 -0.00    -0.275 N 
ATOM     13  H2  UNL     1       3.808   0.865   0.254 +0.04 +0.00    +0.193 HD
BRANCH  11  14
ATOM     14  C9  UNL     1       6.598   1.236  -1.842 -0.09 +0.00    +0.190 C 
ATOM     15  C10 UNL     1       5.990   0.566  -3.091 -0.13 +0.00    +0.055 C 
ATOM     16  C11 UNL     1       7.766   0.340  -1.377 -0.19 +0.00    +0.055 C 
BRANCH  14  17
ATOM     17  N3  UNL     1       7.161   2.561  -2.204 -0.10 +0.00    +0.100 N 
ATOM     18  H42 UNL     1       8.172   2.476  -2.307 +0.11 +0.00    +0.317 HD
BRANCH  17  19
ATOM     19  C12 UNL     1       6.630   3.248  -3.385 -0.10 +0.00    +0.299 C 
BRANCH  19  20
ATOM     20  C13 UNL     1       7.617   4.070  -4.217 -0.14 +0.00    +0.224 C 
BRANCH  20  21
ATOM     21  O3  UNL     1       8.154   5.102  -3.377 -0.02 -0.00    -0.303 OA
BRANCH  21  22
ATOM     22  N4  UNL     1       9.146   4.500  -2.489 -0.11 -0.00    -0.191 NA
ATOM     23  H43 UNL     1       9.802   4.094  -3.170 +0.06 +0.00    +0.155 HD
BRANCH  22  24
ATOM     24  C14 UNL     1       9.878   5.610  -1.830 -0.22 +0.00    +0.068 C 
ATOM     25  C15 UNL     1      11.156   5.044  -1.182 -0.19 +0.00    +0.040 C 
ATOM     26  C16 UNL     1      10.307   6.616  -2.911 -0.31 +0.00    +0.040 C 
BRANCH  24  27
ATOM     27  C17 UNL     1       8.936   6.339  -0.823 -0.28 +0.00    +0.030 C 
ATOM     28  C18 UNL     1       8.368   7.686  -1.218 -0.38 +0.00    +0.068 C 
ATOM     29  N5  UNL     1       8.548   5.887   0.341 -0.07 -0.00    -0.276 N 
ATOM     30  H5  UNL     1       7.922   6.403   0.960 +0.10 +0.00    +0.193 HD
BRANCH  29  31
ATOM     31  O4  UNL     1       9.070   4.632   0.656 -0.08 -0.00    -0.290 OA
ATOM     32  H40 UNL     1       8.387   4.267   1.251 +0.11 +0.00    +0.244 HD
ENDBRANCH  29  31
ENDBRANCH  24  27
ENDBRANCH  22  24
ENDBRANCH  21  22
ENDBRANCH  20  21
ENDBRANCH  19  20
ENDBRANCH  17  19
ENDBRANCH  14  17
ENDBRANCH  11  14
BRANCH  12  33
ATOM     33  O2  UNL     1       4.067   0.062  -1.702 +0.06 -0.00    -0.290 OA
ATOM     34  H39 UNL     1       3.095   0.002  -1.637 +0.03 +0.00    +0.244 HD
ENDBRANCH  12  33
ENDBRANCH  10  11
ENDBRANCH   9  10
ENDBRANCH   7   9
ENDBRANCH   1   5
BRANCH   1  35
ATOM     35  N6  UNL     1       4.468   3.783   4.575 -0.06 -0.00    -0.344 N 
ATOM     36  C19 UNL     1       4.597   4.908   5.358 -0.16 +0.00    +0.252 C 
ATOM     37  O5  UNL     1       3.755   5.798   5.393 -0.11 -0.00    -0.268 OA
ATOM     38  H44 UNL     1       5.075   2.992   4.748 +0.00 +0.00    +0.163 HD
BRANCH  36  39
ATOM     39  C20 UNL     1       5.815   4.992   6.215 -0.37 +0.00    +0.032 A 
ATOM     40  C21 UNL     1       6.900   4.124   6.074 -0.34 +0.00    +0.019 A 
ATOM     41  C22 UNL     1       8.014   4.252   6.912 -0.46 +0.00    +0.024 A 
ATOM     42  C23 UNL     1       8.092   5.261   7.881 -0.45 +0.00    +0.008 A 
ATOM     43  C24 UNL     1       6.987   6.105   8.031 +0.39 +0.00    +0.024 A 
ATOM     44  C25 UNL     1       5.867   5.986   7.197 -0.35 +0.00    +0.019 A 
BRANCH  42  45
ATOM     45  N7  UNL     1       9.200   5.289   8.729 -0.01 -0.00    -0.287 NA
ATOM     46  H45 UNL     1       8.958   5.096   9.705 +0.18 +0.00    +0.128 HD
BRANCH  45  47
ATOM     47  C26 UNL     1      10.414   4.564   8.358 -0.30 +0.00    +0.151 C 
BRANCH  47  48
ATOM     48  C27 UNL     1      10.963   5.102   7.052 -0.36 +0.00    +0.038 A 
ATOM     49  C28 UNL     1      12.029   6.001   7.056 -0.30 +0.00    +0.116 A 
ATOM     50  N8  UNL     1      12.543   6.550   5.926 -0.13 -0.00    -0.348 N 
ATOM     51  C29 UNL     1      11.953   6.177   4.768 -0.25 +0.00    +0.140 A 
ATOM     52  H8  UNL     1      13.326   7.203   5.948 +0.13 +0.00    +0.167 HD
ATOM     53  C30 UNL     1      10.883   5.288   4.768 -0.21 +0.00    +0.146 A 
ATOM     54  N11 UNL     1      12.493   6.748   3.608 -0.21 -0.00    -0.317 N 
ATOM     55  C31 UNL     1      10.312   4.948   3.451 +0.05 +0.00    +0.278 A 
ATOM     56  N9  UNL     1      10.353   4.734   5.891 -0.11 -0.00    -0.350 N 
ATOM     57  O6  UNL     1       9.351   4.201   3.305 -0.17 -0.00    -0.265 OA
ATOM     58  N10 UNL     1      10.932   5.535   2.370 +0.07 -0.00    -0.298 N 
ATOM     59  C32 UNL     1      11.969   6.413   2.475 -0.19 +0.00    +0.159 A 
ATOM     60  H46 UNL     1      10.518   5.346   1.471 -0.18 +0.00    +0.171 HD
ATOM     61  H9  UNL     1       9.560   4.093   5.866 +0.11 +0.00    +0.166 HD
ATOM     62  H11 UNL     1      13.271   7.405   3.656 +0.10 +0.00    +0.170 HD
BRANCH  59  63
ATOM     63  N12 UNL     1      12.447   6.929   1.317 -0.20 -0.00    -0.274 NA
ATOM     64  H47 UNL     1      12.307   6.377   0.480 +0.05 +0.00    +0.127 HD
ATOM     65  H48 UNL     1      13.408   7.248   1.413 -0.23 +0.00    +0.127 HD
ENDBRANCH  59  63
ENDBRANCH  47  48
ENDBRANCH  45  47
ENDBRANCH  42  45
ENDBRANCH  36  39
ENDBRANCH   1  35
TORSDOF 22
TER
