USER    Run = 1
USER    DPF = ligand_177_receptor.dpf
USER  
USER    Estimated Free Energy of Binding    =  +1.22e+003 kcal/mol  [=(1)+(2)+(3)-(4)]
USER    
USER    (1) Final Intermolecular Energy     =  +1.22e+003 kcal/mol
USER        vdW + Hbond + desolv Energy     =  +1.22e+003 kcal/mol
USER        Electrostatic Energy            =   +0.00 kcal/mol
USER    (2) Final Total Internal Energy     =   +0.00 kcal/mol
USER    (3) Torsional Free Energy           =   +1.19 kcal/mol
USER    (4) Unbound System's Energy  [=(2)] =   +0.00 kcal/mol
USER    
USER    
USER    NEWDPF move ligand_177.pdbqt
USER    NEWDPF about 0.000000 0.000000 0.000000
USER    NEWDPF tran0 10.769702 5.850360 3.830697
USER    NEWDPF quaternion0 0.566240 -0.226144 -0.553194 0.567633
USER    NEWDPF axisangle0 0.687784 -0.274686 -0.671938 110.829365
USER    NEWDPF quat0 0.687784 -0.274686 -0.671938 110.829365
USER  keepresnum = 1 
USER  
REMARK  0 active torsions:
REMARK  status: ('A' for Active; 'I' for Inactive)
REMARK       I    between atoms: C2_2  and  C3_3 
REMARK       I    between atoms: C3_3  and  C5_5 
REMARK       I    between atoms: C5_5  and  C6_6 
REMARK       I    between atoms: C5_5  and  N6_64 
REMARK       I    between atoms: C6_6  and  N1_59 
REMARK       I    between atoms: C7_7  and  C8_8 
REMARK       I    between atoms: C7_7  and  C12_12 
REMARK       I    between atoms: C7_7  and  N1_59 
REMARK       I    between atoms: C8_8  and  C10_10 
REMARK       I    between atoms: C12_12  and  N2_60 
REMARK       I    between atoms: C13_13  and  C14_14 
REMARK       I    between atoms: C13_13  and  N2_60 
REMARK       I    between atoms: C14_14  and  N3_61 
REMARK       I    between atoms: C15_15  and  C16_16 
REMARK       I    between atoms: C15_15  and  C20_20 
REMARK       I    between atoms: C15_15  and  N3_61 
REMARK       I    between atoms: C16_16  and  C17_17 
REMARK       I    between atoms: C20_20  and  N4_62 
REMARK       I    between atoms: C21_21  and  C22_22 
REMARK       I    between atoms: C21_21  and  C25_25 
REMARK       I    between atoms: C21_21  and  N4_62 
REMARK       I    between atoms: C22_22  and  C23_23 
REMARK       I    between atoms: C23_23  and  S1_73 
REMARK       I    between atoms: C25_25  and  N5_63 
REMARK       I    between atoms: C26_26  and  C27_27 
REMARK       I    between atoms: C26_26  and  N6_64 
REMARK       I    between atoms: C27_27  and  N7_65 
REMARK       I    between atoms: C29_29  and  C30_30 
REMARK       I    between atoms: C29_29  and  N7_65 
REMARK       I    between atoms: C30_30  and  N8_66 
REMARK       I    between atoms: C31_31  and  C32_32 
REMARK       I    between atoms: C31_31  and  N8_66 
REMARK       I    between atoms: C32_32  and  C33_33 
REMARK       I    between atoms: C32_32  and  N10_68 
REMARK       I    between atoms: C33_33  and  C34_34 
REMARK       I    between atoms: C34_34  and  C35_35 
REMARK       I    between atoms: C35_35  and  C36_36 
REMARK       I    between atoms: C36_36  and  N9_67 
REMARK       I    between atoms: C37_37  and  C38_38 
REMARK       I    between atoms: C37_37  and  N10_68 
REMARK       I    between atoms: C38_38  and  C39_39 
REMARK       I    between atoms: C38_38  and  N12_70 
REMARK       I    between atoms: C39_39  and  C40_40 
REMARK       I    between atoms: C40_40  and  N11_69 
REMARK       I    between atoms: C41_41  and  C42_42 
REMARK       I    between atoms: C41_41  and  N12_70 
REMARK       I    between atoms: C42_42  and  C43_43 
REMARK       I    between atoms: C42_42  and  N13_71 
REMARK       I    between atoms: C43_43  and  O12_57 
REMARK       I    between atoms: C44_44  and  C45_45 
REMARK       I    between atoms: C44_44  and  N13_71 
REMARK       I    between atoms: C45_45  and  N14_72 
USER                              x       y       z     vdW  Elec       q    Type
USER                           _______ _______ _______ _____ _____    ______ ____
ROOT
ATOM      1  C1  UNL     1       5.987   8.229  -1.361 +3.87 +0.00    +0.005 C 
ATOM      2  C2  UNL     1       6.675   6.883  -1.176+70.74 +0.00    +0.002 C 
ATOM      3  C3  UNL     1       6.108   6.059   0.000 -0.16 +0.00    +0.013 C 
ATOM      4  C4  UNL     1       6.355   6.754   1.346 -0.38 +0.00    +0.012 C 
ATOM      5  C5  UNL     1       6.637   4.601  -0.037 -0.10 +0.00    +0.180 C 
ATOM      6  C6  UNL     1       8.150   4.518   0.288 -0.07 +0.00    +0.241 C 
ATOM      7  C7  UNL     1       9.764   3.976   2.160 +4.61 +0.00    +0.180 C 
ATOM      8  C8  UNL     1      10.258   2.527   1.886+71.98 +0.00    +0.013 C 
ATOM      9  C9  UNL     1       9.291   1.508   2.514+20.81 +0.00    +0.012 C 
ATOM     10  C10 UNL     1      10.507   2.133   0.417 +5.85 +0.00    +0.002 C 
ATOM     11  C11 UNL     1      11.680   2.846  -0.238+14.05 +0.00    +0.005 C 
ATOM     12  C12 UNL     1      10.904   5.027   2.065+14.63 +0.00    +0.241 C 
ATOM     13  C13 UNL     1      11.896   6.814   0.714 -0.13 +0.00    +0.225 C 
ATOM     14  C14 UNL     1      12.421   7.779   1.779 +6.57 +0.00    +0.236 C 
ATOM     15  C15 UNL     1      14.086   8.045   3.607 -0.39 +0.00    +0.177 C 
ATOM     16  C16 UNL     1      14.907   7.092   4.495 -0.28 +0.00    +0.038 C 
ATOM     17  C17 UNL     1      15.421   7.722   5.805+15.73 -0.00    -0.020 C 
ATOM     18  C18 UNL     1      16.875   8.185   5.681+55.21 +0.00    +0.009 C 
ATOM     19  C19 UNL     1      15.324   6.712   6.954 +4.68 +0.00    +0.009 C 
ATOM     20  C20 UNL     1      14.977   9.150   2.994 +0.04 +0.00    +0.241 C 
ATOM     21  C21 UNL     1      16.311   9.752   0.995 -0.41 +0.00    +0.177 C 
ATOM     22  C22 UNL     1      17.737   9.970   1.526 -0.50 +0.00    +0.045 C 
ATOM     23  C23 UNL     1      18.027  11.432   1.876 -0.57 +0.00    +0.076 C 
ATOM     24  C24 UNL     1      18.369  14.080   1.209+31.56 +0.00    +0.089 C 
ATOM     25  C25 UNL     1      16.291   9.210  -0.449 +0.45 +0.00    +0.238 C 
ATOM     26  C26 UNL     1       5.873   2.372   0.742 -0.07 +0.00    +0.240 C 
ATOM     27  C27 UNL     1       4.875   1.644   1.662 -0.15 +0.00    +0.172 C 
ATOM     28  C28 UNL     1       3.559   1.465   0.912 -0.16 +0.00    +0.042 C 
ATOM     29  C29 UNL     1       4.043   1.930   3.985 -0.19 +0.00    +0.236 C 
ATOM     30  C30 UNL     1       4.133   2.854   5.198 -0.22 +0.00    +0.225 C 
ATOM     31  C31 UNL     1       6.576   3.099   5.556 +9.87 +0.00    +0.240 C 
ATOM     32  C32 UNL     1       7.682   2.947   6.630+11.41 +0.00    +0.176 C 
ATOM     33  C33 UNL     1       7.400   3.936   7.780 -0.11 +0.00    +0.035 C 
ATOM     34  C34 UNL     1       8.202   3.645   9.053 +2.25 +0.00    +0.004 C 
ATOM     35  C35 UNL     1       7.923   4.649  10.181+39.70 +0.00    +0.030 C 
ATOM     36  C36 UNL     1       8.336   6.100   9.900+26.05 +0.00    +0.267 C 
ATOM     37  C37 UNL     1      10.117   2.488   6.394 +2.80 +0.00    +0.241 C 
ATOM     38  C38 UNL     1      11.435   3.029   5.785 +0.25 +0.00    +0.185 C 
ATOM     39  C39 UNL     1      12.646   2.561   6.594+99.99 +0.00    +0.137 C 
ATOM     40  C40 UNL     1      13.950   2.890   5.910+63.34 +0.00    +0.217 C 
ATOM     41  C41 UNL     1      11.277   5.365   6.613 -0.25 +0.00    +0.243 C 
ATOM     42  C42 UNL     1      11.252   6.858   6.242 -0.26 +0.00    +0.200 C 
ATOM     43  C43 UNL     1      10.093   7.178   5.291 +0.18 +0.00    +0.199 C 
ATOM     44  C44 UNL     1      11.637   8.921   7.566 +1.21 +0.00    +0.246 C 
ATOM     45  C45 UNL     1      11.475   9.551   8.954+27.66 +0.00    +0.368 C 
ATOM     46  O1  UNL     1       9.018   4.805  -0.534 -0.09 -0.00    -0.271 OA
ATOM     47  O2  UNL     1      11.908   4.946   2.780 +9.34 -0.00    -0.271 OA
ATOM     48  O3  UNL     1      11.930   8.885   1.982+64.45 -0.00    -0.272 OA
ATOM     49  O4  UNL     1      15.238  10.205   3.568 +1.04 -0.00    -0.271 OA
ATOM     50  O5  UNL     1      15.721   8.166  -0.767 -0.59 -0.00    -0.271 OA
ATOM     51  O6  UNL     1       6.544   1.792  -0.105 -0.08 -0.00    -0.271 OA
ATOM     52  O7  UNL     1       3.487   0.838   4.019 -0.21 -0.00    -0.272 OA
ATOM     53  O8  UNL     1       6.745   3.621   4.451 -0.17 -0.00    -0.271 OA
ATOM     54  O9  UNL     1      10.056   1.442   7.037+99.99 -0.00    -0.271 OA
ATOM     55  O10 UNL     1      14.049   3.472   4.838+26.77 -0.00    -0.274 OA
ATOM     56  O11 UNL     1      11.196   4.976   7.779 -0.27 -0.00    -0.271 OA
ATOM     57  O12 UNL     1       8.832   6.891   5.909+12.00 -0.00    -0.398 OA
ATOM     58  O13 UNL     1      12.155   9.501   6.615 +5.21 -0.00    -0.272 OA
ATOM     59  N1  UNL     1       8.447   4.303   1.614 -0.02 -0.00    -0.346 N 
ATOM     60  N2  UNL     1      10.751   6.036   1.147 -0.12 -0.00    -0.351 N 
ATOM     61  N3  UNL     1      13.477   7.267   2.512 +0.05 -0.00    -0.346 N 
ATOM     62  N4  UNL     1      15.590   8.784   1.814 -0.04 -0.00    -0.346 N 
ATOM     63  N5  UNL     1      16.915   9.972  -1.391 +9.93 -0.00    -0.368 N 
ATOM     64  N6  UNL     1       5.874   3.751   0.887 -0.00 -0.00    -0.346 N 
ATOM     65  N7  UNL     1       4.703   2.435   2.883 -0.04 -0.00    -0.347 N 
ATOM     66  N8  UNL     1       5.344   2.622   5.960 +1.69 -0.00    -0.351 N 
ATOM     67  N9  UNL     1       9.783   6.281   9.787+84.06 +0.00    +0.078 N 
ATOM     68  N10 UNL     1       8.988   3.200   6.040 -0.17 -0.00    -0.346 N 
ATOM     69  N11 UNL     1      15.059   2.481   6.589+72.66 -0.00    -0.370 N 
ATOM     70  N12 UNL     1      11.361   4.479   5.562 -0.17 -0.00    -0.345 N 
ATOM     71  N13 UNL     1      11.147   7.644   7.472 +6.33 -0.00    -0.344 N 
ATOM     72  N14 UNL     1      12.054  10.904   8.981 +0.14 +0.00    +0.087 N 
ATOM     73  S1  UNL     1      18.133  12.484   0.386 +0.31 -0.00    -0.173 SA
ATOM     74  H64 UNL     1       8.789   7.475   6.691+17.07 +0.00    +0.209 HD
ATOM     75  H65 UNL     1       7.657   4.027   2.190 +0.08 +0.00    +0.163 HD
ATOM     76  H66 UNL     1      10.086   5.818   0.405 +0.07 +0.00    +0.163 HD
ATOM     77  H67 UNL     1      13.436   6.253   2.624 -0.32 +0.00    +0.163 HD
ATOM     78  H68 UNL     1      15.176   7.994   1.323 -0.37 +0.00    +0.163 HD
ATOM     79  H69 UNL     1      17.306  10.885  -1.177 +0.40 +0.00    +0.159 HD
ATOM     80  H70 UNL     1      16.874   9.675  -2.355 +0.47 +0.00    +0.159 HD
ATOM     81  H71 UNL     1       5.046   4.141   1.323 +0.05 +0.00    +0.163 HD
ATOM     82  H72 UNL     1       5.492   3.033   3.140 +0.07 +0.00    +0.163 HD
ATOM     83  H73 UNL     1       5.292   1.984   6.745 -0.08 +0.00    +0.163 HD
ATOM     84  H74 UNL     1      10.202   6.085  10.699 +0.66 +0.00    +0.312 HD
ATOM     85  H75 UNL     1      10.169   5.531   9.190 +0.28 +0.00    +0.312 HD
ATOM     86  H76 UNL     1       9.123   4.095   5.579 +0.10 +0.00    +0.163 HD
ATOM     87  H77 UNL     1      15.021   2.107   7.528+21.00 +0.00    +0.159 HD
ATOM     88  H78 UNL     1      15.964   2.715   6.200+62.76 +0.00    +0.159 HD
ATOM     89  H79 UNL     1      11.812   4.802   4.701 +0.09 +0.00    +0.163 HD
ATOM     90  H80 UNL     1      10.750   7.197   8.303+19.71 +0.00    +0.163 HD
ATOM     91  H81 UNL     1      13.028  10.827   8.677 +0.23 +0.00    +0.313 HD
ATOM     92  H82 UNL     1      11.622  11.436   8.220 +2.07 +0.00    +0.313 HD
ENDROOT
TORSDOF 40
TER
