USER    Run = 1
USER    DPF = ligand_494_receptor.dpf
USER  
USER    Estimated Free Energy of Binding    =  +5.21e+006 kcal/mol  [=(1)+(2)+(3)-(4)]
USER    
USER    (1) Final Intermolecular Energy     =  +5.21e+006 kcal/mol
USER        vdW + Hbond + desolv Energy     =  +2.73e+006 kcal/mol
USER        Electrostatic Energy            =  +2.48e+006 kcal/mol
USER    (2) Final Total Internal Energy     =   +0.00 kcal/mol
USER    (3) Torsional Free Energy           =   +1.19 kcal/mol
USER    (4) Unbound System's Energy  [=(2)] =   +0.00 kcal/mol
USER    
USER    
USER    NEWDPF move ligand_494.pdbqt
USER    NEWDPF about 0.000000 0.000000 0.000000
USER    NEWDPF tran0 17.046747 6.204273 0.788556
USER    NEWDPF quaternion0 -0.151355 0.110673 -0.964799 -0.184407
USER    NEWDPF axisangle0 -0.153996 0.112604 -0.981634 -158.746925
USER    NEWDPF quat0 -0.153996 0.112604 -0.981634 -158.746925
USER  keepresnum = 1 
USER  
REMARK  0 active torsions:
REMARK  status: ('A' for Active; 'I' for Inactive)
REMARK       I    between atoms: C2_2  and  C3_3 
REMARK       I    between atoms: C3_3  and  C5_5 
REMARK       I    between atoms: C5_5  and  C6_6 
REMARK       I    between atoms: C5_5  and  N3_95 
REMARK       I    between atoms: C6_6  and  C7_7 
REMARK       I    between atoms: C6_6  and  O5_82 
REMARK       I    between atoms: C7_7  and  C8_8 
REMARK       I    between atoms: C8_8  and  N1_93 
REMARK       I    between atoms: C12_12  and  C13_13 
REMARK       I    between atoms: C13_13  and  C14_14 
REMARK       I    between atoms: C13_13  and  O4_81 
REMARK       I    between atoms: C14_14  and  C16_16 
REMARK       I    between atoms: C16_16  and  N2_94 
REMARK       I    between atoms: C17_17  and  C19_19 
REMARK       I    between atoms: C17_17  and  N2_94 
REMARK       I    between atoms: C19_19  and  C20_20 
REMARK       I    between atoms: C19_19  and  O3_80 
REMARK       I    between atoms: C29_29  and  C30_30 
REMARK       I    between atoms: C29_29  and  N3_95 
REMARK       I    between atoms: C30_30  and  C31_31 
REMARK       I    between atoms: C30_30  and  N4_96 
REMARK       I    between atoms: C34_34  and  C35_35 
REMARK       I    between atoms: C34_34  and  N4_96 
REMARK       I    between atoms: C35_35  and  C36_36 
REMARK       I    between atoms: C35_35  and  N5_97 
REMARK       I    between atoms: C40_40  and  O9_86 
REMARK       I    between atoms: C40_40  and  N5_97 
REMARK       I    between atoms: C41_41  and  C42_42 
REMARK       I    between atoms: C41_41  and  O9_86 
REMARK       I    between atoms: C45_45  and  N6_98 
REMARK       I    between atoms: C48_48  and  C49_49 
REMARK       I    between atoms: C48_48  and  N6_98 
REMARK       I    between atoms: C49_49  and  C50_50 
REMARK       I    between atoms: C49_49  and  N9_101 
REMARK       I    between atoms: C50_50  and  C51_51 
REMARK       I    between atoms: C51_51  and  C52_52 
REMARK       I    between atoms: C52_52  and  N7_99 
REMARK       I    between atoms: C53_53  and  N7_99 
REMARK       I    between atoms: C53_53  and  N8_100 
REMARK       I    between atoms: C54_54  and  C55_55 
REMARK       I    between atoms: C54_54  and  N9_101 
REMARK       I    between atoms: C55_55  and  C56_56 
REMARK       I    between atoms: C55_55  and  N10_102 
REMARK       I    between atoms: C59_59  and  C60_60 
REMARK       I    between atoms: C59_59  and  N10_102 
REMARK       I    between atoms: C60_60  and  C61_61 
REMARK       I    between atoms: C61_61  and  C62_62 
REMARK       I    between atoms: C62_62  and  C63_63 
REMARK       I    between atoms: C63_63  and  C64_64 
REMARK       I    between atoms: C64_64  and  N11_103 
REMARK       I    between atoms: C67_67  and  S1_104 
REMARK       I    between atoms: C69_69  and  S1_104 
USER                              x       y       z     vdW  Elec       q    Type
USER                           _______ _______ _______ _____ _____    ______ ____
ROOT
ATOM      1  C1  UNL     1      23.604   2.411  -1.365+99.99 +0.00    +0.005 C 
ATOM      2  C2  UNL     1      24.656   3.242  -0.647 +1.24 +0.00    +0.002 C 
ATOM      3  C3  UNL     1      25.272   4.434  -1.434 -0.54 +0.00    +0.006 C 
ATOM      4  C4  UNL     1      26.563   4.795  -0.671 -0.43 +0.00    +0.012 C 
ATOM      5  C5  UNL     1      24.299   5.665  -1.604 -0.33 +0.00    +0.119 C 
ATOM      6  C6  UNL     1      24.904   6.954  -2.299 +0.08 +0.00    +0.152 C 
ATOM      7  C7  UNL     1      25.003   8.218  -1.425 +9.74 +0.00    +0.137 C 
ATOM      8  C8  UNL     1      25.752   8.078  -0.115 -0.14 +0.00    +0.222 C 
ATOM      9  C9  UNL     1      27.319   9.001   1.513 +0.32 +0.00    +0.126 C 
ATOM     10  C10 UNL     1      27.727  10.453   1.655+99.99 +0.00    +0.022 C 
ATOM     11  C11 UNL     1      28.310  10.761   0.286+99.99 +0.00    +0.029 C 
ATOM     12  C12 UNL     1      27.406   9.984  -0.695+99.99 +0.00    +0.117 C 
ATOM     13  C13 UNL     1      28.158   9.472  -1.966+99.99 +0.00    +0.156 C 
ATOM     14  C14 UNL     1      28.306  10.524  -3.092+99.99 +0.00    +0.105 C 
ATOM     15  C15 UNL     1      26.969  10.837  -3.768+99.99 +0.00    +0.022 C 
ATOM     16  C16 UNL     1      28.985  11.808  -2.628+99.99 +0.00    +0.224 C 
ATOM     17  C17 UNL     1      31.163  12.732  -1.815+99.99 +0.00    +0.113 C 
ATOM     18  C18 UNL     1      31.899  13.228  -3.061+99.99 +0.00    +0.035 C 
ATOM     19  C19 UNL     1      32.113  12.260  -0.681 +9.60 +0.00    +0.173 C 
ATOM     20  C20 UNL     1      32.920  13.376  -0.048+99.99+99.99    -0.028 A 
ATOM     21  C21 UNL     1      32.372  14.114   1.014+15.47 +0.00    +0.010 A 
ATOM     22  C22 UNL     1      33.094  15.152   1.606+99.99+99.99    +0.001 A 
ATOM     23  C23 UNL     1      34.368  15.470   1.143+99.99+99.99    +0.000 A 
ATOM     24  C24 UNL     1      34.923  14.752   0.085+99.99+99.99    +0.001 A 
ATOM     25  C25 UNL     1      34.203  13.714  -0.508+99.99+99.99    +0.010 A 
ATOM     26  C26 UNL     1      29.506   7.585  -1.374 -0.19 +0.00    +0.202 C 
ATOM     27  C27 UNL     1      26.131   6.450  -4.300+99.99 +0.00    +0.202 C 
ATOM     28  C28 UNL     1      23.095   4.749  -3.651+99.99 +0.00    +0.153 C 
ATOM     29  C29 UNL     1      21.769   5.864  -1.982+76.95 +0.00    +0.243 C 
ATOM     30  C30 UNL     1      21.557   6.524  -0.588+23.62 +0.00    +0.180 C 
ATOM     31  C31 UNL     1      21.425   5.462   0.528+99.99 +0.00    +0.009 C 
ATOM     32  C32 UNL     1      21.464   6.119   1.911+99.99 +0.00    +0.012 C 
ATOM     33  C33 UNL     1      20.175   4.587   0.400+99.99 +0.00    +0.012 C 
ATOM     34  C34 UNL     1      20.467   8.644  -1.212+16.29 +0.00    +0.241 C 
ATOM     35  C35 UNL     1      19.125   9.394  -1.437+99.99 +0.00    +0.184 C 
ATOM     36  C36 UNL     1      18.327   9.787  -0.163 -0.38 +0.00    +0.010 C 
ATOM     37  C37 UNL     1      19.224  10.549   0.823 -0.58 +0.00    +0.012 C 
ATOM     38  C38 UNL     1      17.600   8.671   0.585 +0.21 +0.00    +0.012 C 
ATOM     39  C39 UNL     1      18.110   9.744  -3.687+47.76 +0.00    +0.156 C 
ATOM     40  C40 UNL     1      17.815   7.563  -2.531 +0.30 +0.00    +0.363 C 
ATOM     41  C41 UNL     1      16.582   5.921  -3.703+99.99 +0.00    +0.219 C 
ATOM     42  C42 UNL     1      15.170   5.908  -3.178+99.99 -0.00    -0.034 A 
ATOM     43  C43 UNL     1      14.106   6.328  -3.985 +2.55 +0.00    +0.011 A 
ATOM     44  C44 UNL     1      12.795   6.337  -3.492 +0.65 +0.00    +0.030 A 
ATOM     45  C45 UNL     1      12.529   5.937  -2.184 +0.66 +0.00    +0.034 A 
ATOM     46  C46 UNL     1      13.594   5.529  -1.372+37.81 +0.00    +0.030 A 
ATOM     47  C47 UNL     1      14.902   5.517  -1.862+99.99 +0.00    +0.011 A 
ATOM     48  C48 UNL     1      10.036   6.251  -2.200 -0.16 +0.00    +0.245 C 
ATOM     49  C49 UNL     1       8.831   6.133  -1.227 -0.16 +0.00    +0.177 C 
ATOM     50  C50 UNL     1       8.302   7.548  -0.936 -0.41 +0.00    +0.036 C 
ATOM     51  C51 UNL     1       7.119   7.669   0.038 -0.50 +0.00    +0.022 C 
ATOM     52  C52 UNL     1       5.857   6.899  -0.349 +0.84 +0.00    +0.124 C 
ATOM     53  C53 UNL     1       5.084   4.570  -0.551 -0.11 +0.00    +0.291 C 
ATOM     54  C54 UNL     1       9.017   4.045   0.130 -0.06 +0.00    +0.241 C 
ATOM     55  C55 UNL     1       9.345   3.495   1.536 +1.08 +0.00    +0.180 C 
ATOM     56  C56 UNL     1       9.722   1.999   1.503 +1.08 +0.00    +0.009 C 
ATOM     57  C57 UNL     1       9.948   1.449   2.916+98.33 +0.00    +0.012 C 
ATOM     58  C58 UNL     1      10.993   1.769   0.674+12.17 +0.00    +0.012 C 
ATOM     59  C59 UNL     1       7.897   4.949   2.909 -0.11 +0.00    +0.218 C 
ATOM     60  C60 UNL     1       6.539   5.112   3.560 -0.18 +0.00    +0.103 C 
ATOM     61  C61 UNL     1       6.352   4.293   4.833 -0.30 +0.00    +0.009 C 
ATOM     62  C62 UNL     1       6.025   2.806   4.651 +0.81 +0.00    +0.002 C 
ATOM     63  C63 UNL     1       4.823   2.476   3.758 -0.26 +0.00    +0.020 C 
ATOM     64  C64 UNL     1       3.481   3.042   4.237 -0.14 +0.00    +0.135 C 
ATOM     65  C65 UNL     1       3.014   3.207   6.675 -0.28 +0.00    +0.228 C 
ATOM     66  C66 UNL     1       2.412   2.354   7.752 -0.36 +0.00    +0.128 C 
ATOM     67  C67 UNL     1       2.374   0.961   7.144 +2.54 +0.00    +0.153 C 
ATOM     68  C68 UNL     1       2.606   1.214   5.672 -0.11 +0.00    +0.241 C 
ATOM     69  C69 UNL     1       2.989  -0.652   9.287+99.99 -0.00    -0.018 C 
ATOM     70  C70 UNL     1       3.444  -0.060  10.409 +6.00 +0.00    +0.014 C 
ATOM     71  C71 UNL     1       3.105  -0.168  11.811+99.99+99.99    +0.001 C 
ATOM     72  C72 UNL     1       2.805  -1.194  12.621+99.99+99.99    +0.000 C 
ATOM     73  C73 UNL     1       2.584  -2.595  12.354+99.99+99.99    +0.000 C 
ATOM     74  C74 UNL     1       1.504  -3.100  11.738+99.99+99.99    -0.000 C 
ATOM     75  C75 UNL     1       0.491  -2.295  11.097+99.99+99.99    -0.004 C 
ATOM     76  C76 UNL     1       0.724  -1.629   9.956+99.99+99.99    -0.022 C 
ATOM     77  C77 UNL     1       1.982  -1.772   9.146+99.99+99.99    +0.073 C 
ATOM     78  O1  UNL     1      25.344   7.282   0.736 -0.23 -0.00    -0.273 OA
ATOM     79  O2  UNL     1      28.427  12.901  -2.635 +7.48 -0.00    -0.273 OA
ATOM     80  O3  UNL     1      32.966  11.207  -1.147+99.99+99.99    -0.389 OA
ATOM     81  O4  UNL     1      29.482   8.976  -1.673 +1.49 -0.00    -0.388 OA
ATOM     82  O5  UNL     1      26.184   6.742  -2.912 +9.95 -0.00    -0.388 OA
ATOM     83  O6  UNL     1      20.824   5.795  -2.779+99.99 -0.00    -0.271 OA
ATOM     84  O7  UNL     1      21.544   9.156  -1.521+27.53 -0.00    -0.271 OA
ATOM     85  O8  UNL     1      17.994   6.781  -1.604+50.32 -0.00    -0.238 OA
ATOM     86  O9  UNL     1      17.106   7.252  -3.647 -0.54 -0.00    -0.299 OA
ATOM     87  O10 UNL     1       9.879   6.676  -3.343 -0.17 -0.00    -0.271 OA
ATOM     88  O11 UNL     1       3.953   4.826  -0.931 -0.22 -0.00    -0.254 OA
ATOM     89  O12 UNL     1       8.508   3.359  -0.752 -0.06 -0.00    -0.271 OA
ATOM     90  O13 UNL     1       8.712   5.866   2.841 -0.12 -0.00    -0.274 OA
ATOM     91  O14 UNL     1       3.345   4.372   6.833 -0.23 -0.00    -0.273 OA
ATOM     92  O15 UNL     1       2.427   0.396   4.780 -0.17 -0.00    -0.272 OA
ATOM     93  N1  UNL     1      26.826   8.907   0.147 +0.21 -0.00    -0.345 N 
ATOM     94  N2  UNL     1      30.276  11.630  -2.199+99.99 -0.00    -0.354 N 
ATOM     95  N3  UNL     1      23.016   5.296  -2.300+99.99 -0.00    -0.347 N 
ATOM     96  N4  UNL     1      20.381   7.393  -0.650+99.99 -0.00    -0.346 N 
ATOM     97  N5  UNL     1      18.323   8.851  -2.555+38.83 -0.00    -0.319 N 
ATOM     98  N6  UNL     1      11.244   5.918  -1.613 -0.15 -0.00    -0.325 N 
ATOM     99  N7  UNL     1       6.046   5.474  -0.235 -0.05 -0.00    -0.348 N 
ATOM    100  N8  UNL     1       5.534   3.296  -0.393 -0.04 -0.00    -0.254 NA
ATOM    101  N9  UNL     1       9.196   5.412   0.006 -0.03 -0.00    -0.346 N 
ATOM    102  N10 UNL     1       8.129   3.729   2.321 -0.05 -0.00    -0.347 N 
ATOM    103  N11 UNL     1       3.063   2.494   5.514 -0.15 -0.00    -0.287 N 
ATOM    104  S1  UNL     1       3.722  -0.110   7.768+99.99 -0.00    -0.119 SA
ATOM    105  HA7 UNL     1      33.627  11.058  -0.448+99.99+99.99    +0.210 HD
ATOM    106  HA8 UNL     1      30.671  10.690  -2.213 +1.21 +0.00    +0.163 HD
ATOM    107  HA9 UNL     1      19.501   6.914  -0.852+99.99 +0.00    +0.163 HD
ATOM    108  HB0 UNL     1      11.173   5.592  -0.658 +0.08 +0.00    +0.169 HD
ATOM    109  HB1 UNL     1       6.742   5.133   0.408 +0.05 +0.00    +0.163 HD
ATOM    110  HB2 UNL     1       4.883   2.621  -0.777 +0.03 +0.00    +0.128 HD
ATOM    111  HB3 UNL     1       6.483   3.153  -0.738 +0.04 +0.00    +0.128 HD
ATOM    112  HB4 UNL     1       9.349   5.948   0.864 +0.08 +0.00    +0.163 HD
ATOM    113  HB5 UNL     1       7.332   3.129   2.130 +0.07 +0.00    +0.163 HD
ENDROOT
TORSDOF 42
TER
