USER    Run = 1
USER    DPF = ligand_387_receptor.dpf
USER  
USER    Estimated Free Energy of Binding    =  +1.02e+004 kcal/mol  [=(1)+(2)+(3)-(4)]
USER    
USER    (1) Final Intermolecular Energy     =  +1.02e+004 kcal/mol
USER        vdW + Hbond + desolv Energy     =  +1.02e+004 kcal/mol
USER        Electrostatic Energy            =   +0.00 kcal/mol
USER    (2) Final Total Internal Energy     =   +0.00 kcal/mol
USER    (3) Torsional Free Energy           =   +1.19 kcal/mol
USER    (4) Unbound System's Energy  [=(2)] =   +0.00 kcal/mol
USER    
USER    
USER    NEWDPF move ligand_387.pdbqt
USER    NEWDPF about 0.000000 0.000000 0.000000
USER    NEWDPF tran0 18.913505 6.697005 2.032868
USER    NEWDPF quaternion0 -0.024272 0.116894 0.991674 -0.048262
USER    NEWDPF axisangle0 -0.024301 0.117030 0.992831 -174.467477
USER    NEWDPF quat0 -0.024301 0.117030 0.992831 -174.467477
USER  keepresnum = 1 
USER  
REMARK  0 active torsions:
REMARK  status: ('A' for Active; 'I' for Inactive)
REMARK       I    between atoms: C2_2  and  C3_3 
REMARK       I    between atoms: C3_3  and  C5_5 
REMARK       I    between atoms: C5_5  and  C6_6 
REMARK       I    between atoms: C5_5  and  N7_83 
REMARK       I    between atoms: C6_6  and  N1_77 
REMARK       I    between atoms: C7_7  and  C8_8 
REMARK       I    between atoms: C7_7  and  C10_10 
REMARK       I    between atoms: C7_7  and  N1_77 
REMARK       I    between atoms: C8_8  and  C9_9 
REMARK       I    between atoms: C9_9  and  O3_59 
REMARK       I    between atoms: C10_10  and  N2_78 
REMARK       I    between atoms: C11_11  and  C12_12 
REMARK       I    between atoms: C11_11  and  C14_14 
REMARK       I    between atoms: C11_11  and  N2_78 
REMARK       I    between atoms: C12_12  and  C13_13 
REMARK       I    between atoms: C13_13  and  O6_62 
REMARK       I    between atoms: C14_14  and  N3_79 
REMARK       I    between atoms: C15_15  and  C16_16 
REMARK       I    between atoms: C15_15  and  C19_19 
REMARK       I    between atoms: C15_15  and  N3_79 
REMARK       I    between atoms: C19_19  and  N4_80 
REMARK       I    between atoms: C20_20  and  C21_21 
REMARK       I    between atoms: C20_20  and  C25_25 
REMARK       I    between atoms: C20_20  and  N4_80 
REMARK       I    between atoms: C21_21  and  C22_22 
REMARK       I    between atoms: C25_25  and  N5_81 
REMARK       I    between atoms: C26_26  and  C27_27 
REMARK       I    between atoms: C26_26  and  C31_31 
REMARK       I    between atoms: C26_26  and  N5_81 
REMARK       I    between atoms: C27_27  and  C28_28 
REMARK       I    between atoms: C28_28  and  C29_29 
REMARK       I    between atoms: C29_29  and  C30_30 
REMARK       I    between atoms: C30_30  and  N6_82 
REMARK       I    between atoms: C31_31  and  O11_67 
REMARK       I    between atoms: C32_32  and  C33_33 
REMARK       I    between atoms: C32_32  and  N7_83 
REMARK       I    between atoms: C33_33  and  C34_34 
REMARK       I    between atoms: C33_33  and  N11_88 
REMARK       I    between atoms: C34_34  and  C35_35 
REMARK       I    between atoms: C35_35  and  C36_36 
REMARK       I    between atoms: C36_36  and  N8_84 
REMARK       I    between atoms: C37_37  and  N9_86 
REMARK       I    between atoms: C37_37  and  N10_87 
REMARK       I    between atoms: C38_38  and  C39_39 
REMARK       I    between atoms: C38_38  and  N11_88 
REMARK       I    between atoms: C39_39  and  C40_40 
REMARK       I    between atoms: C39_39  and  N12_89 
REMARK       I    between atoms: C40_40  and  C41_41 
REMARK       I    between atoms: C41_41  and  O15_71 
REMARK       I    between atoms: C42_42  and  C43_43 
REMARK       I    between atoms: C42_42  and  N12_89 
REMARK       I    between atoms: C43_43  and  C44_44 
REMARK       I    between atoms: C43_43  and  N13_90 
REMARK       I    between atoms: C44_44  and  C45_45 
REMARK       I    between atoms: C45_45  and  O18_74 
REMARK       I    between atoms: C46_46  and  C47_47 
REMARK       I    between atoms: C46_46  and  N13_90 
REMARK       I    between atoms: C47_47  and  C48_48 
REMARK       I    between atoms: C47_47  and  N14_91 
REMARK       I    between atoms: C48_48  and  C50_50 
REMARK       I    between atoms: C52_52  and  C53_53 
REMARK       I    between atoms: C52_52  and  N14_91 
REMARK       I    between atoms: C53_53  and  C54_54 
REMARK       I    between atoms: C53_53  and  N15_92 
USER                              x       y       z     vdW  Elec       q    Type
USER                           _______ _______ _______ _____ _____    ______ ____
ROOT
ATOM      1  C1  UNL     1      22.099   9.206   9.005 +1.30 +0.00    +0.005 C 
ATOM      2  C2  UNL     1      20.620   9.350   8.673 +0.45 +0.00    +0.002 C 
ATOM      3  C3  UNL     1      19.994   8.158   7.906+99.99 +0.00    +0.013 C 
ATOM      4  C4  UNL     1      20.103   6.883   8.757+13.26 +0.00    +0.012 C 
ATOM      5  C5  UNL     1      20.581   7.944   6.484+99.99 +0.00    +0.180 C 
ATOM      6  C6  UNL     1      19.678   7.041   5.599+42.29 +0.00    +0.241 C 
ATOM      7  C7  UNL     1      19.068   6.542   3.241+20.16 +0.00    +0.186 C 
ATOM      8  C8  UNL     1      18.681   5.079   3.460+88.56 +0.00    +0.144 C 
ATOM      9  C9  UNL     1      18.730   4.323   2.166+99.99 +0.00    +0.141 C 
ATOM     10  C10 UNL     1      17.842   7.497   3.173 -0.32 +0.00    +0.241 C 
ATOM     11  C11 UNL     1      15.726   7.997   1.965 +2.13 +0.00    +0.186 C 
ATOM     12  C12 UNL     1      16.044   9.332   1.295 -0.28 +0.00    +0.144 C 
ATOM     13  C13 UNL     1      16.521   9.153  -0.118 -0.36 +0.00    +0.141 C 
ATOM     14  C14 UNL     1      14.714   7.180   1.132+99.99 +0.00    +0.241 C 
ATOM     15  C15 UNL     1      12.291   7.020   0.523 +0.15 +0.00    +0.180 C 
ATOM     16  C16 UNL     1      12.489   6.389  -0.883 -0.50 +0.00    +0.009 C 
ATOM     17  C17 UNL     1      11.178   5.905  -1.518 -0.35 +0.00    +0.012 C 
ATOM     18  C18 UNL     1      13.128   7.390  -1.860+54.53 +0.00    +0.012 C 
ATOM     19  C19 UNL     1      11.831   6.061   1.663 -0.00 +0.00    +0.241 C 
ATOM     20  C20 UNL     1       9.970   4.710   2.588 +0.85 +0.00    +0.177 C 
ATOM     21  C21 UNL     1       9.366   5.574   3.710 -0.26 +0.00    +0.038 C 
ATOM     22  C22 UNL     1       8.176   6.483   3.325 -0.29 -0.00    -0.020 C 
ATOM     23  C23 UNL     1       7.426   6.899   4.597 +5.21 +0.00    +0.009 C 
ATOM     24  C24 UNL     1       8.602   7.745   2.571 -0.41 +0.00    +0.009 C 
ATOM     25  C25 UNL     1       8.965   3.685   2.017 +0.01 +0.00    +0.241 C 
ATOM     26  C26 UNL     1       8.608   2.081   0.139 -0.13 +0.00    +0.182 C 
ATOM     27  C27 UNL     1       7.374   2.645  -0.578 -0.10 +0.00    +0.036 C 
ATOM     28  C28 UNL     1       6.407   1.553  -1.047 -0.14 +0.00    +0.004 C 
ATOM     29  C29 UNL     1       5.149   2.109  -1.723 -0.09 +0.00    +0.030 C 
ATOM     30  C30 UNL     1       4.200   2.810  -0.749 -0.06 +0.00    +0.267 C 
ATOM     31  C31 UNL     1       9.578   1.431  -0.846 -0.18 +0.00    +0.163 C 
ATOM     32  C32 UNL     1      21.975   9.627   5.282 +5.70 +0.00    +0.241 C 
ATOM     33  C33 UNL     1      22.027  11.041   4.640+17.12 +0.00    +0.176 C 
ATOM     34  C34 UNL     1      20.896  11.475   3.705+99.99 +0.00    +0.036 C 
ATOM     35  C35 UNL     1      20.385  10.534   2.608 -0.27 +0.00    +0.022 C 
ATOM     36  C36 UNL     1      21.434   9.779   1.800 -0.39 +0.00    +0.121 C 
ATOM     37  C37 UNL     1      22.746   7.847   2.121 +0.27 +0.00    +0.121 C 
ATOM     38  C38 UNL     1      24.395  11.674   4.691+30.67 +0.00    +0.241 C 
ATOM     39  C39 UNL     1      25.757  11.055   4.343+99.99 +0.00    +0.186 C 
ATOM     40  C40 UNL     1      26.371  11.754   3.131+99.99 +0.00    +0.144 C 
ATOM     41  C41 UNL     1      25.760  11.389   1.806+11.49 +0.00    +0.141 C 
ATOM     42  C42 UNL     1      26.674   8.761   4.052+15.48 +0.00    +0.241 C 
ATOM     43  C43 UNL     1      26.339   7.261   4.153 +0.88 +0.00    +0.186 C 
ATOM     44  C44 UNL     1      26.332   6.815   5.610 +9.09 +0.00    +0.144 C 
ATOM     45  C45 UNL     1      27.668   7.050   6.254+84.23 +0.00    +0.141 C 
ATOM     46  C46 UNL     1      27.087   6.366   1.975+12.30 +0.00    +0.241 C 
ATOM     47  C47 UNL     1      28.297   5.786   1.205 +2.58 +0.00    +0.180 C 
ATOM     48  C48 UNL     1      29.483   6.781   1.116 -0.33 +0.00    +0.013 C 
ATOM     49  C49 UNL     1      30.789   5.995   0.916 -0.24 +0.00    +0.012 C 
ATOM     50  C50 UNL     1      29.388   7.859   0.012 -0.32 +0.00    +0.002 C 
ATOM     51  C51 UNL     1      28.210   8.810   0.139 +0.26 +0.00    +0.005 C 
ATOM     52  C52 UNL     1      27.405   4.033  -0.309 -0.18 +0.00    +0.251 C 
ATOM     53  C53 UNL     1      26.626   3.877  -1.653 -0.22 +0.00    +0.312 C 
ATOM     54  C54 UNL     1      26.631   2.412  -2.165 +0.17 +0.00    +0.020 C 
ATOM     55  C55 UNL     1      25.686   1.530  -1.332+99.99 +0.00    +0.012 C 
ATOM     56  C56 UNL     1      26.215   2.282  -3.637 -0.38 +0.00    +0.012 C 
ATOM     57  O1  UNL     1      18.809   6.298   6.048+99.99 -0.00    -0.271 OA
ATOM     58  O2  UNL     1      19.427   3.354   1.920+99.99 -0.00    -0.650 OA
ATOM     59  O3  UNL     1      17.877   4.807   1.244+99.99 -0.00    -0.776 OA
ATOM     60  O4  UNL     1      17.725   8.502   3.877 -0.40 -0.00    -0.271 OA
ATOM     61  O5  UNL     1      17.440   8.450  -0.500 +0.22 -0.00    -0.650 OA
ATOM     62  O6  UNL     1      15.827   9.904  -0.995+61.80 -0.00    -0.776 OA
ATOM     63  O7  UNL     1      15.022   6.129   0.574+99.99 -0.00    -0.271 OA
ATOM     64  O8  UNL     1      12.496   5.878   2.685 +0.36 -0.00    -0.271 OA
ATOM     65  O9  UNL     1       7.972   3.292   2.619 -0.15 -0.00    -0.271 OA
ATOM     66  O10 UNL     1      10.523   1.988  -1.388 +0.02 -0.00    -0.648 OA
ATOM     67  O11 UNL     1       9.312   0.135  -1.090 +0.15 -0.00    -0.775 OA
ATOM     68  O12 UNL     1      23.000   8.949   5.423 +0.98 -0.00    -0.271 OA
ATOM     69  O13 UNL     1      24.279  12.614   5.474+99.99 -0.00    -0.271 OA
ATOM     70  O14 UNL     1      24.859  10.600   1.575 +0.31 -0.00    -0.650 OA
ATOM     71  O15 UNL     1      26.341  12.068   0.795+10.82 -0.00    -0.776 OA
ATOM     72  O16 UNL     1      27.812   9.174   3.841+21.72 -0.00    -0.271 OA
ATOM     73  O17 UNL     1      28.746   6.670   5.827+99.99 -0.00    -0.650 OA
ATOM     74  O18 UNL     1      27.583   7.739   7.404+99.99 -0.00    -0.776 OA
ATOM     75  O19 UNL     1      26.031   6.688   1.427 -0.24 -0.00    -0.271 OA
ATOM     76  O20 UNL     1      27.568   3.134   0.508 -0.44 -0.00    -0.271 OA
ATOM     77  N1  UNL     1      20.000   7.054   4.253 +5.69 -0.00    -0.345 N 
ATOM     78  N2  UNL     1      16.910   7.186   2.216 +0.84 -0.00    -0.345 N 
ATOM     79  N3  UNL     1      13.457   7.758   1.043+11.82 -0.00    -0.346 N 
ATOM     80  N4  UNL     1      10.587   5.489   1.513 +0.10 -0.00    -0.346 N 
ATOM     81  N5  UNL     1       9.350   3.155   0.804 +0.16 -0.00    -0.345 N 
ATOM     82  N6  UNL     1       2.990   3.232  -1.448 -0.11 +0.00    +0.078 N 
ATOM     83  N7  UNL     1      20.758   9.226   5.780+35.85 -0.00    -0.346 N 
ATOM     84  N8  UNL     1      21.771   8.566   2.539 +0.05 -0.00    -0.372 N 
ATOM     85  H8  UNL     1      21.244   8.298   3.369 +0.11 +0.00    +0.161 HD
ATOM     86  N9  UNL     1      22.998   6.660   2.713+45.67 -0.00    -0.279 NA
ATOM     87  N10 UNL     1      23.624   8.076   1.124 -0.22 -0.00    -0.279 NA
ATOM     88  N11 UNL     1      23.331  11.143   3.988 +0.05 -0.00    -0.346 N 
ATOM     89  N12 UNL     1      25.605   9.600   4.254+23.18 -0.00    -0.345 N 
ATOM     90  N13 UNL     1      27.285   6.508   3.334+99.99 -0.00    -0.345 N 
ATOM     91  N14 UNL     1      27.859   5.321  -0.102 -0.09 -0.00    -0.346 N 
ATOM     92  N15 UNL     1      27.197   4.845  -2.627 +0.52 +0.00    +0.092 N 
ATOM     93  H75 UNL     1      17.950   4.198   0.477+68.91 +0.00    +0.167 HD
ATOM     94  H76 UNL     1      16.242   9.697  -1.860 +4.84 +0.00    +0.167 HD
ATOM     95  H77 UNL     1      10.013  -0.151  -1.715 +0.11 +0.00    +0.167 HD
ATOM     96  H78 UNL     1      25.898  11.747  -0.018+99.99 +0.00    +0.167 HD
ATOM     97  H79 UNL     1      28.511   7.834   7.707 +3.94 +0.00    +0.167 HD
ATOM     98  H80 UNL     1      20.604   7.816   3.935 +0.22 +0.00    +0.163 HD
ATOM     99  H81 UNL     1      17.048   6.375   1.606 -0.07 +0.00    +0.163 HD
ATOM    100  H82 UNL     1      13.237   8.391   1.803 +3.96 +0.00    +0.163 HD
ATOM    101  H83 UNL     1       9.975   5.816   0.778 +0.07 +0.00    +0.163 HD
ATOM    102  H84 UNL     1      10.277   3.384   0.452 -0.47 +0.00    +0.163 HD
ATOM    103  H85 UNL     1       3.228   3.908  -2.171 +0.01 +0.00    +0.312 HD
ATOM    104  H86 UNL     1       2.375   3.715  -0.794 +0.04 +0.00    +0.312 HD
ATOM    105  H87 UNL     1      19.913   9.715   5.506+99.99 +0.00    +0.163 HD
ATOM    106  H88 UNL     1      22.230   6.342   3.294 +4.02 +0.00    +0.126 HD
ATOM    107  H89 UNL     1      23.306   5.942   2.066 +0.17 +0.00    +0.126 HD
ATOM    108  H90 UNL     1      23.849   9.062   0.996 +0.10 +0.00    +0.126 HD
ATOM    109  H91 UNL     1      24.509   7.571   1.242 +0.10 +0.00    +0.126 HD
ATOM    110  H92 UNL     1      23.566  10.354   3.387 +0.13 +0.00    +0.163 HD
ATOM    111  H93 UNL     1      24.757   9.196   4.665 +0.10 +0.00    +0.163 HD
ATOM    112  H94 UNL     1      28.244   6.486   3.677+13.82 +0.00    +0.163 HD
ATOM    113  H95 UNL     1      27.480   5.995  -0.764 +0.09 +0.00    +0.163 HD
ATOM    114  H96 UNL     1      26.651   4.817  -3.487 +2.39 +0.00    +0.313 HD
ATOM    115  H97 UNL     1      28.136   4.528  -2.875 +0.14 +0.00    +0.313 HD
ENDROOT
TORSDOF 52
TER
