USER    Run = 1
USER    DPF = ligand_456_receptor.dpf
USER  
USER    Estimated Free Energy of Binding    =  -14.03 kcal/mol  [=(1)+(2)+(3)-(4)]
USER    Estimated Inhibition Constant, Ki   =   51.74 pM (picomolar)  [Temperature = 298.15 K]
USER    
USER    (1) Final Intermolecular Energy     =  -15.23 kcal/mol
USER        vdW + Hbond + desolv Energy     =  -15.23 kcal/mol
USER        Electrostatic Energy            =   +0.00 kcal/mol
USER    (2) Final Total Internal Energy     =   -1.71 kcal/mol
USER    (3) Torsional Free Energy           =   +1.19 kcal/mol
USER    (4) Unbound System's Energy  [=(2)] =   -1.71 kcal/mol
USER    
USER    
USER    NEWDPF move ligand_456.pdbqt
USER    NEWDPF about 0.000000 0.000000 0.000000
USER    NEWDPF tran0 13.212423 9.547870 3.461184
USER    NEWDPF quaternion0 -0.456416 -0.475893 -0.192985 0.726614
USER    NEWDPF axisangle0 -0.664316 -0.692665 -0.280890 86.793481
USER    NEWDPF quat0 -0.664316 -0.692665 -0.280890 86.793481
USER    NEWDPF dihe0 180.00 92.31 161.63 126.28 -5.44 -25.26 -3.89 129.67 129.85 163.89 145.09 
USER  keepresnum = 1 
USER  
REMARK  11 active torsions:
REMARK  status: ('A' for Active; 'I' for Inactive)
REMARK    1  A    between atoms: C5_5  and  C6_6 
REMARK       I    between atoms: C6_6  and  N1_33 
REMARK    2  A    between atoms: C7_7  and  N1_33 
REMARK    3  A    between atoms: C10_10  and  C11_11 
REMARK    4  A    between atoms: C11_11  and  N2_34 
REMARK    5  A    between atoms: C14_14  and  C15_15 
REMARK    6  A    between atoms: C14_14  and  N3_35 
REMARK    7  A    between atoms: C15_15  and  O2_31 
REMARK    8  A    between atoms: C18_18  and  C19_19 
REMARK    9  A    between atoms: C22_22  and  C23_23 
REMARK   10  A    between atoms: C24_24  and  C25_25 
REMARK   11  A    between atoms: C27_27  and  C28_28 
REMARK       I    between atoms: C28_28  and  N5_38 
USER                              x       y       z     vdW  Elec       q    Type
USER                           _______ _______ _______ _____ _____    ______ ____
ROOT
ATOM      1  C6  UNL     1      16.209   8.609   3.848 -0.39 +0.00    +0.256 C 
ATOM      2  O1  UNL     1      16.613   8.131   4.901 -0.02 -0.00    -0.267 OA
ATOM      3  N1  UNL     1      14.922   8.543   3.346 -0.24 -0.00    -0.323 N 
ATOM      4  H29 UNL     1      14.782   8.871   2.399 -0.42 +0.00    +0.169 HD
ENDROOT
BRANCH   1   5
ATOM      5  C5  UNL     1      17.190   9.305   2.970 -0.48 +0.00    +0.033 A 
ATOM      6  C4  UNL     1      16.707  10.165   1.980 -0.47 +0.00    +0.017 A 
ATOM      7  C3  UNL     1      17.597  10.836   1.138 -0.51 +0.00    +0.009 A 
ATOM      8  C2  UNL     1      18.981  10.651   1.267 -0.48 -0.00    -0.043 A 
ATOM      9  C1  UNL     1      19.914  11.383   0.340 -0.66 +0.00    +0.049 C 
ATOM     10  C22 UNL     1      19.462   9.767   2.251 -0.37 +0.00    +0.025 A 
ATOM     11  C21 UNL     1      18.568   9.095   3.095 -0.44 +0.00    +0.038 A 
BRANCH  10  12
ATOM     12  C23 UNL     1      20.865   9.524   2.414 -0.40 -0.00    -0.059 C 
ATOM     13  C24 UNL     1      22.040   9.319   2.553 -0.49 -0.00    -0.042 C 
BRANCH  13  14
ATOM     14  C25 UNL     1      23.429   9.075   2.721 -0.41 +0.00    +0.106 A 
ATOM     15  C26 UNL     1      24.172   9.197   3.871 -0.48 +0.00    +0.129 A 
ATOM     16  N4  UNL     1      25.487   8.876   3.644 -0.31 -0.00    -0.345 N 
ATOM     17  C27 UNL     1      25.560   8.554   2.360 -0.39 +0.00    +0.177 A 
ATOM     18  H4  UNL     1      26.249   8.884   4.322 -0.40 +0.00    +0.167 HD
ATOM     19  N6  UNL     1      24.320   8.663   1.764 -0.18 -0.00    -0.325 N 
ATOM     20  C29 UNL     1      24.036   8.386   0.375 -0.39 +0.00    +0.159 C 
BRANCH  17  21
ATOM     21  C28 UNL     1      26.798   8.147   1.716 -0.33 +0.00    +0.283 C 
ATOM     22  O3  UNL     1      26.901   7.749   0.560 -0.26 -0.00    -0.265 OA
ATOM     23  N5  UNL     1      27.897   8.240   2.523 -0.23 -0.00    -0.363 N 
ATOM     24  H30 UNL     1      27.781   8.570   3.474 -0.44 +0.00    +0.159 HD
ATOM     25  H31 UNL     1      28.804   7.979   2.169 +0.06 +0.00    +0.159 HD
ENDBRANCH  17  21
ENDBRANCH  13  14
ENDBRANCH  10  12
ENDBRANCH   1   5
BRANCH   3  26
ATOM     26  C7  UNL     1      13.787   7.984   3.971 -0.45 +0.00    +0.035 A 
ATOM     27  C8  UNL     1      12.487   8.436   3.772 -0.27 +0.00    +0.030 A 
ATOM     28  C9  UNL     1      11.414   7.815   4.421 -0.40 +0.00    +0.012 A 
ATOM     29  C10 UNL     1      11.616   6.726   5.286 -0.34 -0.00    -0.015 A 
ATOM     30  C18 UNL     1      12.932   6.267   5.508 -0.38 +0.00    +0.058 A 
ATOM     31  C20 UNL     1      13.997   6.900   4.832 -0.42 +0.00    +0.046 A 
BRANCH  29  32
ATOM     32  C11 UNL     1      10.405   6.090   5.948 -0.15 +0.00    +0.311 C 
BRANCH  32  33
ATOM     33  N2  UNL     1      10.228   4.689   5.538 -0.27 +0.00    +0.096 N 
ATOM     34  C12 UNL     1       9.913   3.839   6.699 -0.31 +0.00    +0.303 C 
ATOM     35  C13 UNL     1       8.524   4.094   7.348 -0.37 +0.00    +0.302 C 
ATOM     36  N3  UNL     1       7.516   4.675   6.432 -0.35 +0.00    +0.093 N 
ATOM     37  C16 UNL     1       7.747   4.183   5.063 -0.19 +0.00    +0.302 C 
ATOM     38  C17 UNL     1       9.160   4.536   4.523 -0.17 +0.00    +0.303 C 
BRANCH  36  39
ATOM     39  C14 UNL     1       6.134   4.395   6.872 -0.32 +0.00    +0.298 C 
BRANCH  39  40
ATOM     40  C15 UNL     1       5.271   3.844   5.726 -0.27 +0.00    +0.194 C 
BRANCH  40  41
ATOM     41  O2  UNL     1       4.365   2.865   6.231 -0.75 -0.00    -0.399 OA
ATOM     42  H28 UNL     1       3.565   2.956   5.675 +0.08 +0.00    +0.209 HD
ENDBRANCH  40  41
ENDBRANCH  39  40
ENDBRANCH  36  39
ENDBRANCH  32  33
ENDBRANCH  29  32
BRANCH  30  43
ATOM     43  C19 UNL     1      13.251   5.100   6.421 -0.25 +0.00    +0.418 C 
ATOM     44  F1  UNL     1      12.367   5.013   7.465 -0.13 -0.00    -0.166 F 
ATOM     45  F2  UNL     1      13.185   3.878   5.820 -0.18 -0.00    -0.166 F 
ATOM     46  F3  UNL     1      14.475   5.188   7.010 -0.20 -0.00    -0.166 F 
ENDBRANCH  30  43
ENDBRANCH   3  26
TORSDOF 11
TER
