USER    Run = 1
USER    DPF = ligand_122_receptor.dpf
USER  
USER    Estimated Free Energy of Binding    =  +1.41e+003 kcal/mol  [=(1)+(2)+(3)-(4)]
USER    
USER    (1) Final Intermolecular Energy     =  +1.41e+003 kcal/mol
USER        vdW + Hbond + desolv Energy     =  +1.41e+003 kcal/mol
USER        Electrostatic Energy            =   +0.00 kcal/mol
USER    (2) Final Total Internal Energy     =   +4.19 kcal/mol
USER    (3) Torsional Free Energy           =   +1.19 kcal/mol
USER    (4) Unbound System's Energy  [=(2)] =   +4.19 kcal/mol
USER    
USER    
USER    NEWDPF move ligand_122.pdbqt
USER    NEWDPF about 0.000000 0.000000 0.000000
USER    NEWDPF tran0 19.985914 8.242473 0.822977
USER    NEWDPF quaternion0 -0.176799 -0.699281 0.690234 -0.057668
USER    NEWDPF axisangle0 -0.177094 -0.700447 0.691384 -173.388088
USER    NEWDPF quat0 -0.177094 -0.700447 0.691384 -173.388088
USER    NEWDPF dihe0 180.00 -25.24 98.74 105.82 177.06 125.02 8.72 -112.43 180.00 -179.10 144.96 19.75 17.36 162.11 169.12 164.82 -9.02 180.00 -135.51 -49.29 
USER  keepresnum = 1 
USER  
REMARK  20 active torsions:
REMARK  status: ('A' for Active; 'I' for Inactive)
REMARK    1  A    between atoms: C2_2  and  C3_3 
REMARK    2  A    between atoms: C3_3  and  C5_5 
REMARK    3  A    between atoms: C19_19  and  C48_48 
REMARK    4  A    between atoms: C25_25  and  C27_27 
REMARK    5  A    between atoms: C27_27  and  C28_28 
REMARK       I    between atoms: C28_28  and  N8_80 
REMARK    6  A    between atoms: C29_29  and  C30_30 
REMARK    7  A    between atoms: C29_29  and  N8_80 
REMARK    8  A    between atoms: C33_33  and  N9_81 
REMARK    9  A    between atoms: C36_36  and  C37_37 
REMARK       I    between atoms: C36_36  and  N9_81 
REMARK   10  A    between atoms: C37_37  and  N10_82 
REMARK   11  A    between atoms: C39_39  and  C40_40 
REMARK       I    between atoms: C39_39  and  N10_82 
REMARK   12  A    between atoms: C40_40  and  N11_83 
REMARK   13  A    between atoms: C41_41  and  C42_42 
REMARK       I    between atoms: C41_41  and  N11_83 
REMARK   14  A    between atoms: C42_42  and  C43_43 
REMARK   15  A    between atoms: C43_43  and  N12_84 
REMARK   16  A    between atoms: C46_46  and  S2_87 
REMARK   17  A    between atoms: C48_48  and  C50_50 
REMARK   18  A    between atoms: C50_50  and  C51_51 
REMARK   19  A    between atoms: C50_50  and  O15_72 
REMARK   20  A    between atoms: C51_51  and  O14_71 
USER                              x       y       z     vdW  Elec       q    Type
USER                           _______ _______ _______ _____ _____    ______ ____
ROOT
ATOM      1  C5  UNL     1      29.219   6.998  -0.177 -0.19 +0.00    +0.180 C 
ATOM      2  C6  UNL     1      28.060   7.763  -0.885 -0.14 +0.00    +0.241 C 
ATOM      3  C7  UNL     1      26.473   9.640  -0.704+99.99 +0.00    +0.225 C 
ATOM      4  C8  UNL     1      25.068   9.100  -0.426+12.00 +0.00    +0.236 C 
ATOM      5  C9  UNL     1      22.950   8.339  -1.512 +8.50 +0.00    +0.186 C 
ATOM      6  C10 UNL     1      22.511   7.315  -0.452 +0.19 +0.00    +0.116 C 
ATOM      7  C11 UNL     1      23.008   5.008   0.875 -0.02 +0.00    +0.077 A 
ATOM      8  C12 UNL     1      23.741   5.105   2.040 +7.30 -0.00    -0.010 A 
ATOM      9  C13 UNL     1      25.050   5.815   2.199 +1.33 +0.00    +0.077 C 
ATOM     10  C14 UNL     1      25.134   6.864   3.315 +7.04 +0.00    +0.180 C 
ATOM     11  C15 UNL     1      26.556   7.469   3.246 +0.14 +0.00    +0.241 C 
ATOM     12  C16 UNL     1      28.944   7.110   3.666+44.62 +0.00    +0.225 C 
ATOM     13  C17 UNL     1      29.568   7.333   2.276 -0.23 +0.00    +0.236 C 
ATOM     14  C18 UNL     1      23.688   8.592   4.284 +0.29 +0.00    +0.223 C 
ATOM     15  C19 UNL     1      23.138  10.010   4.042 -0.61 +0.00    +0.085 C 
ATOM     16  C20 UNL     1      21.970   9.998   3.018 -0.43 +0.00    +0.034 C 
ATOM     17  C21 UNL     1      21.534  11.418   2.657+13.75 +0.00    +0.067 C 
ATOM     18  C22 UNL     1      20.343  12.049   3.389+99.99 +0.00    +0.035 C 
ATOM     19  C23 UNL     1      19.936  12.645   2.045 -0.36 +0.00    +0.100 C 
ATOM     20  C24 UNL     1      20.061  10.558   0.739 -0.40 +0.00    +0.223 C 
ATOM     21  C25 UNL     1      20.036  10.752  -0.791+12.63 +0.00    +0.179 C 
ATOM     22  C26 UNL     1      22.182   9.687  -1.395+61.23 +0.00    +0.241 C 
ATOM     23  C52 UNL     1      23.031   4.331   3.022+99.99 -0.00    -0.000 A 
ATOM     24  C53 UNL     1      23.248   4.015   4.381+99.99 +0.00    +0.014 A 
ATOM     25  C54 UNL     1      22.330   3.209   5.063+99.99 +0.00    +0.001 A 
ATOM     26  C55 UNL     1      21.206   2.706   4.415+19.59 +0.00    +0.002 A 
ATOM     27  C56 UNL     1      20.967   2.994   3.069 +3.52 +0.00    +0.030 A 
ATOM     28  C57 UNL     1      21.894   3.805   2.403+11.83 +0.00    +0.043 A 
ATOM     29  O1  UNL     1      27.739   7.575  -2.057 -0.10 -0.00    -0.271 OA
ATOM     30  O2  UNL     1      24.599   9.060   0.711 -0.20 -0.00    -0.272 OA
ATOM     31  O3  UNL     1      26.809   8.567   2.748 -0.46 -0.00    -0.271 OA
ATOM     32  O4  UNL     1      30.654   7.888   2.136 -0.30 -0.00    -0.272 OA
ATOM     33  O5  UNL     1      23.728   8.059   5.390 +2.23 -0.00    -0.273 OA
ATOM     34  O6  UNL     1      19.622   9.537   1.267 +0.04 -0.00    -0.277 OA
ATOM     35  O7  UNL     1      22.750  10.778  -1.463 +3.36 -0.00    -0.271 OA
ATOM     36  N1  UNL     1      27.495   8.780  -0.144 +0.39 -0.00    -0.351 N 
ATOM     37  N2  UNL     1      24.392   8.631  -1.534 +2.48 -0.00    -0.346 N 
ATOM     38  N3  UNL     1      27.572   6.612   3.638+99.99 -0.00    -0.351 N 
ATOM     39  N4  UNL     1      28.852   6.803   1.225 -0.11 -0.00    -0.346 N 
ATOM     40  N5  UNL     1      24.191   7.966   3.166 +0.31 -0.00    -0.347 N 
ATOM     41  N6  UNL     1      20.736  11.572   1.402 +0.02 -0.00    -0.247 NA
ATOM     42  N7  UNL     1      20.806   9.597  -1.292+38.82 -0.00    -0.346 N 
ATOM     43  N13 UNL     1      21.912   4.230   1.096+13.52 -0.00    -0.350 N 
ATOM     44  S1  UNL     1      23.259   5.667  -0.708 +0.58 -0.00    -0.109 SA
ATOM     45  H64 UNL     1      27.606   8.778   0.870 +0.09 +0.00    +0.163 HD
ATOM     46  H65 UNL     1      24.806   8.822  -2.438 +6.76 +0.00    +0.163 HD
ATOM     47  H66 UNL     1      27.328   5.918   4.335+19.82 +0.00    +0.163 HD
ATOM     48  H67 UNL     1      27.962   6.372   1.432 +0.11 +0.00    +0.163 HD
ATOM     49  H68 UNL     1      24.343   8.549   2.336 +0.14 +0.00    +0.163 HD
ATOM     50  H69 UNL     1      20.402   8.706  -1.038 +0.20 +0.00    +0.163 HD
ATOM     51  H74 UNL     1      21.223   3.992   0.399 +1.19 +0.00    +0.166 HD
ENDROOT
BRANCH  21  52
ATOM     52  C27 UNL     1      18.605  10.668  -1.309+23.35 +0.00    +0.137 C 
BRANCH  52  53
ATOM     53  C28 UNL     1      17.603  11.119  -0.272 +2.01 +0.00    +0.220 C 
ATOM     54  O8  UNL     1      16.645  10.447   0.088 -0.22 -0.00    -0.274 OA
ATOM     55  N8  UNL     1      17.882  12.366   0.235 +0.46 -0.00    -0.357 N 
ATOM     56  H70 UNL     1      18.789  12.780   0.052 +0.11 +0.00    +0.162 HD
BRANCH  55  57
ATOM     57  C29 UNL     1      17.087  12.934   1.302 -0.10 +0.00    +0.161 C 
BRANCH  57  58
ATOM     58  C30 UNL     1      16.225  11.869   1.919 -0.22 -0.00    -0.040 A 
ATOM     59  C31 UNL     1      16.782  10.923   2.788 -0.47 +0.00    +0.011 A 
ATOM     60  C32 UNL     1      16.009   9.868   3.281 -0.32 +0.00    +0.030 A 
ATOM     61  C33 UNL     1      14.674   9.734   2.900 +1.68 +0.00    +0.034 A 
ATOM     62  C34 UNL     1      14.101  10.704   2.073+33.57 +0.00    +0.030 A 
ATOM     63  C35 UNL     1      14.872  11.758   1.576 +1.98 +0.00    +0.011 A 
BRANCH  61  64
ATOM     64  N9  UNL     1      13.862   8.650   3.280 -0.03 -0.00    -0.325 N 
ATOM     65  C36 UNL     1      12.500   8.682   3.550 +0.15 +0.00    +0.244 C 
ATOM     66  O9  UNL     1      11.804   9.696   3.563 +2.28 -0.00    -0.271 OA
ATOM     67  H71 UNL     1      14.349   7.813   3.613 +0.07 +0.00    +0.169 HD
BRANCH  65  68
ATOM     68  C37 UNL     1      11.958   7.300   3.982 -0.34 +0.00    +0.172 C 
ATOM     69  C38 UNL     1      13.097   6.318   4.219 -0.17 +0.00    +0.042 C 
BRANCH  68  70
ATOM     70  N10 UNL     1      11.065   6.800   2.941 -0.15 -0.00    -0.347 N 
ATOM     71  C39 UNL     1      11.515   6.102   1.844 -0.10 +0.00    +0.236 C 
ATOM     72  O10 UNL     1      12.708   5.856   1.671 +0.11 -0.00    -0.272 OA
ATOM     73  H72 UNL     1      10.066   7.002   3.001 +0.10 +0.00    +0.163 HD
BRANCH  71  74
ATOM     74  C40 UNL     1      10.429   5.709   0.839 -0.11 +0.00    +0.225 C 
BRANCH  74  75
ATOM     75  N11 UNL     1       9.200   5.270   1.479 -0.03 -0.00    -0.352 N 
ATOM     76  C41 UNL     1       8.104   6.086   1.599 -0.15 +0.00    +0.219 C 
ATOM     77  O11 UNL     1       8.112   7.261   1.242 -0.25 -0.00    -0.274 OA
ATOM     78  H73 UNL     1       9.250   4.466   2.108 -0.04 +0.00    +0.162 HD
BRANCH  76  79
ATOM     79  C42 UNL     1       6.901   5.434   2.238 -0.15 +0.00    +0.123 C 
BRANCH  79  80
ATOM     80  C43 UNL     1       5.882   4.998   1.195 -0.15 +0.00    +0.144 C 
BRANCH  80  81
ATOM     81  N12 UNL     1       5.612   3.570   1.054 -0.02 -0.00    -0.287 N 
ATOM     82  C44 UNL     1       6.419   2.654   1.677 -0.11 +0.00    +0.228 C 
ATOM     83  C45 UNL     1       5.835   1.281   1.547 -0.10 +0.00    +0.128 C 
ATOM     84  O12 UNL     1       7.435   2.905   2.310 -0.13 -0.00    -0.273 OA
ATOM     85  C46 UNL     1       4.629   1.487   0.651 -0.14 +0.00    +0.145 C 
ATOM     86  C47 UNL     1       4.484   2.986   0.546 -0.06 +0.00    +0.240 C 
ATOM     87  O13 UNL     1       3.531   3.569   0.043 -0.25 -0.00    -0.272 OA
BRANCH  85  88
ATOM     88  S2  UNL     1       3.133   0.689   1.301 -0.17 -0.00    -0.167 SA
ATOM     89  H75 UNL     1       2.460   1.827   1.536 +0.03 +0.00    +0.102 HD
ENDBRANCH  85  88
ENDBRANCH  80  81
ENDBRANCH  79  80
ENDBRANCH  76  79
ENDBRANCH  74  75
ENDBRANCH  71  74
ENDBRANCH  68  70
ENDBRANCH  65  68
ENDBRANCH  61  64
ENDBRANCH  57  58
ENDBRANCH  55  57
ENDBRANCH  52  53
ENDBRANCH  21  52
BRANCH  15  90
ATOM     90  C48 UNL     1      22.813  10.761   5.381 +2.70 +0.00    +0.025 C 
ATOM     91  C49 UNL     1      22.249  12.170   5.162+45.14 +0.00    +0.013 C 
BRANCH  90  92
ATOM     92  C50 UNL     1      21.934   9.898   6.337 +8.01 +0.00    +0.146 C 
BRANCH  92  93
ATOM     93  C51 UNL     1      21.492  10.613   7.627 +2.10 +0.00    +0.196 C 
BRANCH  93  94
ATOM     94  O14 UNL     1      22.131  10.106   8.791 -0.27 -0.00    -0.398 OA
ATOM     95  H62 UNL     1      22.991   9.742   8.516 +0.61 +0.00    +0.209 HD
ENDBRANCH  93  94
ENDBRANCH  92  93
BRANCH  92  96
ATOM     96  O15 UNL     1      22.667   8.725   6.707 +5.39 -0.00    -0.393 OA
ATOM     97  H63 UNL     1      22.258   8.349   7.506 +0.22 +0.00    +0.210 HD
ENDBRANCH  92  96
ENDBRANCH  90  92
ENDBRANCH  15  90
BRANCH   1  98
ATOM     98  C3  UNL     1      29.559   5.657  -0.889 -0.17 +0.00    +0.013 C 
ATOM     99  C4  UNL     1      30.270   4.707   0.090 -0.18 +0.00    +0.012 C 
BRANCH  98 100
ATOM    100  C2  UNL     1      28.304   4.972  -1.483 -0.25 +0.00    +0.002 C 
ATOM    101  C1  UNL     1      27.405   4.310  -0.446 -0.36 +0.00    +0.005 C 
ENDBRANCH  98 100
ENDBRANCH   1  98
TORSDOF 20
TER
