USER    Run = 1
USER    DPF = ligand_459_receptor.dpf
USER  
USER    Estimated Free Energy of Binding    =  +74.14 kcal/mol  [=(1)+(2)+(3)-(4)]
USER    
USER    (1) Final Intermolecular Energy     =  +72.94 kcal/mol
USER        vdW + Hbond + desolv Energy     =  +72.94 kcal/mol
USER        Electrostatic Energy            =   +0.00 kcal/mol
USER    (2) Final Total Internal Energy     =   +5.14 kcal/mol
USER    (3) Torsional Free Energy           =   +1.19 kcal/mol
USER    (4) Unbound System's Energy  [=(2)] =   +5.14 kcal/mol
USER    
USER    
USER    NEWDPF move ligand_459.pdbqt
USER    NEWDPF about 0.000000 0.000000 0.000000
USER    NEWDPF tran0 18.090499 6.399477 2.512622
USER    NEWDPF quaternion0 0.912641 0.091909 -0.030685 0.397112
USER    NEWDPF axisangle0 0.994411 0.100144 -0.033435 133.204438
USER    NEWDPF quat0 0.994411 0.100144 -0.033435 133.204438
USER    NEWDPF dihe0 -108.21 43.66 -40.65 7.03 -174.56 131.01 -175.83 165.99 -59.51 -156.72 -174.63 -67.84 179.73 70.22 145.26 180.00 73.97 64.55 -170.52 180.00 145.02 -40.48 -180.00 -35.89 -31.21 93.22 
USER  keepresnum = 1 
USER  
REMARK  26 active torsions:
REMARK  status: ('A' for Active; 'I' for Inactive)
REMARK    1  A    between atoms: C2_2  and  C38_38 
REMARK    2  A    between atoms: C4_4  and  N15_58 
REMARK    3  A    between atoms: C5_5  and  S2_74 
REMARK    4  A    between atoms: C6_6  and  N1_39 
REMARK    5  A    between atoms: C7_7  and  C8_8 
REMARK       I    between atoms: C7_7  and  N1_39 
REMARK    6  A    between atoms: C10_10  and  C12_12 
REMARK       I    between atoms: C12_12  and  N4_44 
REMARK    7  A    between atoms: C13_13  and  N4_44 
REMARK    8  A    between atoms: C14_14  and  S1_73 
REMARK    9  A    between atoms: C15_15  and  N5_45 
REMARK   10  A    between atoms: C17_17  and  C19_19 
REMARK   11  A    between atoms: C20_20  and  C21_21 
REMARK       I    between atoms: C20_20  and  N5_45 
REMARK   12  A    between atoms: C21_21  and  C22_22 
REMARK   13  A    between atoms: C22_22  and  C23_23 
REMARK   14  A    between atoms: C23_23  and  C24_24 
REMARK   15  A    between atoms: C24_24  and  N6_46 
REMARK       I    between atoms: C25_25  and  N6_46 
REMARK       I    between atoms: C25_25  and  N7_48 
REMARK       I    between atoms: C25_25  and  N8_49 
REMARK   16  A    between atoms: C26_26  and  C27_27 
REMARK   17  A    between atoms: C26_26  and  S1_73 
REMARK   18  A    between atoms: C27_27  and  N9_50 
REMARK       I    between atoms: C28_28  and  N9_50 
REMARK       I    between atoms: C28_28  and  N11_53 
REMARK   19  A    between atoms: C29_29  and  C30_30 
REMARK   20  A    between atoms: C29_29  and  S2_74 
REMARK   21  A    between atoms: C30_30  and  N12_54 
REMARK       I    between atoms: C31_31  and  N13_56 
REMARK       I    between atoms: C31_31  and  N14_57 
REMARK   22  A    between atoms: C32_32  and  C33_33 
REMARK       I    between atoms: C32_32  and  N15_58 
REMARK   23  A    between atoms: C33_33  and  C34_34 
REMARK   24  A    between atoms: C34_34  and  C35_35 
REMARK   25  A    between atoms: C35_35  and  C36_36 
REMARK   26  A    between atoms: C36_36  and  N16_59 
REMARK       I    between atoms: C37_37  and  N17_61 
REMARK       I    between atoms: C37_37  and  N18_62 
USER                              x       y       z     vdW  Elec       q    Type
USER                           _______ _______ _______ _____ _____    ______ ____
ROOT
ATOM      1  C8  UNL     1      17.055   8.741   3.246 -0.47 +0.00    +0.104 A 
ATOM      2  C9  UNL     1      18.029   9.239   2.416 -0.41 +0.00    +0.070 A 
ATOM      3  C10 UNL     1      19.222   9.509   3.039 -0.22 +0.00    +0.104 A 
ATOM      4  C11 UNL     1      18.425   8.829   5.066 +6.53 +0.00    +0.181 A 
ATOM      5  N2  UNL     1      19.451   9.316   4.364 +7.36 -0.00    -0.348 N 
ATOM      6  H2  UNL     1      20.350   9.530   4.797 +3.74 +0.00    +0.167 HD
ATOM      7  N3  UNL     1      17.216   8.530   4.580 -0.11 -0.00    -0.348 N 
ATOM      8  H3  UNL     1      16.465   8.169   5.169 +0.15 +0.00    +0.167 HD
ENDROOT
BRANCH   1   9
ATOM      9  C7  UNL     1      15.705   8.409   2.691 -0.27 +0.00    +0.272 C 
ATOM     10  N1  UNL     1      15.142   7.275   3.261 +0.58 -0.00    -0.320 N 
ATOM     11  H31 UNL     1      15.557   7.040   4.159 +0.03 +0.00    +0.169 HD
ATOM     12  O1  UNL     1      15.178   9.155   1.876 +0.88 -0.00    -0.266 OA
BRANCH  10  13
ATOM     13  C6  UNL     1      13.850   6.791   2.968 +2.61 +0.00    +0.055 A 
ATOM     14  C1  UNL     1      13.521   6.728   1.607+11.98 +0.00    +0.047 A 
ATOM     15  C2  UNL     1      12.289   6.216   1.184 -0.25 +0.00    +0.052 A 
ATOM     16  C3  UNL     1      11.372   5.773   2.147 +0.39 +0.00    +0.047 A 
ATOM     17  C4  UNL     1      11.646   5.884   3.515 -0.10 +0.00    +0.054 A 
ATOM     18  C5  UNL     1      12.884   6.432   3.940 -0.12 +0.00    +0.054 A 
BRANCH  15  19
ATOM     19  C38 UNL     1      11.956   6.096  -0.283 -0.23 +0.00    +0.417 C 
ATOM     20  F4  UNL     1      12.957   6.550  -1.084 -0.21 -0.00    -0.166 F 
ATOM     21  F5  UNL     1      10.842   6.797  -0.639 -0.10 -0.00    -0.166 F 
ATOM     22  F6  UNL     1      11.720   4.810  -0.660 -0.11 -0.00    -0.166 F 
ENDBRANCH  15  19
BRANCH  17  23
ATOM     23  N15 UNL     1      10.715   5.472   4.497 -0.10 -0.00    -0.326 N 
ATOM     24  C32 UNL     1      10.928   4.608   5.557 -0.29 +0.00    +0.222 C 
ATOM     25  O4  UNL     1      11.993   4.068   5.841 -0.35 -0.00    -0.273 OA
ATOM     26  H46 UNL     1       9.754   5.740   4.298 +0.10 +0.00    +0.169 HD
BRANCH  24  27
ATOM     27  C33 UNL     1       9.630   4.316   6.301 -0.39 +0.00    +0.103 C 
BRANCH  27  28
ATOM     28  C34 UNL     1       8.344   4.783   5.615 -0.37 +0.00    +0.011 C 
BRANCH  28  29
ATOM     29  C35 UNL     1       7.629   3.785   4.695 -0.32 +0.00    +0.020 C 
BRANCH  29  30
ATOM     30  C36 UNL     1       6.103   3.868   4.712 -0.23 +0.00    +0.121 C 
BRANCH  30  31
ATOM     31  N16 UNL     1       5.655   4.883   5.664 -0.12 -0.00    -0.372 N 
ATOM     32  C37 UNL     1       4.889   4.543   6.630 -0.39 +0.00    +0.121 C 
ATOM     33  N17 UNL     1       4.370   3.337   6.964 -0.84 -0.00    -0.279 NA
ATOM     34  N18 UNL     1       4.458   5.480   7.501 -0.09 -0.00    -0.279 NA
ATOM     35  H47 UNL     1       4.378   3.201   7.970 +0.06 +0.00    +0.126 HD
ATOM     36  H48 UNL     1       4.848   2.539   6.534 -0.26 +0.00    +0.126 HD
ATOM     37  H49 UNL     1       4.714   6.406   7.171 +0.04 +0.00    +0.126 HD
ATOM     38  H50 UNL     1       3.463   5.425   7.680 +0.04 +0.00    +0.126 HD
ATOM     39  H16 UNL     1       5.951   5.854   5.559 +0.07 +0.00    +0.161 HD
ENDBRANCH  30  31
ENDBRANCH  29  30
ENDBRANCH  28  29
ENDBRANCH  27  28
ENDBRANCH  24  27
ENDBRANCH  17  23
BRANCH  18  40
ATOM     40  S2  UNL     1      13.116   6.871   5.689 -0.51 -0.00    -0.124 SA
BRANCH  40  41
ATOM     41  C29 UNL     1      14.466   5.734   6.184 +0.40 +0.00    +0.099 C 
BRANCH  41  42
ATOM     42  C30 UNL     1      14.165   4.866   7.408 -0.50 +0.00    +0.132 C 
BRANCH  42  43
ATOM     43  N12 UNL     1      13.147   5.525   8.241 -0.23 -0.00    -0.371 N 
ATOM     44  C31 UNL     1      13.485   6.580   8.885 -0.55 +0.00    +0.121 C 
ATOM     45  N13 UNL     1      12.567   7.270   9.595 +1.24 -0.00    -0.279 NA
ATOM     46  N14 UNL     1      14.683   7.193   8.951 -0.17 -0.00    -0.279 NA
ATOM     47  H42 UNL     1      12.631   8.275   9.456 +0.17 +0.00    +0.126 HD
ATOM     48  H43 UNL     1      11.633   6.935   9.385 +0.94 +0.00    +0.126 HD
ATOM     49  H44 UNL     1      15.495   6.612   8.803 -0.29 +0.00    +0.126 HD
ATOM     50  H45 UNL     1      14.810   7.809   9.754 -0.15 +0.00    +0.126 HD
ATOM     51  H12 UNL     1      12.200   5.153   8.304 +0.13 +0.00    +0.161 HD
ENDBRANCH  42  43
ENDBRANCH  41  42
ENDBRANCH  40  41
ENDBRANCH  18  40
ENDBRANCH  10  13
ENDBRANCH   1   9
BRANCH   3  52
ATOM     52  C12 UNL     1      20.375  10.040   2.240 -0.29 +0.00    +0.272 C 
ATOM     53  N4  UNL     1      21.095   9.053   1.600 +0.70 -0.00    -0.320 N 
ATOM     54  H32 UNL     1      20.652   8.133   1.610 +2.94 +0.00    +0.169 HD
ATOM     55  O2  UNL     1      20.565  11.249   2.164 -0.29 -0.00    -0.266 OA
BRANCH  53  56
ATOM     56  C13 UNL     1      22.129   9.217   0.654 -0.32 +0.00    +0.055 A 
ATOM     57  C14 UNL     1      22.920   8.093   0.322 -0.35 +0.00    +0.054 A 
ATOM     58  C15 UNL     1      23.918   8.202  -0.675 -0.40 +0.00    +0.054 A 
ATOM     59  C16 UNL     1      24.125   9.434  -1.303 +6.78 +0.00    +0.047 A 
ATOM     60  C17 UNL     1      23.366  10.561  -0.955 +3.15 +0.00    +0.052 A 
ATOM     61  C18 UNL     1      22.364  10.438   0.018 -0.31 +0.00    +0.047 A 
BRANCH  57  62
ATOM     62  S1  UNL     1      22.612   6.503   1.147 +9.63 -0.00    -0.124 SA
BRANCH  62  63
ATOM     63  C26 UNL     1      23.847   5.448   0.290 -0.54 +0.00    +0.099 C 
BRANCH  63  64
ATOM     64  C27 UNL     1      25.208   5.367   0.976 -0.43 +0.00    +0.132 C 
BRANCH  64  65
ATOM     65  N9  UNL     1      25.239   6.052   2.264 +0.21 -0.00    -0.366 N 
ATOM     66  C28 UNL     1      25.687   7.246   2.355 -0.37 +0.00    +0.143 C 
ATOM     67  N10 UNL     1      26.190   8.064   1.405 -0.15 -0.00    -0.376 N 
ATOM     68  N11 UNL     1      25.654   7.861   3.558 -0.40 -0.00    -0.274 NA
ATOM     69  H38 UNL     1      26.737   8.848   1.731 +0.10 +0.00    +0.158 HD
ATOM     70  H39 UNL     1      26.612   7.651   0.572 +0.11 +0.00    +0.158 HD
ATOM     71  H40 UNL     1      26.505   8.337   3.823 -0.44 +0.00    +0.127 HD
ATOM     72  H41 UNL     1      25.397   7.200   4.289 +0.05 +0.00    +0.127 HD
ATOM     73  H9  UNL     1      24.902   5.574   3.099 +0.71 +0.00    +0.162 HD
ENDBRANCH  64  65
ENDBRANCH  63  64
ENDBRANCH  62  63
ENDBRANCH  57  62
BRANCH  58  74
ATOM     74  N5  UNL     1      24.641   7.037  -1.024 -0.24 -0.00    -0.326 N 
ATOM     75  C20 UNL     1      24.832   6.498  -2.279 -0.27 +0.00    +0.222 C 
ATOM     76  O3  UNL     1      24.561   7.026  -3.352 +2.09 -0.00    -0.273 OA
ATOM     77  H33 UNL     1      24.957   6.491  -0.230 +0.13 +0.00    +0.169 HD
BRANCH  75  78
ATOM     78  C21 UNL     1      25.393   5.088  -2.229 -0.22 +0.00    +0.103 C 
BRANCH  78  79
ATOM     79  C22 UNL     1      26.813   4.994  -2.796 +5.36 +0.00    +0.011 C 
BRANCH  79  80
ATOM     80  C23 UNL     1      27.807   4.373  -1.808 -0.28 +0.00    +0.020 C 
BRANCH  80  81
ATOM     81  C24 UNL     1      28.845   5.378  -1.310 -0.17 +0.00    +0.121 C 
BRANCH  81  82
ATOM     82  N6  UNL     1      29.831   5.654  -2.365 -0.03 -0.00    -0.372 N 
ATOM     83  C25 UNL     1      30.378   4.626  -2.908 -0.07 +0.00    +0.121 C 
ATOM     84  N7  UNL     1      31.360   4.754  -3.829 -0.00 -0.00    -0.279 NA
ATOM     85  N8  UNL     1      30.147   3.309  -2.696 -0.01 -0.00    -0.279 NA
ATOM     86  H34 UNL     1      32.102   4.074  -3.703 +0.02 +0.00    +0.126 HD
ATOM     87  H35 UNL     1      31.772   5.687  -3.834 +0.02 +0.00    +0.126 HD
ATOM     88  H36 UNL     1      30.218   2.762  -3.547 +0.03 +0.00    +0.126 HD
ATOM     89  H37 UNL     1      29.289   3.096  -2.205 +0.05 +0.00    +0.126 HD
ATOM     90  H6  UNL     1      30.067   6.605  -2.649 +0.05 +0.00    +0.161 HD
ENDBRANCH  81  82
ENDBRANCH  80  81
ENDBRANCH  79  80
ENDBRANCH  78  79
ENDBRANCH  75  78
ENDBRANCH  58  74
BRANCH  60  91
ATOM     91  C19 UNL     1      23.584  11.878  -1.657 +7.45 +0.00    +0.417 C 
ATOM     92  F1  UNL     1      24.244  12.791  -0.892 +4.85 -0.00    -0.166 F 
ATOM     93  F2  UNL     1      24.309  11.766  -2.804 +3.45 -0.00    -0.166 F 
ATOM     94  F3  UNL     1      22.408  12.467  -2.011 +1.97 -0.00    -0.166 F 
ENDBRANCH  60  91
ENDBRANCH  53  56
ENDBRANCH   3  52
TORSDOF 26
TER
