USER    Run = 1
USER    DPF = ligand_533_receptor.dpf
USER  
USER    Estimated Free Energy of Binding    =   +9.96 kcal/mol  [=(1)+(2)+(3)-(4)]
USER    
USER    (1) Final Intermolecular Energy     =   +8.77 kcal/mol
USER        vdW + Hbond + desolv Energy     =   +8.77 kcal/mol
USER        Electrostatic Energy            =   +0.00 kcal/mol
USER    (2) Final Total Internal Energy     =   -6.19 kcal/mol
USER    (3) Torsional Free Energy           =   +1.19 kcal/mol
USER    (4) Unbound System's Energy  [=(2)] =   -6.19 kcal/mol
USER    
USER    
USER    NEWDPF move ligand_533.pdbqt
USER    NEWDPF about 0.000000 0.000000 0.000000
USER    NEWDPF tran0 10.069167 4.955386 -2.198523
USER    NEWDPF quaternion0 -0.998166 0.034791 0.030073 0.039361
USER    NEWDPF axisangle0 -0.998940 0.034818 0.030097 175.488452
USER    NEWDPF quat0 -0.998940 0.034818 0.030097 175.488452
USER    NEWDPF dihe0 -131.15 39.07 180.00 170.07 -106.98 82.66 -172.77 -9.62 -118.42 22.44 75.05 37.68 -6.86 71.63 -36.79 -21.96 100.39 180.00 -114.81 -127.24 43.43 -98.45 -111.41 -35.01 -89.30 
USER  keepresnum = 1 
USER  
REMARK  25 active torsions:
REMARK  status: ('A' for Active; 'I' for Inactive)
REMARK    1  A    between atoms: C3_3  and  N6_40 
REMARK    2  A    between atoms: C5_5  and  C6_6 
REMARK       I    between atoms: C6_6  and  N2_35 
REMARK    3  A    between atoms: C7_7  and  C8_8 
REMARK    4  A    between atoms: C7_7  and  N2_35 
REMARK    5  A    between atoms: C8_8  and  N3_36 
REMARK       I    between atoms: C9_9  and  N4_38 
REMARK       I    between atoms: C9_9  and  N5_39 
REMARK    6  A    between atoms: C10_10  and  C11_11 
REMARK       I    between atoms: C10_10  and  N6_40 
REMARK    7  A    between atoms: C13_13  and  N8_42 
REMARK    8  A    between atoms: C16_16  and  C17_17 
REMARK       I    between atoms: C16_16  and  N8_42 
REMARK    9  A    between atoms: C19_19  and  N11_46 
REMARK   10  A    between atoms: C21_21  and  C22_22 
REMARK       I    between atoms: C21_21  and  N11_46 
REMARK   11  A    between atoms: C22_22  and  C23_23 
REMARK   12  A    between atoms: C23_23  and  S1_60 
REMARK   13  A    between atoms: C24_24  and  C25_25 
REMARK   14  A    between atoms: C24_24  and  S1_60 
REMARK   15  A    between atoms: C25_25  and  C26_26 
REMARK   16  A    between atoms: C25_25  and  N13_48 
REMARK       I    between atoms: C26_26  and  N12_47 
REMARK   17  A    between atoms: C27_27  and  C28_28 
REMARK   18  A    between atoms: C27_27  and  N12_47 
REMARK   19  A    between atoms: C28_28  and  O7_56 
REMARK   20  A    between atoms: C29_29  and  C30_30 
REMARK       I    between atoms: C29_29  and  N13_48 
REMARK   21  A    between atoms: C30_30  and  C31_31 
REMARK   22  A    between atoms: C31_31  and  C32_32 
REMARK   23  A    between atoms: C32_32  and  C33_33 
REMARK   24  A    between atoms: C32_32  and  N14_49 
REMARK   25  A    between atoms: C33_33  and  O10_59 
USER                              x       y       z     vdW  Elec       q    Type
USER                           _______ _______ _______ _____ _____    ______ ____
ROOT
ATOM      1  C17 UNL     1       9.695   4.089  -0.665 -0.10 +0.00    +0.122 A 
ATOM      2  C18 UNL     1       8.755   3.852   0.325 -0.09 +0.00    +0.086 A 
ATOM      3  C19 UNL     1       7.539   3.584  -0.335 -0.05 +0.00    +0.124 A 
ATOM      4  C20 UNL     1       9.487   4.071  -3.189 -0.03 +0.00    +0.178 C 
ATOM      5  N9  UNL     1       7.688   3.643  -1.657 -0.04 -0.00    -0.283 N 
ATOM      6  H9  UNL     1       6.976   3.495  -2.373 +0.04 +0.00    +0.189 HD
ATOM      7  N10 UNL     1       8.989   3.940  -1.837 -0.06 -0.00    -0.290 N 
ENDROOT
BRANCH   1   8
ATOM      8  C16 UNL     1      11.109   4.417  -0.592 +0.17 +0.00    +0.274 C 
ATOM      9  N8  UNL     1      11.377   5.774  -0.577 -0.19 -0.00    -0.320 N 
ATOM     10  H38 UNL     1      10.608   6.426  -0.631 +0.10 +0.00    +0.169 HD
ATOM     11  O3  UNL     1      11.973   3.545  -0.554 +0.85 -0.00    -0.266 OA
BRANCH   9  12
ATOM     12  C13 UNL     1      12.636   6.339  -0.506 -0.43 +0.00    +0.053 A 
ATOM     13  C12 UNL     1      13.252   7.089   0.522 +1.06 +0.00    +0.066 A 
ATOM     14  C11 UNL     1      14.540   7.437   0.124 +2.56 +0.00    +0.105 A 
ATOM     15  N7  UNL     1      14.690   6.910  -1.148 +1.20 -0.00    -0.354 N 
ATOM     16  C14 UNL     1      13.550   6.245  -1.527 +2.25 +0.00    +0.120 A 
ATOM     17  C15 UNL     1      15.873   7.016  -1.978 +5.43 +0.00    +0.156 C 
BRANCH  14  18
ATOM     18  C10 UNL     1      15.568   8.205   0.829 +0.52 +0.00    +0.273 C 
ATOM     19  N6  UNL     1      16.646   8.561   0.038 -0.33 -0.00    -0.320 N 
ATOM     20  H37 UNL     1      16.627   8.307  -0.938 +0.10 +0.00    +0.169 HD
ATOM     21  O2  UNL     1      15.451   8.503   2.015 -0.27 -0.00    -0.266 OA
BRANCH  19  22
ATOM     22  C3  UNL     1      17.758   9.274   0.445 -0.36 +0.00    +0.053 A 
ATOM     23  C2  UNL     1      17.891  10.107   1.527 -0.37 +0.00    +0.120 A 
ATOM     24  N1  UNL     1      19.168  10.608   1.535 -0.19 -0.00    -0.354 N 
ATOM     25  C1  UNL     1      19.667  11.529   2.536 +0.10 +0.00    +0.156 C 
ATOM     26  C5  UNL     1      19.893  10.094   0.474 -0.27 +0.00    +0.104 A 
ATOM     27  C4  UNL     1      19.011   9.269  -0.217 +1.51 +0.00    +0.066 A 
BRANCH  26  28
ATOM     28  C6  UNL     1      21.284  10.413   0.192 -0.31 +0.00    +0.268 C 
ATOM     29  N2  UNL     1      22.089   9.320  -0.043 -0.19 -0.00    -0.354 N 
ATOM     30  H32 UNL     1      21.761   8.427   0.298 +0.15 +0.00    +0.162 HD
ATOM     31  O1  UNL     1      21.730  11.557   0.183 +0.16 -0.00    -0.266 OA
BRANCH  29  32
ATOM     32  C7  UNL     1      23.533   9.450  -0.105 -0.02 +0.00    +0.142 C 
BRANCH  32  33
ATOM     33  C8  UNL     1      24.141   9.641   1.288 -0.30 +0.00    +0.141 C 
BRANCH  33  34
ATOM     34  N3  UNL     1      25.328   8.784   1.407 -0.15 -0.00    -0.370 N 
ATOM     35  C9  UNL     1      25.991   8.833   2.499 -0.55 +0.00    +0.121 C 
ATOM     36  N4  UNL     1      27.077   8.047   2.665 -0.31 -0.00    -0.279 NA
ATOM     37  N5  UNL     1      25.789   9.577   3.609 -0.80 -0.00    -0.279 NA
ATOM     38  H33 UNL     1      27.069   7.572   3.560 -0.42 +0.00    +0.126 HD
ATOM     39  H34 UNL     1      27.135   7.375   1.908 +0.08 +0.00    +0.126 HD
ATOM     40  H35 UNL     1      25.149  10.351   3.487 +0.07 +0.00    +0.126 HD
ATOM     41  H36 UNL     1      26.658   9.888   4.028 -0.19 +0.00    +0.126 HD
ATOM     42  H3  UNL     1      25.613   8.170   0.645 +0.12 +0.00    +0.161 HD
ENDBRANCH  33  34
ENDBRANCH  32  33
ENDBRANCH  29  32
ENDBRANCH  26  28
ENDBRANCH  19  22
ENDBRANCH  14  18
ENDBRANCH   9  12
ENDBRANCH   1   8
BRANCH   3  43
ATOM     43  N11 UNL     1       6.305   3.285   0.189 -0.01 -0.00    -0.311 N 
ATOM     44  C21 UNL     1       6.083   2.595   1.363 -0.08 +0.00    +0.238 C 
ATOM     45  O4  UNL     1       6.965   2.173   2.111 -0.17 -0.00    -0.272 OA
ATOM     46  H39 UNL     1       5.531   3.693  -0.335 +0.05 +0.00    +0.170 HD
BRANCH  44  47
ATOM     47  C22 UNL     1       4.603   2.403   1.671 -0.10 +0.00    +0.159 C 
ATOM     48 BR1  UNL     1       3.664   2.460  -0.057 -0.22 -0.00    -0.080 Br
BRANCH  47  49
ATOM     49  C23 UNL     1       4.320   1.066   2.343 -0.23 +0.00    +0.099 C 
BRANCH  49  50
ATOM     50  S1  UNL     1       3.714   1.234   4.066 -0.34 -0.00    -0.165 SA
BRANCH  50  51
ATOM     51  C24 UNL     1       5.023   2.308   4.769 +0.04 +0.00    +0.108 C 
BRANCH  51  52
ATOM     52  C25 UNL     1       4.538   3.752   4.949 -0.19 +0.00    +0.185 C 
BRANCH  52  53
ATOM     53  C26 UNL     1       5.538   4.611   5.740 -0.25 +0.00    +0.241 C 
ATOM     54  N12 UNL     1       6.637   4.993   5.005 -0.09 -0.00    -0.349 N 
ATOM     55  H40 UNL     1       6.784   4.552   4.093 +0.08 +0.00    +0.163 HD
ATOM     56  O5  UNL     1       5.419   4.851   6.941 -0.35 -0.00    -0.271 OA
BRANCH  54  57
ATOM     57  C27 UNL     1       7.803   5.590   5.634 -0.04 +0.00    +0.232 C 
BRANCH  57  58
ATOM     58  C28 UNL     1       8.977   5.765   4.678 -0.20 +0.00    +0.158 C 
ATOM     59  O6  UNL     1       9.056   5.286   3.557 +0.07 -0.00    -0.649 OA
BRANCH  58  60
ATOM     60  O7  UNL     1      10.006   6.507   5.152 +0.14 -0.00    -0.775 OA
ATOM     61  H44 UNL     1      10.128   6.116   6.044 +0.11 +0.00    +0.167 HD
ENDBRANCH  58  60
ENDBRANCH  57  58
ENDBRANCH  54  57
ENDBRANCH  52  53
BRANCH  52  62
ATOM     62  N13 UNL     1       4.402   4.427   3.652 -0.02 -0.00    -0.347 N 
ATOM     63  C29 UNL     1       3.763   5.634   3.535 -0.14 +0.00    +0.218 C 
ATOM     64  O8  UNL     1       3.154   6.165   4.456 -0.11 -0.00    -0.274 OA
ATOM     65  H41 UNL     1       4.954   4.069   2.878 +0.06 +0.00    +0.163 HD
BRANCH  63  66
ATOM     66  C30 UNL     1       3.885   6.269   2.167 +0.44 +0.00    +0.105 C 
BRANCH  66  67
ATOM     67  C31 UNL     1       5.065   7.244   2.083 +0.29 +0.00    +0.056 C 
BRANCH  67  68
ATOM     68  C32 UNL     1       6.407   6.644   1.628 -0.20 +0.00    +0.315 C 
BRANCH  68  69
ATOM     69  C33 UNL     1       6.871   7.214   0.281 -0.36 +0.00    +0.173 C 
ATOM     70  O9  UNL     1       6.255   8.007  -0.420 -0.07 -0.00    -0.648 OA
BRANCH  69  71
ATOM     71  O10 UNL     1       8.056   6.710  -0.114 +0.08 -0.00    -0.775 OA
ATOM     72  H45 UNL     1       8.495   7.437  -0.603 +0.08 +0.00    +0.167 HD
ENDBRANCH  69  71
ENDBRANCH  68  69
BRANCH  68  73
ATOM     73  N14 UNL     1       7.472   6.795   2.643 -0.26 +0.00    +0.093 N 
ATOM     74  H42 UNL     1       8.360   7.000   2.190 +0.18 +0.00    +0.314 HD
ATOM     75  H43 UNL     1       7.573   5.922   3.165 +0.15 +0.00    +0.314 HD
ENDBRANCH  68  73
ENDBRANCH  67  68
ENDBRANCH  66  67
ENDBRANCH  63  66
ENDBRANCH  52  62
ENDBRANCH  51  52
ENDBRANCH  50  51
ENDBRANCH  49  50
ENDBRANCH  47  49
ENDBRANCH  44  47
ENDBRANCH   3  43
TORSDOF 25
TER
