USER    Run = 1
USER    DPF = ligand_68_receptor.dpf
USER  
USER    Estimated Free Energy of Binding    =  +1.15e+007 kcal/mol  [=(1)+(2)+(3)-(4)]
USER    
USER    (1) Final Intermolecular Energy     =  +1.15e+007 kcal/mol
USER        vdW + Hbond + desolv Energy     =  +5.94e+006 kcal/mol
USER        Electrostatic Energy            =  +5.61e+006 kcal/mol
USER    (2) Final Total Internal Energy     =   +0.00 kcal/mol
USER    (3) Torsional Free Energy           =   +1.19 kcal/mol
USER    (4) Unbound System's Energy  [=(2)] =   +0.00 kcal/mol
USER    
USER    
USER    NEWDPF move ligand_68.pdbqt
USER    NEWDPF about 0.000000 0.000000 0.000000
USER    NEWDPF tran0 15.632887 6.039231 2.578897
USER    NEWDPF quaternion0 0.054250 0.937979 0.314443 0.135566
USER    NEWDPF axisangle0 0.054755 0.946719 0.317373 164.417280
USER    NEWDPF quat0 0.054755 0.946719 0.317373 164.417280
USER  keepresnum = 1 
USER  
REMARK  0 active torsions:
REMARK  status: ('A' for Active; 'I' for Inactive)
REMARK       I    between atoms: C3_3  and  C4_4 
REMARK       I    between atoms: C3_3  and  N1_70 
REMARK       I    between atoms: C4_4  and  C5_5 
REMARK       I    between atoms: C5_5  and  N2_71 
REMARK       I    between atoms: C6_6  and  C7_7 
REMARK       I    between atoms: C6_6  and  N2_71 
REMARK       I    between atoms: C9_9  and  N3_72 
REMARK       I    between atoms: C10_10  and  C11_11 
REMARK       I    between atoms: C10_10  and  N3_72 
REMARK       I    between atoms: C13_13  and  N4_73 
REMARK       I    between atoms: C14_14  and  C15_15 
REMARK       I    between atoms: C14_14  and  N4_73 
REMARK       I    between atoms: C17_17  and  N5_74 
REMARK       I    between atoms: C18_18  and  C19_19 
REMARK       I    between atoms: C18_18  and  N5_74 
REMARK       I    between atoms: C20_20  and  N7_77 
REMARK       I    between atoms: C21_21  and  C22_22 
REMARK       I    between atoms: C21_21  and  N7_77 
REMARK       I    between atoms: C22_22  and  C23_23 
REMARK       I    between atoms: C23_23  and  C24_24 
REMARK       I    between atoms: C24_24  and  N8_78 
REMARK       I    between atoms: C25_25  and  C26_26 
REMARK       I    between atoms: C25_25  and  N8_78 
REMARK       I    between atoms: C28_28  and  N9_79 
REMARK       I    between atoms: C29_29  and  C30_30 
REMARK       I    between atoms: C29_29  and  N9_79 
REMARK       I    between atoms: C32_32  and  N10_80 
REMARK       I    between atoms: C33_33  and  C34_34 
REMARK       I    between atoms: C33_33  and  N10_80 
REMARK       I    between atoms: C36_36  and  N11_81 
REMARK       I    between atoms: C37_37  and  C38_38 
REMARK       I    between atoms: C37_37  and  N11_81 
REMARK       I    between atoms: C39_39  and  N13_84 
REMARK       I    between atoms: C40_40  and  C41_41 
REMARK       I    between atoms: C40_40  and  N13_84 
REMARK       I    between atoms: C41_41  and  C42_42 
REMARK       I    between atoms: C42_42  and  N14_85 
REMARK       I    between atoms: C43_43  and  C44_44 
REMARK       I    between atoms: C43_43  and  N14_85 
REMARK       I    between atoms: C44_44  and  C45_45 
REMARK       I    between atoms: C45_45  and  N15_86 
REMARK       I    between atoms: C46_46  and  C47_47 
REMARK       I    between atoms: C46_46  and  N15_86 
REMARK       I    between atoms: C47_47  and  C48_48 
REMARK       I    between atoms: C48_48  and  C49_49 
REMARK       I    between atoms: C49_49  and  C50_50 
REMARK       I    between atoms: C50_50  and  C51_51 
REMARK       I    between atoms: C51_51  and  C52_52 
REMARK       I    between atoms: C52_52  and  C53_53 
REMARK       I    between atoms: C53_53  and  N16_87 
REMARK       I    between atoms: N16_87  and  O14_109 
USER                              x       y       z     vdW  Elec       q    Type
USER                           _______ _______ _______ _____ _____    ______ ____
ROOT
ATOM      1  C1  UNL     1       0.873  15.902  11.874+99.99+99.99    +0.309 C 
ATOM      2  C2  UNL     1      -0.604  14.036  12.126+99.99+99.99    +0.309 C 
ATOM      3  C3  UNL     1       1.367  13.784  10.769+99.99+99.99    +0.273 C 
ATOM      4  C4  UNL     1       2.894  13.922  10.693+99.99 +0.00    +0.050 C 
ATOM      5  C5  UNL     1       3.490  13.162   9.508+91.15 +0.00    +0.125 C 
ATOM      6  C6  UNL     1       2.505  10.939   9.035 -0.08 +0.00    +0.268 C 
ATOM      7  C7  UNL     1       2.608   9.527   9.340 -0.04 +0.00    +0.104 A 
ATOM      8  C8  UNL     1       2.501   8.480   8.435 -0.03 +0.00    +0.066 A 
ATOM      9  C9  UNL     1       2.681   7.259   9.128+57.72 +0.00    +0.053 A 
ATOM     10  C10 UNL     1       2.810   4.797   9.196+31.55 +0.00    +0.273 C 
ATOM     11  C11 UNL     1       2.778   3.638   8.306 -0.13 +0.00    +0.105 A 
ATOM     12  C12 UNL     1       2.943   3.561   6.925 -0.31 +0.00    +0.066 A 
ATOM     13  C13 UNL     1       2.834   2.207   6.520 -0.31 +0.00    +0.053 A 
ATOM     14  C14 UNL     1       2.806   0.447   4.793 -0.11 +0.00    +0.273 C 
ATOM     15  C15 UNL     1       3.015   0.267   3.356 -0.24 +0.00    +0.105 A 
ATOM     16  C16 UNL     1       3.623   1.106   2.425 -0.19 +0.00    +0.066 A 
ATOM     17  C17 UNL     1       3.586   0.485   1.152 +0.13 +0.00    +0.053 A 
ATOM     18  C18 UNL     1       4.081   0.451  -1.266 +0.15 +0.00    +0.290 C 
ATOM     19  C19 UNL     1       4.723   1.314  -2.252 -0.05 +0.00    +0.178 A 
ATOM     20  C20 UNL     1       5.744   2.992  -3.119 -0.08 +0.00    +0.125 A 
ATOM     21  C21 UNL     1       6.932   4.835  -4.199 +2.96 +0.00    +0.223 C 
ATOM     22  C22 UNL     1       7.569   6.157  -3.813+56.95 +0.00    +0.105 C 
ATOM     23  C23 UNL     1       8.559   6.695  -4.845+99.99+99.99    +0.029 C 
ATOM     24  C24 UNL     1       9.691   5.736  -5.226+99.99+99.99    +0.123 C 
ATOM     25  C25 UNL     1      10.994   5.615  -3.126 -0.13 +0.00    +0.268 C 
ATOM     26  C26 UNL     1      11.647   4.704  -2.207+11.85 +0.00    +0.104 A 
ATOM     27  C27 UNL     1      12.890   4.898  -1.614+99.99 +0.00    +0.066 A 
ATOM     28  C28 UNL     1      13.189   3.779  -0.801+99.99 +0.00    +0.053 A 
ATOM     29  C29 UNL     1      14.670   2.543   0.736+99.99 +0.00    +0.273 C 
ATOM     30  C30 UNL     1      15.986   2.635   1.368+99.99 +0.00    +0.105 A 
ATOM     31  C31 UNL     1      17.022   3.543   1.157+99.99 +0.00    +0.066 A 
ATOM     32  C32 UNL     1      18.101   3.221   2.012+37.80 +0.00    +0.053 A 
ATOM     33  C33 UNL     1      19.777   4.937   1.471+99.99 +0.00    +0.273 C 
ATOM     34  C34 UNL     1      21.124   5.377   1.834+99.99 +0.00    +0.105 A 
ATOM     35  C35 UNL     1      21.979   4.922   2.835+43.27 +0.00    +0.066 A 
ATOM     36  C36 UNL     1      23.180   5.666   2.791+99.99 +0.00    +0.053 A 
ATOM     37  C37 UNL     1      24.517   4.694   4.611+99.99 +0.00    +0.290 C 
ATOM     38  C38 UNL     1      25.827   4.884   5.216+99.99 +0.00    +0.178 A 
ATOM     39  C39 UNL     1      27.785   5.692   5.574+99.99 +0.00    +0.125 A 
ATOM     40  C40 UNL     1      29.059   7.463   4.490+99.99 +0.00    +0.224 C 
ATOM     41  C41 UNL     1      30.414   8.139   4.617+99.99 +0.00    +0.123 C 
ATOM     42  C42 UNL     1      30.614   9.235   3.574+23.31 +0.00    +0.132 C 
ATOM     43  C43 UNL     1      31.821   8.113   1.726 -0.20 +0.00    +0.219 C 
ATOM     44  C44 UNL     1      31.632   7.557   0.330 -0.14 +0.00    +0.122 C 
ATOM     45  C45 UNL     1      32.888   6.858  -0.181+99.99+99.99    +0.132 C 
ATOM     46  C46 UNL     1      34.070   8.557  -1.533+99.99+99.99    +0.217 C 
ATOM     47  C47 UNL     1      35.220   9.546  -1.481+99.99+99.99    +0.103 C 
ATOM     48  C48 UNL     1      35.460  10.283  -2.798+99.99+99.99    +0.009 C 
ATOM     49  C49 UNL     1      35.972   9.410  -3.951+99.99+99.99    +0.000 C 
ATOM     50  C50 UNL     1      37.259   8.624  -3.682+99.99+99.99    +0.000 C 
ATOM     51  C51 UNL     1      38.448   9.508  -3.304+99.99+99.99    +0.009 C 
ATOM     52  C52 UNL     1      39.730   8.686  -3.179+99.99+99.99    +0.105 C 
ATOM     53  C53 UNL     1      40.916   9.537  -2.776+99.99+99.99    +0.240 C 
ATOM     54  C54 UNL     1      27.620   4.701   6.510+47.60 +0.00    +0.140 A 
ATOM     55  C55 UNL     1      25.740   3.123   7.006+99.99 +0.00    +0.157 C 
ATOM     56  C56 UNL     1      23.047   6.572   1.769 +2.49 +0.00    +0.120 A 
ATOM     57  C57 UNL     1      21.326   7.187   0.082+99.99 +0.00    +0.156 C 
ATOM     58  C58 UNL     1      17.719   2.117   2.732+99.99 +0.00    +0.120 A 
ATOM     59  C59 UNL     1      15.723   0.640   2.895+99.99 +0.00    +0.156 C 
ATOM     60  C60 UNL     1      12.109   2.936  -0.884 +9.22 +0.00    +0.120 A 
ATOM     61  C61 UNL     1       9.836   2.965  -1.882 -0.17 +0.00    +0.156 C 
ATOM     62  C62 UNL     1       5.533   2.118  -4.154 -0.07 +0.00    +0.140 A 
ATOM     63  C63 UNL     1       4.432  -0.120  -4.301 -0.06 +0.00    +0.157 C 
ATOM     64  C64 UNL     1       2.963  -0.724   1.322+10.35 +0.00    +0.120 A 
ATOM     65  C65 UNL     1       1.960  -2.022   3.191+99.99+99.99    +0.156 C 
ATOM     66  C66 UNL     1       2.612   1.475   7.659 +0.27 +0.00    +0.120 A 
ATOM     67  C67 UNL     1       2.375   1.903  10.097+99.99 +0.00    +0.156 C 
ATOM     68  C68 UNL     1       2.857   7.583  10.451+99.99 +0.00    +0.120 A 
ATOM     69  C69 UNL     1       2.739   9.625  11.862+99.99+99.99    +0.156 C 
ATOM     70  N1  UNL     1       0.798  14.440  11.962+99.99+99.99    +0.080 N 
ATOM     71  N2  UNL     1       3.425  11.728   9.688+48.24 -0.00    -0.356 N 
ATOM     72  N3  UNL     1       2.668   6.008   8.541 +2.21 -0.00    -0.320 N 
ATOM     73  N4  UNL     1       2.947   1.757   5.218 -0.14 -0.00    -0.320 N 
ATOM     74  N5  UNL     1       4.097   1.026  -0.009 -0.09 -0.00    -0.319 N 
ATOM     75  N6  UNL     1       5.252   2.494  -1.945 -0.02 -0.00    -0.323 N 
ATOM     76  H6  UNL     1       5.283   2.936  -1.027 +0.04 +0.00    +0.169 HD
ATOM     77  N7  UNL     1       6.357   4.215  -3.108 +0.78 -0.00    -0.312 N 
ATOM     78  N8  UNL     1      10.262   4.998  -4.116 -0.09 -0.00    -0.356 N 
ATOM     79  N9  UNL     1      14.357   3.616  -0.080+99.99 -0.00    -0.320 N 
ATOM     80  N10 UNL     1      19.333   3.826   2.167+99.99 -0.00    -0.320 N 
ATOM     81  N11 UNL     1      24.311   5.579   3.571+99.99 -0.00    -0.319 N 
ATOM     82  N12 UNL     1      26.682   5.799   4.785+33.00 -0.00    -0.323 N 
ATOM     83  H12 UNL     1      26.542   6.453   4.014 +0.33 +0.00    +0.169 HD
ATOM     84  N13 UNL     1      28.905   6.473   5.446+99.99 -0.00    -0.312 N 
ATOM     85  N14 UNL     1      30.686   8.716   2.221 +0.83 -0.00    -0.361 N 
ATOM     86  N15 UNL     1      33.991   7.775  -0.399+99.99+99.99    -0.361 N 
ATOM     87  N16 UNL     1      42.097   8.830  -2.715+99.99+99.99    -0.237 N 
ATOM     88  N17 UNL     1      26.370   4.194   6.273+99.99 -0.00    -0.339 N 
ATOM     89  N18 UNL     1      21.812   6.400   1.197+99.99 -0.00    -0.354 N 
ATOM     90  N19 UNL     1      16.452   1.764   2.341+99.99 -0.00    -0.354 N 
ATOM     91  N20 UNL     1      11.164   3.514  -1.697 +1.68 -0.00    -0.354 N 
ATOM     92  N21 UNL     1       4.879   1.056  -3.594 -0.01 -0.00    -0.339 N 
ATOM     93  N22 UNL     1       2.632  -0.860   2.646 -0.07 -0.00    -0.354 N 
ATOM     94  N23 UNL     1       2.589   2.333   8.730 +0.45 -0.00    -0.354 N 
ATOM     95  N24 UNL     1       2.765   8.946  10.583 +4.38 -0.00    -0.354 N 
ATOM     96  O1  UNL     1       1.697  11.393   8.233+99.99+99.99    -0.266 OA
ATOM     97  O2  UNL     1       2.937   4.677  10.412+99.99 -0.00    -0.266 OA
ATOM     98  O3  UNL     1       2.514  -0.494   5.525 +5.09 -0.00    -0.266 OA
ATOM     99  O4  UNL     1       3.598  -0.641  -1.550 +4.85 -0.00    -0.264 OA
ATOM    100  O5  UNL     1       6.936   4.410  -5.349+99.99+99.99    -0.273 OA
ATOM    101  O6  UNL     1      11.111   6.833  -3.058 -0.22 -0.00    -0.266 OA
ATOM    102  O7  UNL     1      13.922   1.589   0.938+99.99 -0.00    -0.266 OA
ATOM    103  O8  UNL     1      19.113   5.515   0.614+99.99 -0.00    -0.266 OA
ATOM    104  O9  UNL     1      23.717   3.845   4.998+43.60 -0.00    -0.264 OA
ATOM    105  O10 UNL     1      28.249   7.788   3.628 +7.02 -0.00    -0.273 OA
ATOM    106  O11 UNL     1      32.872   8.044   2.354+99.99+99.99    -0.274 OA
ATOM    107  O12 UNL     1      33.280   8.469  -2.465+99.99+99.99    -0.274 OA
ATOM    108  O13 UNL     1      40.864  10.737  -2.520+99.99+99.99    -0.271 OA
ATOM    109  O14 UNL     1      43.200   9.557  -2.204+99.99+99.99    -0.287 OA
ATOM    110  H77 UNL     1       4.174  11.274  10.193+44.80 +0.00    +0.162 HD
ATOM    111  H78 UNL     1       2.493   5.996   7.549 +0.06 +0.00    +0.169 HD
ATOM    112  H79 UNL     1       3.110   2.465   4.521 +0.06 +0.00    +0.169 HD
ATOM    113  H80 UNL     1       4.538   1.939   0.043 +0.04 +0.00    +0.169 HD
ATOM    114  H81 UNL     1       6.372   4.664  -2.203 -0.35 +0.00    +0.170 HD
ATOM    115  H82 UNL     1      10.496   4.031  -4.301 +0.07 +0.00    +0.162 HD
ATOM    116  H83 UNL     1      15.021   4.372  -0.154+58.99 +0.00    +0.169 HD
ATOM    117  H84 UNL     1      19.950   3.401   2.843 +1.12 +0.00    +0.169 HD
ATOM    118  H85 UNL     1      25.081   6.217   3.381 +0.58 +0.00    +0.169 HD
ATOM    119  H86 UNL     1      29.657   6.291   6.094+99.99 +0.00    +0.170 HD
ATOM    120  H87 UNL     1      29.798   8.548   1.757 +0.09 +0.00    +0.162 HD
ATOM    121  H88 UNL     1      34.501   8.070   0.427+99.99+99.99    +0.162 HD
ATOM    122  H89 UNL     1      42.110   7.829  -2.546+99.99+99.99    +0.197 HD
ATOM    123  H90 UNL     1      42.818  10.455  -2.075+99.99+99.99    +0.244 HD
ENDROOT
TORSDOF 38
TER
