USER    Run = 1
USER    DPF = ligand_336_receptor.dpf
USER  
USER    Estimated Free Energy of Binding    =  +3.97e+004 kcal/mol  [=(1)+(2)+(3)-(4)]
USER    
USER    (1) Final Intermolecular Energy     =  +3.97e+004 kcal/mol
USER        vdW + Hbond + desolv Energy     =  +3.97e+004 kcal/mol
USER        Electrostatic Energy            =   +0.00 kcal/mol
USER    (2) Final Total Internal Energy     =   +0.00 kcal/mol
USER    (3) Torsional Free Energy           =   +1.19 kcal/mol
USER    (4) Unbound System's Energy  [=(2)] =   +0.00 kcal/mol
USER    
USER    
USER    NEWDPF move ligand_336.pdbqt
USER    NEWDPF about 0.000000 0.000000 0.000000
USER    NEWDPF tran0 10.374089 6.423515 3.782641
USER    NEWDPF quaternion0 0.417603 -0.207860 -0.588689 0.660187
USER    NEWDPF axisangle0 0.555988 -0.276740 -0.783768 97.371654
USER    NEWDPF quat0 0.555988 -0.276740 -0.783768 97.371654
USER  keepresnum = 1 
USER  
REMARK  0 active torsions:
REMARK  status: ('A' for Active; 'I' for Inactive)
REMARK       I    between atoms: C2_2  and  C3_3 
REMARK       I    between atoms: C3_3  and  C5_5 
REMARK       I    between atoms: C5_5  and  C6_6 
REMARK       I    between atoms: C5_5  and  N3_99 
REMARK       I    between atoms: C6_6  and  C7_7 
REMARK       I    between atoms: C6_6  and  O5_82 
REMARK       I    between atoms: C7_7  and  C8_8 
REMARK       I    between atoms: C8_8  and  N1_97 
REMARK       I    between atoms: C10_10  and  O4_81 
REMARK       I    between atoms: C12_12  and  C13_13 
REMARK       I    between atoms: C13_13  and  C14_14 
REMARK       I    between atoms: C13_13  and  O3_80 
REMARK       I    between atoms: C14_14  and  C16_16 
REMARK       I    between atoms: C16_16  and  N2_98 
REMARK       I    between atoms: C17_17  and  C18_18 
REMARK       I    between atoms: C17_17  and  N2_98 
REMARK       I    between atoms: C18_18  and  C19_19 
REMARK       I    between atoms: C28_28  and  C29_29 
REMARK       I    between atoms: C28_28  and  N3_99 
REMARK       I    between atoms: C29_29  and  C30_30 
REMARK       I    between atoms: C29_29  and  N4_100 
REMARK       I    between atoms: C33_33  and  C34_34 
REMARK       I    between atoms: C33_33  and  N4_100 
REMARK       I    between atoms: C34_34  and  C35_35 
REMARK       I    between atoms: C34_34  and  N5_101 
REMARK       I    between atoms: C39_39  and  O9_86 
REMARK       I    between atoms: C39_39  and  N5_101 
REMARK       I    between atoms: C40_40  and  C41_41 
REMARK       I    between atoms: C40_40  and  O9_86 
REMARK       I    between atoms: C44_44  and  N6_102 
REMARK       I    between atoms: C47_47  and  C48_48 
REMARK       I    between atoms: C47_47  and  N6_102 
REMARK       I    between atoms: C48_48  and  C49_49 
REMARK       I    between atoms: C48_48  and  N9_105 
REMARK       I    between atoms: C49_49  and  C50_50 
REMARK       I    between atoms: C50_50  and  C51_51 
REMARK       I    between atoms: C51_51  and  N7_103 
REMARK       I    between atoms: C52_52  and  N7_103 
REMARK       I    between atoms: C52_52  and  N8_104 
REMARK       I    between atoms: C53_53  and  C54_54 
REMARK       I    between atoms: C53_53  and  N9_105 
REMARK       I    between atoms: C54_54  and  C55_55 
REMARK       I    between atoms: C54_54  and  N10_106 
REMARK       I    between atoms: C58_58  and  C59_59 
REMARK       I    between atoms: C58_58  and  N10_106 
REMARK       I    between atoms: C59_59  and  C60_60 
REMARK       I    between atoms: C60_60  and  C61_61 
REMARK       I    between atoms: C61_61  and  C62_62 
REMARK       I    between atoms: C62_62  and  C63_63 
REMARK       I    between atoms: C63_63  and  N11_107 
REMARK       I    between atoms: C66_66  and  S1_111 
REMARK       I    between atoms: C68_68  and  C69_69 
REMARK       I    between atoms: C68_68  and  S1_111 
REMARK       I    between atoms: C69_69  and  C72_72 
REMARK       I    between atoms: C72_72  and  C73_73 
REMARK       I    between atoms: C73_73  and  O17_94 
REMARK       I    between atoms: O17_94  and  N12_108 
USER                              x       y       z     vdW  Elec       q    Type
USER                           _______ _______ _______ _____ _____    ______ ____
ROOT
ATOM      1  C1  UNL     1       2.629   6.877   3.549 -0.11 +0.00    +0.005 C 
ATOM      2  C2  UNL     1       3.230   7.934   2.631 +8.20 +0.00    +0.002 C 
ATOM      3  C3  UNL     1       4.643   8.395   3.059 +6.02 +0.00    +0.006 C 
ATOM      4  C4  UNL     1       4.940   9.746   2.399+54.22 +0.00    +0.012 C 
ATOM      5  C5  UNL     1       5.749   7.310   2.826 +0.66 +0.00    +0.119 C 
ATOM      6  C6  UNL     1       7.126   7.638   3.515 +8.36 +0.00    +0.152 C 
ATOM      7  C7  UNL     1       7.142   7.935   5.027+99.99 +0.00    +0.137 C 
ATOM      8  C8  UNL     1       6.410   6.937   5.911+22.22 +0.00    +0.222 C 
ATOM      9  C9  UNL     1       8.348   6.756   7.519+19.92 +0.00    +0.158 C 
ATOM     10  C10 UNL     1       8.546   5.683   8.599 +0.43 +0.00    +0.138 C 
ATOM     11  C11 UNL     1       7.183   5.617   9.272+99.99 +0.00    +0.061 C 
ATOM     12  C12 UNL     1       6.228   5.761   8.077 +1.84 +0.00    +0.119 C 
ATOM     13  C13 UNL     1       4.778   6.200   8.447+18.35 +0.00    +0.156 C 
ATOM     14  C14 UNL     1       3.886   4.996   8.809+99.99 +0.00    +0.105 C 
ATOM     15  C15 UNL     1       2.424   5.422   8.982 +8.59 +0.00    +0.022 C 
ATOM     16  C16 UNL     1       3.937   3.841   7.812 +0.24 +0.00    +0.224 C 
ATOM     17  C17 UNL     1       3.880   3.121   5.454 -0.26 +0.00    +0.127 C 
ATOM     18  C18 UNL     1       5.293   2.556   5.243 +1.40 +0.00    +0.064 C 
ATOM     19  C19 UNL     1       5.339   1.425   4.250 +0.19 +0.00    +0.021 A 
ATOM     20  C20 UNL     1       6.048   1.522   3.050 -0.26 +0.00    +0.125 A 
ATOM     21  C21 UNL     1       6.097   0.460   2.146 +4.07 +0.00    +0.043 A 
ATOM     22  C22 UNL     1       5.436  -0.733   2.429+99.99 +0.00    +0.006 A 
ATOM     23  C23 UNL     1       4.732  -0.856   3.623 +2.60 +0.00    +0.043 A 
ATOM     24  C24 UNL     1       4.693   0.213   4.518 +0.39 +0.00    +0.125 A 
ATOM     25  C25 UNL     1       5.031   8.453   9.219+99.99 +0.00    +0.202 C 
ATOM     26  C26 UNL     1       8.001   5.375   3.613 -0.15 +0.00    +0.202 C 
ATOM     27  C27 UNL     1       6.789   7.731   0.542 -0.41 +0.00    +0.153 C 
ATOM     28  C28 UNL     1       5.419   5.677   0.974 -0.16 +0.00    +0.243 C 
ATOM     29  C29 UNL     1       5.846   5.125  -0.414 +0.00 +0.00    +0.180 C 
ATOM     30  C30 UNL     1       4.772   4.265  -1.128 -0.16 +0.00    +0.009 C 
ATOM     31  C31 UNL     1       4.460   2.916  -0.471 -0.12 +0.00    +0.012 C 
ATOM     32  C32 UNL     1       3.481   5.059  -1.345 +0.61 +0.00    +0.012 C 
ATOM     33  C33 UNL     1       8.283   4.700  -0.761 -0.07 +0.00    +0.241 C 
ATOM     34  C34 UNL     1       9.478   3.842  -0.269 -0.08 +0.00    +0.184 C 
ATOM     35  C35 UNL     1      10.804   4.189  -1.003 -0.16 +0.00    +0.010 C 
ATOM     36  C36 UNL     1      12.034   3.678  -0.247+14.73 +0.00    +0.012 C 
ATOM     37  C37 UNL     1      10.865   3.731  -2.460 +2.05 +0.00    +0.012 C 
ATOM     38  C38 UNL     1       8.599   1.732  -1.372 -0.10 +0.00    +0.156 C 
ATOM     39  C39 UNL     1       9.528   1.586   0.857 -0.08 +0.00    +0.363 C 
ATOM     40  C40 UNL     1      10.571   1.480   2.958+14.83 +0.00    +0.219 C 
ATOM     41  C41 UNL     1      11.307   2.421   3.875 +2.75 -0.00    -0.034 A 
ATOM     42  C42 UNL     1      10.599   3.196   4.798 -0.42 +0.00    +0.011 A 
ATOM     43  C43 UNL     1      11.245   4.187   5.541 -0.41 +0.00    +0.030 A 
ATOM     44  C44 UNL     1      12.613   4.406   5.389 +0.36 +0.00    +0.034 A 
ATOM     45  C45 UNL     1      13.339   3.582   4.523+99.99 +0.00    +0.030 A 
ATOM     46  C46 UNL     1      12.689   2.612   3.755+99.99 +0.00    +0.011 A 
ATOM     47  C47 UNL     1      12.762   6.577   6.619 -0.30 +0.00    +0.245 C 
ATOM     48  C48 UNL     1      13.829   7.529   7.221 +0.35 +0.00    +0.177 C 
ATOM     49  C49 UNL     1      14.178   7.183   8.676 -0.41 +0.00    +0.036 C 
ATOM     50  C50 UNL     1      15.039   5.927   8.867 +1.01 +0.00    +0.022 C 
ATOM     51  C51 UNL     1      16.552   6.150   8.809+99.99 +0.00    +0.124 C 
ATOM     52  C52 UNL     1      16.950   6.126   6.373+99.99 +0.00    +0.313 C 
ATOM     53  C53 UNL     1      12.523   9.618   7.817 -0.18 +0.00    +0.241 C 
ATOM     54  C54 UNL     1      12.202  11.047   7.290+99.99 +0.00    +0.180 C 
ATOM     55  C55 UNL     1      10.917  11.109   6.433+99.99 +0.00    +0.009 C 
ATOM     56  C56 UNL     1       9.676  10.765   7.260+99.99 +0.00    +0.012 C 
ATOM     57  C57 UNL     1      10.967  10.236   5.180+99.99 +0.00    +0.012 C 
ATOM     58  C58 UNL     1      13.576  12.782   6.090+99.99 +0.00    +0.218 C 
ATOM     59  C59 UNL     1      14.984  13.060   5.590+99.99 +0.00    +0.103 C 
ATOM     60  C60 UNL     1      15.502  11.988   4.629+99.99 +0.00    +0.009 C 
ATOM     61  C61 UNL     1      16.992  12.166   4.327+72.62 +0.00    +0.002 C 
ATOM     62  C62 UNL     1      17.545  10.923   3.631 -0.25 +0.00    +0.020 C 
ATOM     63  C63 UNL     1      19.052  11.025   3.386 +4.82 +0.00    +0.135 C 
ATOM     64  C64 UNL     1      19.985   8.768   3.841 +0.43 +0.00    +0.228 C 
ATOM     65  C65 UNL     1      20.516   7.622   3.032+57.59 +0.00    +0.128 C 
ATOM     66  C66 UNL     1      19.744   7.767   1.725+99.99 +0.00    +0.148 C 
ATOM     67  C67 UNL     1      19.464   9.257   1.695 +1.16 +0.00    +0.240 C 
ATOM     68  C68 UNL     1      17.839   6.411   0.154+99.99 +0.00    +0.084 C 
ATOM     69  C69 UNL     1      17.304   7.536  -0.706+12.24 -0.00    -0.023 A 
ATOM     70  C70 UNL     1      17.219   7.249  -2.197 +0.40 +0.00    +0.011 A 
ATOM     71  C71 UNL     1      18.262   8.194  -1.685 +3.98 +0.00    +0.011 A 
ATOM     72  C72 UNL     1      16.198   8.413  -0.121 -0.52 +0.00    +0.123 C 
ATOM     73  C73 UNL     1      15.002   7.669   0.430 +5.42 +0.00    +0.282 C 
ATOM     74  C74 UNL     1      11.931   7.976   0.846+57.95 +0.00    +0.251 C 
ATOM     75  C75 UNL     1      10.804   7.464   1.692 +0.27 +0.00    +0.115 C 
ATOM     76  C76 UNL     1      11.463   7.116   3.022 -0.36 +0.00    +0.115 C 
ATOM     77  C77 UNL     1      12.826   7.743   2.920 -0.07 +0.00    +0.251 C 
ATOM     78  O1  UNL     1       5.331   6.450   5.572 +0.48 -0.00    -0.273 OA
ATOM     79  O2  UNL     1       4.019   2.681   8.213+22.30 -0.00    -0.273 OA
ATOM     80  O3  UNL     1       4.760   7.102   9.574+99.99 -0.00    -0.388 OA
ATOM     81  O4  UNL     1       8.827   4.419   7.996 -0.28 -0.00    -0.394 OA
ATOM     82  O5  UNL     1       8.171   6.708   3.154 -0.12 -0.00    -0.388 OA
ATOM     83  O6  UNL     1       4.764   4.961   1.736 -0.16 -0.00    -0.271 OA
ATOM     84  O7  UNL     1       8.409   5.676  -1.498 -0.09 -0.00    -0.271 OA
ATOM     85  O8  UNL     1       9.362   0.371   0.876 -0.35 -0.00    -0.238 OA
ATOM     86  O9  UNL     1      10.108   2.279   1.864 +5.41 -0.00    -0.299 OA
ATOM     87  O10 UNL     1      11.564   6.855   6.641 -0.21 -0.00    -0.271 OA
ATOM     88  O11 UNL     1      16.113   5.283   6.087+99.99 -0.00    -0.248 OA
ATOM     89  O12 UNL     1      11.994   9.156   8.823 +1.57 -0.00    -0.271 OA
ATOM     90  O13 UNL     1      12.702  13.641   6.084+52.92 -0.00    -0.274 OA
ATOM     91  O14 UNL     1      19.908   8.792   5.060 +3.48 -0.00    -0.273 OA
ATOM     92  O15 UNL     1      19.111   9.898   0.716 -0.27 -0.00    -0.272 OA
ATOM     93  O16 UNL     1      14.751   6.484   0.257+94.48 -0.00    -0.263 OA
ATOM     94  O17 UNL     1      14.219   8.543   1.139+99.99 -0.00    -0.187 OA
ATOM     95  O18 UNL     1      11.809   8.431  -0.282+99.99 -0.00    -0.271 OA
ATOM     96  O19 UNL     1      13.542   8.055   3.863 -0.34 -0.00    -0.271 OA
ATOM     97  N1  UNL     1       6.926   6.681   7.166 +5.22 -0.00    -0.342 N 
ATOM     98  N2  UNL     1       3.831   4.158   6.475 -0.16 -0.00    -0.360 N 
ATOM     99  N3  UNL     1       5.903   6.931   1.383 -0.16 -0.00    -0.347 N 
ATOM    100  N4  UNL     1       7.072   4.351  -0.204 -0.02 -0.00    -0.346 N 
ATOM    101  N5  UNL     1       9.142   2.398  -0.199 -0.04 -0.00    -0.319 N 
ATOM    102  N6  UNL     1      13.312   5.438   6.045 -0.24 -0.00    -0.325 N 
ATOM    103  N7  UNL     1      17.108   6.712   7.594+18.38 -0.00    -0.343 N 
ATOM    104  N8  UNL     1      17.815   6.613   5.452+99.99 -0.00    -0.352 N 
ATOM    105  N9  UNL     1      13.426   8.928   7.022 +0.00 -0.00    -0.346 N 
ATOM    106  N10 UNL     1      13.408  11.513   6.587+71.28 -0.00    -0.347 N 
ATOM    107  N11 UNL     1      19.590   9.743   2.969 -0.13 -0.00    -0.287 N 
ATOM    108  N12 UNL     1      13.060   7.918   1.597+26.75 -0.00    -0.145 N 
ATOM    109  F1  UNL     1       4.022   0.052   5.666+12.55 -0.00    -0.205 F 
ATOM    110  F2  UNL     1       6.716   2.643   2.744 -0.05 -0.00    -0.205 F 
ATOM    111  S1  UNL     1      18.159   6.847   1.878+23.19 -0.00    -0.153 SA
ATOM    112  HA6 UNL     1       8.995   3.786   8.717 +0.15 +0.00    +0.210 HD
ATOM    113  HA7 UNL     1       4.051   5.101   6.157 +0.07 +0.00    +0.162 HD
ATOM    114  HA8 UNL     1       7.069   3.660   0.541 +0.06 +0.00    +0.163 HD
ATOM    115  HA9 UNL     1      14.331   5.410   5.945 +0.11 +0.00    +0.169 HD
ATOM    116  HB0 UNL     1      18.020   7.133   7.704+82.86 +0.00    +0.164 HD
ATOM    117  HB1 UNL     1      17.636   6.331   4.495 +6.90 +0.00    +0.160 HD
ATOM    118  HB2 UNL     1      18.225   7.531   5.576 +1.56 +0.00    +0.160 HD
ATOM    119  HB3 UNL     1      13.434   9.216   6.046 +0.13 +0.00    +0.163 HD
ATOM    120  HB4 UNL     1      14.257  11.031   6.861 +1.12 +0.00    +0.163 HD
ENDROOT
TORSDOF 47
TER
