USER    Run = 1
USER    DPF = ligand_300_receptor.dpf
USER  
USER    Estimated Free Energy of Binding    = +205.73 kcal/mol  [=(1)+(2)+(3)-(4)]
USER    
USER    (1) Final Intermolecular Energy     = +204.54 kcal/mol
USER        vdW + Hbond + desolv Energy     = +204.54 kcal/mol
USER        Electrostatic Energy            =   +0.00 kcal/mol
USER    (2) Final Total Internal Energy     =   -4.77 kcal/mol
USER    (3) Torsional Free Energy           =   +1.19 kcal/mol
USER    (4) Unbound System's Energy  [=(2)] =   -4.77 kcal/mol
USER    
USER    
USER    NEWDPF move ligand_300.pdbqt
USER    NEWDPF about 0.000000 0.000000 0.000000
USER    NEWDPF tran0 15.079471 7.385600 1.637947
USER    NEWDPF quaternion0 0.053187 0.518444 0.851750 0.053933
USER    NEWDPF axisangle0 0.053265 0.519199 0.852992 173.816776
USER    NEWDPF quat0 0.053265 0.519199 0.852992 173.816776
USER    NEWDPF dihe0 180.00 72.06 -145.25 180.00 -178.78 -41.33 107.67 -7.79 -180.00 -56.46 -36.87 87.79 41.50 -39.97 -34.16 43.99 180.00 
USER  keepresnum = 1 
USER  
REMARK  17 active torsions:
REMARK  status: ('A' for Active; 'I' for Inactive)
REMARK    1  A    between atoms: C4_4  and  C34_34 
REMARK    2  A    between atoms: C6_6  and  C7_7 
REMARK    3  A    between atoms: C6_6  and  N2_60 
REMARK       I    between atoms: C7_7  and  N3_61 
REMARK    4  A    between atoms: C8_8  and  N3_61 
REMARK    5  A    between atoms: C13_13  and  C14_14 
REMARK       I    between atoms: C14_14  and  N5_63 
REMARK    6  A    between atoms: C15_15  and  N5_63 
REMARK    7  A    between atoms: C21_21  and  C22_22 
REMARK       I    between atoms: C21_21  and  N4_62 
REMARK    8  A    between atoms: C22_22  and  C23_23 
REMARK    9  A    between atoms: C22_22  and  N6_64 
REMARK   10  A    between atoms: C28_28  and  C29_29 
REMARK       I    between atoms: C28_28  and  N6_64 
REMARK   11  A    between atoms: C29_29  and  N7_65 
REMARK   12  A    between atoms: C34_34  and  N8_66 
REMARK   13  A    between atoms: C40_40  and  C41_41 
REMARK   14  A    between atoms: C40_40  and  N1_59 
REMARK       I    between atoms: C41_41  and  N9_67 
REMARK   15  A    between atoms: C43_43  and  C58_58 
REMARK   16  A    between atoms: C47_47  and  C50_50 
REMARK   17  A    between atoms: C50_50  and  C51_51 
REMARK       I    between atoms: C58_58  and  N10_68 
USER                              x       y       z     vdW  Elec       q    Type
USER                           _______ _______ _______ _____ _____    ______ ____
ROOT
ATOM      1  C7  UNL     1      16.284   7.992  -0.019 -0.25 +0.00    +0.250 C 
ATOM      2  N3  UNL     1      15.064   8.255   0.571 +1.31 -0.00    -0.326 N 
ATOM      3  O1  UNL     1      16.589   6.997  -0.672 +1.86 -0.00    -0.271 OA
ATOM      4  H66 UNL     1      15.059   9.113   1.122 -0.37 +0.00    +0.169 HD
ENDROOT
BRANCH   1   5
ATOM      5  C6  UNL     1      17.275   9.149   0.157 -0.24 +0.00    +0.375 C 
BRANCH   5   6
ATOM      6  N2  UNL     1      18.193   9.286  -1.006 +0.63 +0.00    +0.105 N 
ATOM      7  C2  UNL     1      18.070  10.617  -1.674+15.74 +0.00    +0.247 C 
ATOM      8  C1  UNL     1      17.747  10.398  -3.157+19.36 +0.00    +0.045 C 
ATOM      9  C3  UNL     1      19.339  11.522  -1.574+22.51 +0.00    +0.308 C 
ATOM     10  N1  UNL     1      19.939  11.608  -0.228 -0.53 +0.00    +0.107 N 
ATOM     11  C4  UNL     1      20.176  10.240   0.328 -0.21 +0.00    +0.279 C 
ATOM     12  C5  UNL     1      19.592   9.086  -0.555 +6.54 +0.00    +0.311 C 
BRANCH  10  13
ATOM     13  C40 UNL     1      19.104  12.470   0.646 -0.33 +0.00    +0.375 C 
BRANCH  13  14
ATOM     14  C41 UNL     1      19.071  12.020   2.114 -0.45 +0.00    +0.253 C 
ATOM     15  N9  UNL     1      17.907  11.437   2.585 -0.24 -0.00    -0.314 N 
ATOM     16  C42 UNL     1      17.930  10.667   3.841 +0.40 +0.00    +0.156 C 
ATOM     17  C45 UNL     1      16.584  11.467   2.107 -0.50 +0.00    +0.045 A 
ATOM     18  C43 UNL     1      16.606   9.879   3.916 -0.38 +0.00    +0.083 C 
ATOM     19  C44 UNL     1      15.795  10.575   2.841 -0.15 -0.00    -0.012 A 
ATOM     20  C57 UNL     1      15.966  10.028   5.300 +9.50 +0.00    +0.032 C 
ATOM     21  C49 UNL     1      14.451  10.393   2.547 +7.58 +0.00    +0.011 A 
ATOM     22  C48 UNL     1      13.887  11.142   1.514+28.41 +0.00    +0.008 A 
ATOM     23  C47 UNL     1      14.656  12.072   0.785 +2.94 -0.00    -0.052 A 
ATOM     24  C46 UNL     1      16.014  12.245   1.112 +0.80 +0.00    +0.037 A 
ATOM     25  O7  UNL     1      20.060  12.114   2.848 +0.93 -0.00    -0.271 OA
BRANCH  18  26
ATOM     26  C58 UNL     1      16.861   8.400   3.593 -0.44 +0.00    +0.230 C 
ATOM     27  N10 UNL     1      18.165   7.995   3.497 -0.28 -0.00    -0.369 N 
ATOM     28  H70 UNL     1      18.300   7.044   3.177 +0.09 +0.00    +0.159 HD
ATOM     29  H71 UNL     1      18.890   8.659   3.254 +0.10 +0.00    +0.159 HD
ATOM     30  O8  UNL     1      15.967   7.569   3.460 -0.82 -0.00    -0.272 OA
ENDBRANCH  18  26
BRANCH  23  31
ATOM     31  C50 UNL     1      13.974  12.925  -0.267+21.55 +0.00    +0.077 C 
BRANCH  31  32
ATOM     32  C51 UNL     1      12.919  12.228  -1.098 +5.70 -0.00    -0.054 A 
ATOM     33  C52 UNL     1      11.672  11.903  -0.538+18.06 +0.00    +0.010 A 
ATOM     34  C53 UNL     1      10.701  11.256  -1.303+19.77 +0.00    +0.043 A 
ATOM     35  C54 UNL     1      10.975  10.930  -2.626 +1.20 +0.00    +0.116 A 
ATOM     36  C55 UNL     1      12.200  11.244  -3.200 +6.86 +0.00    +0.043 A 
ATOM     37  F3  UNL     1      10.039  10.313  -3.359 +0.01 -0.00    -0.206 F 
ATOM     38  C56 UNL     1      13.171  11.897  -2.439+11.11 +0.00    +0.010 A 
ENDBRANCH  31  32
ENDBRANCH  23  31
ENDBRANCH  13  14
ENDBRANCH  10  13
BRANCH  11  39
ATOM     39  C34 UNL     1      21.713  10.028   0.503 -0.28 +0.00    +0.310 C 
BRANCH  39  40
ATOM     40  N8  UNL     1      22.114   8.740   1.115 -0.13 +0.00    +0.099 N 
ATOM     41  C35 UNL     1      22.676   7.859   0.053 +0.01 +0.00    +0.299 C 
ATOM     42  C36 UNL     1      23.611   6.776   0.602 -0.36 +0.00    +0.198 C 
ATOM     43  O6  UNL     1      24.777   7.334   1.222 -0.15 -0.00    -0.387 OA
ATOM     44  C37 UNL     1      24.532   8.614   1.827 -0.36 +0.00    +0.203 C 
ATOM     45  C38 UNL     1      23.059   8.806   2.267 -0.33 +0.00    +0.242 C 
ATOM     46  C39 UNL     1      22.941  10.010   3.201 -0.45 +0.00    +0.045 C 
ENDBRANCH  39  40
ENDBRANCH  11  39
ENDBRANCH   5   6
ENDBRANCH   1   5
BRANCH   2  47
ATOM     47  C8  UNL     1      13.920   7.443   0.620 +5.28 +0.00    +0.035 A 
ATOM     48  C9  UNL     1      13.213   7.422   1.829 +2.21 +0.00    +0.039 A 
ATOM     49  C10 UNL     1      12.093   6.610   1.942 -0.36 -0.00    -0.016 A 
ATOM     50  C11 UNL     1      11.661   5.831   0.865 -0.07 -0.00    -0.031 A 
ATOM     51  C13 UNL     1      11.194   6.405   3.134 -0.20 +0.00    +0.214 A 
ATOM     52  C12 UNL     1      10.444   5.050   1.234 +2.89 +0.00    +0.166 A 
ATOM     53  C32 UNL     1      12.338   5.850  -0.340 -0.40 +0.00    +0.012 A 
ATOM     54  N4  UNL     1      10.185   5.443   2.623 -0.05 -0.00    -0.329 N 
ATOM     55  C21 UNL     1       8.998   5.256   3.302 -0.13 +0.00    +0.244 C 
ATOM     56  O3  UNL     1       8.840   5.749   4.422 -0.15 -0.00    -0.271 OA
ATOM     57  C33 UNL     1      13.472   6.662  -0.459 -0.22 +0.00    +0.030 A 
BRANCH  55  58
ATOM     58  C22 UNL     1       7.978   4.254   2.716 -0.14 +0.00    +0.181 C 
BRANCH  58  59
ATOM     59  C23 UNL     1       7.255   4.815   1.470 -0.15 +0.00    +0.021 C 
ATOM     60  C24 UNL     1       7.837   6.174   1.039 -0.25 +0.00    +0.033 C 
ATOM     61  C25 UNL     1       7.026   6.785  -0.097 -0.20 +0.00    +0.168 C 
ATOM     62  O4  UNL     1       5.657   6.912   0.274 -0.03 -0.00    -0.391 OA
ATOM     63  C26 UNL     1       5.056   5.649   0.548 -0.10 +0.00    +0.168 C 
ATOM     64  C27 UNL     1       5.745   4.977   1.729 -0.18 +0.00    +0.033 C 
ENDBRANCH  58  59
BRANCH  58  65
ATOM     65  N6  UNL     1       7.026   4.010   3.804 -0.06 -0.00    -0.346 N 
ATOM     66  C28 UNL     1       5.982   3.119   3.680 -0.15 +0.00    +0.251 C 
ATOM     67  O5  UNL     1       5.783   2.472   2.653 -0.13 -0.00    -0.271 OA
ATOM     68  H68 UNL     1       7.168   4.497   4.684 +0.08 +0.00    +0.163 HD
BRANCH  66  69
ATOM     69  C29 UNL     1       5.105   2.977   4.939 -0.07 +0.00    +0.307 C 
ATOM     70  C30 UNL     1       3.708   3.498   4.609 -0.18 +0.00    +0.053 C 
BRANCH  69  71
ATOM     71  N7  UNL     1       5.664   3.766   6.055 -0.32 +0.00    +0.092 N 
ATOM     72  C31 UNL     1       4.852   4.938   6.357 -0.25 +0.00    +0.307 C 
ATOM     73  H69 UNL     1       5.684   3.162   6.882 -0.11 +0.00    +0.316 HD
ENDBRANCH  69  71
ENDBRANCH  66  69
ENDBRANCH  58  65
ENDBRANCH  55  58
BRANCH  51  74
ATOM     74  C14 UNL     1      12.003   5.906   4.366 -0.12 +0.00    +0.250 C 
ATOM     75  N5  UNL     1      11.318   4.981   5.133 -0.14 -0.00    -0.320 N 
ATOM     76  H67 UNL     1      10.324   4.936   4.950 +0.11 +0.00    +0.169 HD
ATOM     77  O2  UNL     1      13.145   6.307   4.573 -0.29 -0.00    -0.270 OA
BRANCH  75  78
ATOM     78  C15 UNL     1      11.754   4.313   6.296 -0.38 +0.00    +0.112 A 
ATOM     79  C16 UNL     1      13.141   4.244   6.488 -0.38 +0.00    +0.146 A 
ATOM     80  C17 UNL     1      13.703   3.608   7.594 +0.21 +0.00    +0.045 A 
ATOM     81  F2  UNL     1      13.962   4.789   5.573 +0.20 -0.00    -0.204 F 
ATOM     82  C18 UNL     1      12.870   3.030   8.548 +0.72 +0.00    +0.006 A 
ATOM     83  C19 UNL     1      11.486   3.107   8.389 +2.82 +0.00    +0.045 A 
ATOM     84  C20 UNL     1      10.935   3.748   7.275 -0.37 +0.00    +0.146 A 
ATOM     85  F1  UNL     1       9.602   3.860   7.237 -0.13 -0.00    -0.204 F 
ENDBRANCH  75  78
ENDBRANCH  51  74
ENDBRANCH   2  47
TORSDOF 17
TER
