USER    Run = 1
USER    DPF = ligand_25_receptor.dpf
USER  
USER    Estimated Free Energy of Binding    =  +3.95e+004 kcal/mol  [=(1)+(2)+(3)-(4)]
USER    
USER    (1) Final Intermolecular Energy     =  +3.95e+004 kcal/mol
USER        vdW + Hbond + desolv Energy     =  +3.95e+004 kcal/mol
USER        Electrostatic Energy            =   +0.00 kcal/mol
USER    (2) Final Total Internal Energy     =   +0.00 kcal/mol
USER    (3) Torsional Free Energy           =   +1.19 kcal/mol
USER    (4) Unbound System's Energy  [=(2)] =   +0.00 kcal/mol
USER    
USER    
USER    NEWDPF move ligand_25.pdbqt
USER    NEWDPF about 0.000000 0.000000 0.000000
USER    NEWDPF tran0 17.016067 5.974375 2.038631
USER    NEWDPF quaternion0 -0.000748 0.921053 0.374853 0.105579
USER    NEWDPF axisangle0 -0.000752 0.926229 0.376960 167.878891
USER    NEWDPF quat0 -0.000752 0.926229 0.376960 167.878891
USER  keepresnum = 1 
USER  
REMARK  0 active torsions:
REMARK  status: ('A' for Active; 'I' for Inactive)
REMARK       I    between atoms: C2_2  and  C3_3 
REMARK       I    between atoms: C2_2  and  O17_75 
REMARK       I    between atoms: C3_3  and  C4_4 
REMARK       I    between atoms: C3_3  and  N12_87 
REMARK       I    between atoms: C4_4  and  N1_76 
REMARK       I    between atoms: C5_5  and  C7_7 
REMARK       I    between atoms: C5_5  and  N1_76 
REMARK       I    between atoms: C7_7  and  N2_77 
REMARK       I    between atoms: C8_8  and  C9_9 
REMARK       I    between atoms: C8_8  and  C12_12 
REMARK       I    between atoms: C8_8  and  N2_77 
REMARK       I    between atoms: C12_12  and  N3_78 
REMARK       I    between atoms: C13_13  and  C14_14 
REMARK       I    between atoms: C13_13  and  C17_17 
REMARK       I    between atoms: C13_13  and  N3_78 
REMARK       I    between atoms: C17_17  and  N4_79 
REMARK       I    between atoms: C18_18  and  C19_19 
REMARK       I    between atoms: C18_18  and  C23_23 
REMARK       I    between atoms: C18_18  and  N4_79 
REMARK       I    between atoms: C19_19  and  C20_20 
REMARK       I    between atoms: C20_20  and  C21_21 
REMARK       I    between atoms: C21_21  and  C22_22 
REMARK       I    between atoms: C22_22  and  N5_80 
REMARK       I    between atoms: C23_23  and  N6_81 
REMARK       I    between atoms: C24_24  and  C25_25 
REMARK       I    between atoms: C24_24  and  C29_29 
REMARK       I    between atoms: C24_24  and  N6_81 
REMARK       I    between atoms: C25_25  and  C26_26 
REMARK       I    between atoms: C26_26  and  C27_27 
REMARK       I    between atoms: C27_27  and  C28_28 
REMARK       I    between atoms: C28_28  and  N7_82 
REMARK       I    between atoms: C29_29  and  N8_83 
REMARK       I    between atoms: C30_30  and  C31_31 
REMARK       I    between atoms: C30_30  and  C32_32 
REMARK       I    between atoms: C30_30  and  N8_83 
REMARK       I    between atoms: C31_31  and  O7_65 
REMARK       I    between atoms: C32_32  and  N9_84 
REMARK       I    between atoms: C33_33  and  C34_34 
REMARK       I    between atoms: C33_33  and  C35_35 
REMARK       I    between atoms: C33_33  and  N9_84 
REMARK       I    between atoms: C34_34  and  O9_67 
REMARK       I    between atoms: C35_35  and  N10_85 
REMARK       I    between atoms: C36_36  and  C38_38 
REMARK       I    between atoms: C36_36  and  N10_85 
REMARK       I    between atoms: C38_38  and  N11_86 
REMARK       I    between atoms: C39_39  and  C40_40 
REMARK       I    between atoms: C39_39  and  C43_43 
REMARK       I    between atoms: C39_39  and  N11_86 
REMARK       I    between atoms: C43_43  and  O13_71 
REMARK       I    between atoms: C44_44  and  C45_45 
REMARK       I    between atoms: C44_44  and  N12_87 
REMARK       I    between atoms: C45_45  and  C46_46 
REMARK       I    between atoms: C45_45  and  N13_88 
REMARK       I    between atoms: C46_46  and  C47_47 
REMARK       I    between atoms: C50_50  and  O15_73 
REMARK       I    between atoms: C53_53  and  C54_54 
REMARK       I    between atoms: C53_53  and  N13_88 
REMARK       I    between atoms: C54_54  and  C55_55 
REMARK       I    between atoms: C54_54  and  N16_92 
REMARK       I    between atoms: C55_55  and  C56_56 
USER                              x       y       z     vdW  Elec       q    Type
USER                           _______ _______ _______ _____ _____    ______ ____
ROOT
ATOM      1  C1  UNL     1      20.762   7.413  -0.241+99.99 +0.00    +0.042 C 
ATOM      2  C2  UNL     1      21.133   6.072   0.379+99.99 +0.00    +0.146 C 
ATOM      3  C3  UNL     1      22.014   6.237   1.633+99.99 +0.00    +0.205 C 
ATOM      4  C4  UNL     1      22.342   4.854   2.233+17.13 +0.00    +0.243 C 
ATOM      5  C5  UNL     1      21.459   2.847   3.379 +0.25 +0.00    +0.172 C 
ATOM      6  C6  UNL     1      20.682   2.625   4.668+67.73 +0.00    +0.042 C 
ATOM      7  C7  UNL     1      20.919   1.966   2.232+53.42 +0.00    +0.240 C 
ATOM      8  C8  UNL     1      21.104   1.765  -0.279+99.99 +0.00    +0.180 C 
ATOM      9  C9  UNL     1      21.122   0.268  -0.670+99.99 +0.00    +0.009 C 
ATOM     10  C10 UNL     1      20.288  -0.691   0.175+99.99 +0.00    +0.012 C 
ATOM     11  C11 UNL     1      20.741   0.100  -2.147+20.32 +0.00    +0.012 C 
ATOM     12  C12 UNL     1      19.812   2.576  -0.580+53.17 +0.00    +0.241 C 
ATOM     13  C13 UNL     1      17.468   2.980   0.143+99.99 +0.00    +0.180 C 
ATOM     14  C14 UNL     1      16.267   2.032   0.394+99.99 +0.00    +0.009 C 
ATOM     15  C15 UNL     1      16.146   1.575   1.851+99.99 +0.00    +0.012 C 
ATOM     16  C16 UNL     1      14.931   2.600  -0.090+99.99 +0.00    +0.012 C 
ATOM     17  C17 UNL     1      17.624   4.122   1.194+99.99 +0.00    +0.241 C 
ATOM     18  C18 UNL     1      16.510   6.124   2.173+99.99 +0.00    +0.176 C 
ATOM     19  C19 UNL     1      17.321   7.372   1.800 +0.41 +0.00    +0.035 C 
ATOM     20  C20 UNL     1      17.132   7.915   0.376 +1.51 +0.00    +0.004 C 
ATOM     21  C21 UNL     1      15.787   8.577   0.069 -0.42 +0.00    +0.030 C 
ATOM     22  C22 UNL     1      15.432   9.787   0.937 +5.22 +0.00    +0.267 C 
ATOM     23  C23 UNL     1      15.012   6.377   2.449+99.99 +0.00    +0.241 C 
ATOM     24  C24 UNL     1      13.384   7.421   4.030 -0.40 +0.00    +0.176 C 
ATOM     25  C25 UNL     1      13.474   7.880   5.495 -0.45 +0.00    +0.035 C 
ATOM     26  C26 UNL     1      12.147   7.721   6.245 -0.48 +0.00    +0.004 C 
ATOM     27  C27 UNL     1      12.240   8.091   7.728 +0.17 +0.00    +0.030 C 
ATOM     28  C28 UNL     1      12.464   9.585   7.962 -0.23 +0.00    +0.267 C 
ATOM     29  C29 UNL     1      12.606   8.433   3.149 +0.49 +0.00    +0.241 C 
ATOM     30  C30 UNL     1      11.504   8.729   0.930+99.99 +0.00    +0.200 C 
ATOM     31  C31 UNL     1      11.827   8.383  -0.529+99.99 +0.00    +0.199 C 
ATOM     32  C32 UNL     1      10.050   8.323   1.258+17.88 +0.00    +0.243 C 
ATOM     33  C33 UNL     1       8.423   8.265   3.169 +0.16 +0.00    +0.200 C 
ATOM     34  C34 UNL     1       7.135   8.206   2.336 +0.04 +0.00    +0.199 C 
ATOM     35  C35 UNL     1       8.834   6.935   3.851 -0.13 +0.00    +0.243 C 
ATOM     36  C36 UNL     1       8.057   4.907   5.040 -0.23 +0.00    +0.172 C 
ATOM     37  C37 UNL     1       8.570   5.082   6.466 -0.40 +0.00    +0.042 C 
ATOM     38  C38 UNL     1       6.735   4.116   5.035 -0.21 +0.00    +0.240 C 
ATOM     39  C39 UNL     1       5.665   1.961   5.599+99.99 +0.00    +0.185 C 
ATOM     40  C40 UNL     1       5.849   0.493   5.159+99.99 +0.00    +0.010 C 
ATOM     41  C41 UNL     1       5.965   0.393   3.636 +0.83 +0.00    +0.012 C 
ATOM     42  C42 UNL     1       7.046  -0.199   5.819+99.99 +0.00    +0.012 C 
ATOM     43  C43 UNL     1       5.325   2.054   7.091+99.99 +0.00    +0.163 C 
ATOM     44  C44 UNL     1      23.970   7.665   2.183 +0.06 +0.00    +0.241 C 
ATOM     45  C45 UNL     1      25.430   7.956   1.765 -0.38 +0.00    +0.180 C 
ATOM     46  C46 UNL     1      25.915   9.276   2.392 -0.58 +0.00    +0.073 C 
ATOM     47  C47 UNL     1      27.309   9.662   1.957+11.89 -0.00    -0.056 A 
ATOM     48  C48 UNL     1      27.485  10.740   1.080+99.99 +0.00    +0.010 A 
ATOM     49  C49 UNL     1      28.746  11.030   0.569+99.99 +0.00    +0.037 A 
ATOM     50  C50 UNL     1      29.828  10.237   0.931+99.99 +0.00    +0.065 A 
ATOM     51  C51 UNL     1      29.690   9.212   1.858+74.68 +0.00    +0.037 A 
ATOM     52  C52 UNL     1      28.426   8.922   2.372 +6.26 +0.00    +0.010 A 
ATOM     53  C53 UNL     1      25.142   8.723  -0.599 +3.64 +0.00    +0.251 C 
ATOM     54  C54 UNL     1      25.332   8.377  -2.104+99.99 +0.00    +0.314 C 
ATOM     55  C55 UNL     1      26.718   7.868  -2.542+99.99 +0.00    +0.103 C 
ATOM     56  C56 UNL     1      27.817   8.874  -2.577+99.77 +0.00    +0.028 A 
ATOM     57  C57 UNL     1      29.097   8.870  -2.067 +8.86 +0.00    +0.114 A 
ATOM     58  C58 UNL     1      28.921  10.707  -3.140+99.99 +0.00    +0.180 A 
ATOM     59  O1  UNL     1      23.417   4.282   2.037 -0.04 -0.00    -0.271 OA
ATOM     60  O2  UNL     1      19.910   1.273   2.334+99.99 -0.00    -0.271 OA
ATOM     61  O3  UNL     1      19.813   3.540  -1.349+57.53 -0.00    -0.271 OA
ATOM     62  O4  UNL     1      18.566   4.201   1.986+99.99 -0.00    -0.271 OA
ATOM     63  O5  UNL     1      14.120   5.850   1.782+99.99 -0.00    -0.271 OA
ATOM     64  O6  UNL     1      12.125   9.485   3.571 +1.38 -0.00    -0.271 OA
ATOM     65  O7  UNL     1      11.071   9.177  -1.440+99.99 -0.00    -0.398 OA
ATOM     66  O8  UNL     1       9.362   7.631   0.510 -0.20 -0.00    -0.271 OA
ATOM     67  O9  UNL     1       7.046   7.048   1.513 -0.19 -0.00    -0.398 OA
ATOM     68  O10 UNL     1      10.015   6.603   3.982 -0.18 -0.00    -0.271 OA
ATOM     69  O11 UNL     1       5.657   4.646   4.766 -0.13 -0.00    -0.271 OA
ATOM     70  O12 UNL     1       6.084   2.409   7.981+99.99 -0.00    -0.648 OA
ATOM     71  O13 UNL     1       4.068   1.661   7.376+76.39 -0.00    -0.775 OA
ATOM     72  O14 UNL     1      23.501   7.998   3.269 +0.40 -0.00    -0.271 OA
ATOM     73  O15 UNL     1      31.031  10.402   0.311 +0.18 -0.00    -0.361 OA
ATOM     74  O16 UNL     1      24.486   9.709  -0.258 +9.21 -0.00    -0.271 OA
ATOM     75  O17 UNL     1      21.815   5.302  -0.623+29.92 -0.00    -0.393 OA
ATOM     76  N1  UNL     1      21.328   4.244   2.945+68.20 -0.00    -0.346 N 
ATOM     77  N2  UNL     1      21.620   2.103   1.049+33.21 -0.00    -0.346 N 
ATOM     78  N3  UNL     1      18.695   2.184   0.117+19.36 -0.00    -0.346 N 
ATOM     79  N4  UNL     1      16.623   5.065   1.176+99.99 -0.00    -0.346 N 
ATOM     80  N5  UNL     1      16.463  10.814   0.889 -0.46 +0.00    +0.078 N 
ATOM     81  N6  UNL     1      14.740   7.215   3.504 +0.04 -0.00    -0.346 N 
ATOM     82  N7  UNL     1      12.486   9.871   9.392 +3.28 +0.00    +0.078 N 
ATOM     83  N8  UNL     1      12.405   8.025   1.848 +8.37 -0.00    -0.344 N 
ATOM     84  N9  UNL     1       9.588   8.813   2.463 +3.72 -0.00    -0.344 N 
ATOM     85  N10 UNL     1       7.812   6.202   4.409 -0.03 -0.00    -0.346 N 
ATOM     86  N11 UNL     1       6.856   2.778   5.350+20.79 -0.00    -0.345 N 
ATOM     87  N12 UNL     1      23.281   6.872   1.293 -0.03 -0.00    -0.344 N 
ATOM     88  N13 UNL     1      25.629   7.810   0.309 -0.14 -0.00    -0.346 N 
ATOM     89  N14 UNL     1      29.766  10.028  -2.396+11.05 -0.00    -0.360 N 
ATOM     90  H14 UNL     1      30.710  10.298  -2.122 +0.09 +0.00    +0.166 HD
ATOM     91  N15 UNL     1      27.735  10.048  -3.283+99.99 -0.00    -0.355 N 
ATOM     92  N16 UNL     1      24.869   9.538  -2.927+99.99 +0.00    +0.092 N 
ATOM     93  H74 UNL     1      10.163   8.814  -1.436 -0.20 +0.00    +0.209 HD
ATOM     94  H75 UNL     1       7.818   7.087   0.903 +0.12 +0.00    +0.209 HD
ATOM     95  H76 UNL     1       3.985   1.790   8.344 +3.54 +0.00    +0.167 HD
ATOM     96  H77 UNL     1      30.820  10.564  -0.635 +0.02 +0.00    +0.217 HD
ATOM     97  H78 UNL     1      21.114   4.907  -1.187+81.30 +0.00    +0.210 HD
ATOM     98  H79 UNL     1      20.370   4.549   2.766+99.99 +0.00    +0.163 HD
ATOM     99  H80 UNL     1      22.414   2.741   1.071 +0.02 +0.00    +0.163 HD
ATOM    100  H81 UNL     1      18.896   1.660   0.972 +0.18 +0.00    +0.163 HD
ATOM    101  H82 UNL     1      15.855   4.986   0.519+99.99 +0.00    +0.163 HD
ATOM    102  H83 UNL     1      16.150  11.634   1.408 +0.27 +0.00    +0.312 HD
ATOM    103  H84 UNL     1      16.591  11.128  -0.074 +0.27 +0.00    +0.312 HD
ATOM    104  H85 UNL     1      15.496   7.730   3.941 +0.07 +0.00    +0.163 HD
ATOM    105  H86 UNL     1      12.589  10.875   9.534 +0.20 +0.00    +0.312 HD
ATOM    106  H87 UNL     1      11.590   9.617   9.806+21.52 +0.00    +0.312 HD
ATOM    107  H88 UNL     1      12.629   7.047   1.649 +0.03 +0.00    +0.163 HD
ATOM    108  H89 UNL     1      10.311   9.204   3.069 +0.07 +0.00    +0.163 HD
ATOM    109  H90 UNL     1       6.874   6.315   4.028 +0.07 +0.00    +0.163 HD
ATOM    110  H91 UNL     1       7.690   2.507   5.859 +0.06 +0.00    +0.163 HD
ATOM    111  H92 UNL     1      23.821   6.410   0.572 +0.12 +0.00    +0.163 HD
ATOM    112  H93 UNL     1      26.441   7.272   0.040 +0.11 +0.00    +0.163 HD
ATOM    113  H94 UNL     1      26.921  10.361  -3.802+99.99 +0.00    +0.166 HD
ATOM    114  H95 UNL     1      23.845   9.513  -2.909 +1.05 +0.00    +0.313 HD
ATOM    115  H96 UNL     1      25.053  10.372  -2.353+30.43 +0.00    +0.313 HD
ENDROOT
TORSDOF 49
TER
