USER    Run = 1
USER    DPF = ligand_104_receptor.dpf
USER  
USER    Estimated Free Energy of Binding    =   -8.92 kcal/mol  [=(1)+(2)+(3)-(4)]
USER    Estimated Inhibition Constant, Ki   =  288.50 nM (nanomolar)  [Temperature = 298.15 K]
USER    
USER    (1) Final Intermolecular Energy     =  -10.12 kcal/mol
USER        vdW + Hbond + desolv Energy     =  -10.12 kcal/mol
USER        Electrostatic Energy            =   +0.00 kcal/mol
USER    (2) Final Total Internal Energy     =   -2.72 kcal/mol
USER    (3) Torsional Free Energy           =   +1.19 kcal/mol
USER    (4) Unbound System's Energy  [=(2)] =   -2.72 kcal/mol
USER    
USER    
USER    NEWDPF move ligand_104.pdbqt
USER    NEWDPF about 0.000000 0.000000 0.000000
USER    NEWDPF tran0 11.150512 9.274423 5.141136
USER    NEWDPF quaternion0 0.390666 0.058128 -0.348726 0.849936
USER    NEWDPF axisangle0 0.741463 0.110323 -0.661862 63.590555
USER    NEWDPF quat0 0.741463 0.110323 -0.661862 63.590555
USER    NEWDPF dihe0 180.00 -135.67 126.13 -108.35 -149.49 -163.20 -7.05 -172.21 130.92 -180.00 -180.00 -180.00 77.78 -30.94 -73.38 -6.05 106.86 29.05 -16.31 169.49 
USER  keepresnum = 1 
USER  
REMARK  20 active torsions:
REMARK  status: ('A' for Active; 'I' for Inactive)
REMARK    1  A    between atoms: C3_3  and  N11_44 
REMARK    2  A    between atoms: C4_4  and  N3_33 
REMARK    3  A    between atoms: C5_5  and  C6_6 
REMARK       I    between atoms: C5_5  and  N3_33 
REMARK    4  A    between atoms: C6_6  and  C7_7 
REMARK    5  A    between atoms: C7_7  and  C8_8 
REMARK    6  A    between atoms: C8_8  and  C9_9 
REMARK    7  A    between atoms: C9_9  and  C10_10 
REMARK    8  A    between atoms: C10_10  and  N4_34 
REMARK       I    between atoms: C11_11  and  N5_36 
REMARK       I    between atoms: C11_11  and  N6_37 
REMARK    9  A    between atoms: C12_12  and  C13_13 
REMARK       I    between atoms: C12_12  and  N6_37 
REMARK   10  A    between atoms: C14_14  and  N10_43 
REMARK   11  A    between atoms: C15_15  and  N9_42 
REMARK   12  A    between atoms: C17_17  and  C18_18 
REMARK       I    between atoms: C17_17  and  N11_44 
REMARK   13  A    between atoms: C18_18  and  C19_19 
REMARK   14  A    between atoms: C19_19  and  C20_20 
REMARK   15  A    between atoms: C20_20  and  C21_21 
REMARK   16  A    between atoms: C21_21  and  C22_22 
REMARK   17  A    between atoms: C22_22  and  N12_45 
REMARK       I    between atoms: C23_23  and  N13_47 
REMARK       I    between atoms: C23_23  and  N14_48 
REMARK   18  A    between atoms: C24_24  and  C25_25 
REMARK       I    between atoms: C24_24  and  N14_48 
REMARK   19  A    between atoms: C26_26  and  N18_54 
REMARK   20  A    between atoms: C27_27  and  N17_53 
USER                              x       y       z     vdW  Elec       q    Type
USER                           _______ _______ _______ _____ _____    ______ ____
ROOT
ATOM      1  C1  UNL     1      13.215   8.222   6.718 -0.35 +0.00    +0.054 A 
ATOM      2  C2  UNL     1      12.312   7.254   7.166 -0.32 +0.00    +0.054 A 
ATOM      3  C3  UNL     1      12.168   6.082   6.449 -0.30 +0.00    +0.122 A 
ATOM      4  C4  UNL     1      13.945   7.984   5.569 -0.20 +0.00    +0.122 A 
ATOM      5  N1  UNL     1      12.892   5.878   5.330 -0.21 -0.00    -0.284 N 
ATOM      6  H1  UNL     1      12.779   5.010   4.805 +0.14 +0.00    +0.188 HD
ATOM      7  N2  UNL     1      13.784   6.831   4.889 -0.27 -0.00    -0.284 N 
ATOM      8  H2  UNL     1      14.326   6.663   4.041 +0.02 +0.00    +0.188 HD
ENDROOT
BRANCH   3   9
ATOM      9  N11 UNL     1      11.304   5.037   6.787 -0.15 -0.00    -0.312 N 
ATOM     10  C17 UNL     1      10.679   4.810   7.991 -0.32 +0.00    +0.223 C 
ATOM     11  O3  UNL     1      10.765   5.513   8.991 +0.16 -0.00    -0.273 OA
ATOM     12  H31 UNL     1      11.149   4.394   6.021 +0.12 +0.00    +0.170 HD
BRANCH  10  13
ATOM     13  C18 UNL     1       9.816   3.557   7.947 -0.46 +0.00    +0.103 C 
BRANCH  13  14
ATOM     14  C19 UNL     1       8.487   3.793   7.226 -0.58 +0.00    +0.009 C 
BRANCH  14  15
ATOM     15  C20 UNL     1       8.478   3.231   5.801 -0.06 +0.00    +0.002 C 
BRANCH  15  16
ATOM     16  C21 UNL     1       9.870   3.060   5.186 -0.35 +0.00    +0.020 C 
BRANCH  16  17
ATOM     17  C22 UNL     1      10.118   3.921   3.951 -0.23 +0.00    +0.122 C 
BRANCH  17  18
ATOM     18  N12 UNL     1       9.092   3.651   2.952 -0.08 -0.00    -0.367 N 
ATOM     19  C23 UNL     1       7.960   4.240   2.978 -0.16 +0.00    +0.153 C 
ATOM     20  N13 UNL     1       7.522   5.142   3.897 -0.09 -0.00    -0.274 NA
ATOM     21  N14 UNL     1       7.046   3.979   1.987 -0.02 -0.00    -0.298 N 
ATOM     22  H32 UNL     1       8.040   5.143   4.767 +0.07 +0.00    +0.127 HD
ATOM     23  H33 UNL     1       6.524   5.142   4.069 +0.06 +0.00    +0.127 HD
ATOM     24  C24 UNL     1       7.174   3.136   0.886 -0.05 +0.00    +0.277 C 
ATOM     25  H34 UNL     1       6.256   4.610   1.938 +0.07 +0.00    +0.171 HD
ATOM     26  O4  UNL     1       7.977   2.221   0.743 -0.12 -0.00    -0.265 OA
ATOM     27  H12 UNL     1       9.284   2.974   2.214 -0.16 +0.00    +0.162 HD
BRANCH  24  28
ATOM     28  C25 UNL     1       6.128   3.386  -0.155 -0.05 +0.00    +0.141 A 
ATOM     29  C26 UNL     1       5.525   4.650  -0.307 -0.13 +0.00    +0.112 A 
ATOM     30  N15 UNL     1       4.584   4.840  -1.262 -0.01 -0.00    -0.334 N 
ATOM     31  C27 UNL     1       4.266   3.799  -2.060 -0.05 +0.00    +0.118 A 
ATOM     32  H15 UNL     1       4.128   5.746  -1.374 -0.50 +0.00    +0.168 HD
ATOM     33  C28 UNL     1       4.895   2.555  -1.880 -0.06 +0.00    +0.142 A 
ATOM     34  N16 UNL     1       5.829   2.305  -0.938 -0.01 -0.00    -0.337 N 
ATOM     35 CL2  UNL     1       4.527   1.193  -2.865 -0.13 -0.00    -0.061 Cl
ATOM     36  H16 UNL     1       6.272   1.394  -0.821 +0.05 +0.00    +0.167 HD
BRANCH  29  37
ATOM     37  N18 UNL     1       5.777   5.746   0.534 -0.14 -0.00    -0.286 NA
ATOM     38  H37 UNL     1       4.884   6.167   0.808 +0.02 +0.00    +0.125 HD
ATOM     39  H38 UNL     1       6.231   6.484  -0.001 -0.07 +0.00    +0.125 HD
ENDBRANCH  29  37
BRANCH  31  40
ATOM     40  N17 UNL     1       3.292   4.028  -3.049 +0.01 -0.00    -0.286 NA
ATOM     41  H35 UNL     1       3.738   4.129  -3.956 -0.08 +0.00    +0.125 HD
ATOM     42  H36 UNL     1       2.801   4.896  -2.855 -0.47 +0.00    +0.125 HD
ENDBRANCH  31  40
ENDBRANCH  24  28
ENDBRANCH  17  18
ENDBRANCH  16  17
ENDBRANCH  15  16
ENDBRANCH  14  15
ENDBRANCH  13  14
ENDBRANCH  10  13
ENDBRANCH   3   9
BRANCH   4  43
ATOM     43  N3  UNL     1      14.877   8.864   5.016 +0.15 -0.00    -0.312 N 
ATOM     44  C5  UNL     1      15.778   8.622   4.002 -0.38 +0.00    +0.223 C 
ATOM     45  O1  UNL     1      15.904   7.566   3.395 -0.78 -0.00    -0.273 OA
ATOM     46  H23 UNL     1      14.848   9.783   5.439 +0.36 +0.00    +0.170 HD
BRANCH  44  47
ATOM     47  C6  UNL     1      16.612   9.857   3.693 -0.41 +0.00    +0.103 C 
BRANCH  47  48
ATOM     48  C7  UNL     1      17.232   9.861   2.296 -0.54 +0.00    +0.009 C 
BRANCH  48  49
ATOM     49  C8  UNL     1      18.425   8.917   2.109 -0.18 +0.00    +0.002 C 
BRANCH  49  50
ATOM     50  C9  UNL     1      19.803   9.488   2.469 -0.36 +0.00    +0.020 C 
BRANCH  50  51
ATOM     51  C10 UNL     1      20.605   8.668   3.480 +0.24 +0.00    +0.122 C 
BRANCH  51  52
ATOM     52  N4  UNL     1      21.922   8.343   2.957 +0.13 -0.00    -0.367 N 
ATOM     53  C11 UNL     1      22.961   9.017   3.263 -0.40 +0.00    +0.153 C 
ATOM     54  N5  UNL     1      23.031  10.082   4.106 -0.39 -0.00    -0.274 NA
ATOM     55  N6  UNL     1      24.168   8.676   2.705 -0.24 -0.00    -0.298 N 
ATOM     56  H24 UNL     1      22.237  10.175   4.727 +0.07 +0.00    +0.127 HD
ATOM     57  H25 UNL     1      23.902  10.180   4.611 +0.04 +0.00    +0.127 HD
ATOM     58  C12 UNL     1      24.450   7.659   1.795 -0.24 +0.00    +0.277 C 
ATOM     59  H26 UNL     1      24.918   9.344   2.830 +0.14 +0.00    +0.171 HD
ATOM     60  O2  UNL     1      23.754   6.686   1.533 -0.22 -0.00    -0.265 OA
ATOM     61  H4  UNL     1      22.018   7.548   2.324 +0.25 +0.00    +0.162 HD
BRANCH  58  62
ATOM     62  C13 UNL     1      25.803   7.804   1.172 -0.32 +0.00    +0.141 A 
ATOM     63  C14 UNL     1      26.809   8.592   1.764 -0.38 +0.00    +0.112 A 
ATOM     64  N7  UNL     1      28.021   8.701   1.169 -0.02 -0.00    -0.334 N 
ATOM     65  C15 UNL     1      28.220   8.055   0.001 -0.22 +0.00    +0.118 A 
ATOM     66  H7  UNL     1      28.764   9.258   1.592 +0.31 +0.00    +0.168 HD
ATOM     67  C16 UNL     1      27.187   7.283  -0.560 -0.25 +0.00    +0.142 A 
ATOM     68  N8  UNL     1      25.965   7.129  -0.007 -0.14 -0.00    -0.337 N 
ATOM     69 CL1  UNL     1      27.383   6.435  -2.043 -0.00 -0.00    -0.061 Cl
ATOM     70  H8  UNL     1      25.230   6.562  -0.429 +0.12 +0.00    +0.167 HD
BRANCH  63  71
ATOM     71  N10 UNL     1      26.673   9.238   3.003 -0.46 -0.00    -0.286 NA
ATOM     72  H29 UNL     1      26.798   8.552   3.752 -0.51 +0.00    +0.125 HD
ATOM     73  H30 UNL     1      27.454   9.879   3.137 -0.01 +0.00    +0.125 HD
ENDBRANCH  63  71
BRANCH  65  74
ATOM     74  N9  UNL     1      29.484   8.193  -0.597 -0.13 -0.00    -0.286 NA
ATOM     75  H27 UNL     1      30.136   8.607   0.066 +0.05 +0.00    +0.125 HD
ATOM     76  H28 UNL     1      29.850   7.279  -0.848 +0.05 +0.00    +0.125 HD
ENDBRANCH  65  74
ENDBRANCH  58  62
ENDBRANCH  51  52
ENDBRANCH  50  51
ENDBRANCH  49  50
ENDBRANCH  48  49
ENDBRANCH  47  48
ENDBRANCH  44  47
ENDBRANCH   4  43
TORSDOF 20
TER
