USER    Run = 1
USER    DPF = ligand_204_receptor.dpf
USER  
USER    Estimated Free Energy of Binding    =  +1.04e+004 kcal/mol  [=(1)+(2)+(3)-(4)]
USER    
USER    (1) Final Intermolecular Energy     =  +1.04e+004 kcal/mol
USER        vdW + Hbond + desolv Energy     =  +1.04e+004 kcal/mol
USER        Electrostatic Energy            =   +0.00 kcal/mol
USER    (2) Final Total Internal Energy     =   +0.00 kcal/mol
USER    (3) Torsional Free Energy           =   +1.19 kcal/mol
USER    (4) Unbound System's Energy  [=(2)] =   +0.00 kcal/mol
USER    
USER    
USER    NEWDPF move ligand_204.pdbqt
USER    NEWDPF about 0.000000 0.000000 0.000000
USER    NEWDPF tran0 11.054590 5.447206 4.913682
USER    NEWDPF quaternion0 -0.038952 -0.690101 0.720815 0.051669
USER    NEWDPF axisangle0 -0.039004 -0.691024 0.721779 174.076479
USER    NEWDPF quat0 -0.039004 -0.691024 0.721779 174.076479
USER  keepresnum = 1 
USER  
REMARK  0 active torsions:
REMARK  status: ('A' for Active; 'I' for Inactive)
REMARK       I    between atoms: C6_6  and  C11_11 
REMARK       I    between atoms: C11_11  and  C12_12 
REMARK       I    between atoms: C12_12  and  C13_13 
REMARK       I    between atoms: C12_12  and  N6_86 
REMARK       I    between atoms: C13_13  and  N1_81 
REMARK       I    between atoms: C14_14  and  C15_15 
REMARK       I    between atoms: C14_14  and  C39_39 
REMARK       I    between atoms: C14_14  and  N1_81 
REMARK       I    between atoms: C15_15  and  C16_16 
REMARK       I    between atoms: C16_16  and  C17_17 
REMARK       I    between atoms: C17_17  and  C18_18 
REMARK       I    between atoms: C18_18  and  N2_82 
REMARK       I    between atoms: C19_19  and  C20_20 
REMARK       I    between atoms: C19_19  and  N2_82 
REMARK       I    between atoms: C20_20  and  C21_21 
REMARK       I    between atoms: C21_21  and  C22_22 
REMARK       I    between atoms: C22_22  and  C23_23 
REMARK       I    between atoms: C23_23  and  C24_24 
REMARK       I    between atoms: C24_24  and  C25_25 
REMARK       I    between atoms: C25_25  and  C26_26 
REMARK       I    between atoms: C26_26  and  N3_83 
REMARK       I    between atoms: C27_27  and  C28_28 
REMARK       I    between atoms: C27_27  and  N3_83 
REMARK       I    between atoms: C28_28  and  C29_29 
REMARK       I    between atoms: C29_29  and  C30_30 
REMARK       I    between atoms: C30_30  and  C31_31 
REMARK       I    between atoms: C31_31  and  C32_32 
REMARK       I    between atoms: C31_31  and  N4_84 
REMARK       I    between atoms: C32_32  and  O5_64 
REMARK       I    between atoms: C33_33  and  N4_84 
REMARK       I    between atoms: C33_33  and  N5_85 
REMARK       I    between atoms: C34_34  and  C35_35 
REMARK       I    between atoms: C34_34  and  C38_38 
REMARK       I    between atoms: C34_34  and  N5_85 
REMARK       I    between atoms: C35_35  and  C36_36 
REMARK       I    between atoms: C36_36  and  C37_37 
REMARK       I    between atoms: C37_37  and  O8_67 
REMARK       I    between atoms: C38_38  and  O10_69 
REMARK       I    between atoms: C39_39  and  O12_71 
REMARK       I    between atoms: C40_40  and  C41_41 
REMARK       I    between atoms: C40_40  and  N6_86 
REMARK       I    between atoms: C41_41  and  C42_42 
REMARK       I    between atoms: C41_41  and  N7_87 
REMARK       I    between atoms: C42_42  and  C43_43 
REMARK       I    between atoms: C46_46  and  O14_73 
REMARK       I    between atoms: C49_49  and  C50_50 
REMARK       I    between atoms: C49_49  and  N7_87 
REMARK       I    between atoms: C50_50  and  C51_51 
REMARK       I    between atoms: C50_50  and  N8_88 
REMARK       I    between atoms: C51_51  and  O16_75 
REMARK       I    between atoms: C52_52  and  C53_53 
REMARK       I    between atoms: C52_52  and  N8_88 
REMARK       I    between atoms: C53_53  and  C54_54 
REMARK       I    between atoms: C53_53  and  N9_89 
REMARK       I    between atoms: C54_54  and  O18_77 
REMARK       I    between atoms: C55_55  and  C56_56 
REMARK       I    between atoms: C55_55  and  N9_89 
REMARK       I    between atoms: C56_56  and  C57_57 
REMARK       I    between atoms: C56_56  and  N10_90 
REMARK       I    between atoms: C57_57  and  O20_79 
REMARK       I    between atoms: C58_58  and  C59_59 
REMARK       I    between atoms: C58_58  and  N10_90 
REMARK       I    between atoms: C59_59  and  S1_91 
USER                              x       y       z     vdW  Elec       q    Type
USER                           _______ _______ _______ _____ _____    ______ ____
ROOT
ATOM      1  C1  UNL     1       5.436  10.156   8.036 +5.33 +0.00    +0.001 A 
ATOM      2  C2  UNL     1       6.756  10.436   7.699+99.99 +0.00    +0.001 A 
ATOM      3  C3  UNL     1       7.716   9.425   7.744+99.99 +0.00    +0.012 A 
ATOM      4  C4  UNL     1       7.366   8.119   8.123+87.74 -0.00    -0.025 A 
ATOM      5  C5  UNL     1       8.318   7.086   8.154+14.83 +0.00    +0.019 A 
ATOM      6  C6  UNL     1       7.962   5.779   8.515 +0.51 -0.00    -0.055 A 
ATOM      7  C7  UNL     1       6.635   5.513   8.870+79.61 +0.00    +0.008 A 
ATOM      8  C8  UNL     1       5.679   6.531   8.849+42.84 +0.00    +0.013 A 
ATOM      9  C9  UNL     1       6.027   7.836   8.469 +2.66 -0.00    -0.026 A 
ATOM     10  C10 UNL     1       5.073   8.864   8.420 +0.45 +0.00    +0.012 A 
ATOM     11  C11 UNL     1       8.983   4.666   8.462 -0.47 +0.00    +0.073 C 
ATOM     12  C12 UNL     1       9.078   4.050   7.064 -0.42 +0.00    +0.180 C 
ATOM     13  C13 UNL     1      10.184   2.983   7.036 -0.17 +0.00    +0.241 C 
ATOM     14  C14 UNL     1      12.175   2.367   5.782+55.49 +0.00    +0.182 C 
ATOM     15  C15 UNL     1      13.649   2.757   5.688+99.99 +0.00    +0.036 C 
ATOM     16  C16 UNL     1      14.360   2.853   7.041+15.27 +0.00    +0.004 C 
ATOM     17  C17 UNL     1      14.370   1.572   7.884+99.99 +0.00    +0.020 C 
ATOM     18  C18 UNL     1      14.955   0.341   7.190+45.72 +0.00    +0.122 C 
ATOM     19  C19 UNL     1      17.390   0.657   7.462 +1.75 +0.00    +0.217 C 
ATOM     20  C20 UNL     1      18.656   0.980   6.689+81.68 +0.00    +0.103 C 
ATOM     21  C21 UNL     1      19.769   1.547   7.567+99.99 +0.00    +0.009 C 
ATOM     22  C22 UNL     1      19.483   2.937   8.151+99.99 +0.00    +0.000 C 
ATOM     23  C23 UNL     1      19.241   4.008   7.082+67.48 +0.00    +0.000 C 
ATOM     24  C24 UNL     1      19.358   5.437   7.625 +6.83 +0.00    +0.009 C 
ATOM     25  C25 UNL     1      18.269   5.842   8.619+99.99 +0.00    +0.103 C 
ATOM     26  C26 UNL     1      16.967   6.261   7.959+99.99 +0.00    +0.217 C 
ATOM     27  C27 UNL     1      14.927   7.602   8.371+27.76 +0.00    +0.122 C 
ATOM     28  C28 UNL     1      13.802   6.626   8.036 -0.65 +0.00    +0.020 C 
ATOM     29  C29 UNL     1      12.464   7.308   7.744 -0.31 +0.00    +0.004 C 
ATOM     30  C30 UNL     1      12.465   8.346   6.615 -0.43 +0.00    +0.036 C 
ATOM     31  C31 UNL     1      13.070   7.893   5.277 -0.33 +0.00    +0.184 C 
ATOM     32  C32 UNL     1      12.217   6.802   4.610 -0.32 +0.00    +0.163 C 
ATOM     33  C33 UNL     1      14.201   9.939   4.484+60.22 +0.00    +0.317 C 
ATOM     34  C34 UNL     1      15.170  11.916   3.425+72.60 +0.00    +0.184 C 
ATOM     35  C35 UNL     1      15.502  12.353   1.993+23.99 +0.00    +0.046 C 
ATOM     36  C36 UNL     1      16.191  11.262   1.172 -0.52 +0.00    +0.112 C 
ATOM     37  C37 UNL     1      15.275  10.160   0.709 +6.96 +0.00    +0.139 C 
ATOM     38  C38 UNL     1      14.613  13.124   4.189+99.99 +0.00    +0.163 C 
ATOM     39  C39 UNL     1      11.560   2.302   4.380 +2.75 +0.00    +0.163 C 
ATOM     40  C40 UNL     1       7.527   3.161   5.364 +3.19 +0.00    +0.241 C 
ATOM     41  C41 UNL     1       6.599   1.961   5.071+99.99 +0.00    +0.180 C 
ATOM     42  C42 UNL     1       5.148   2.236   5.496 +4.72 +0.00    +0.073 C 
ATOM     43  C43 UNL     1       4.484   3.343   4.708 -0.20 -0.00    -0.056 A 
ATOM     44  C44 UNL     1       3.853   3.061   3.487 -0.12 +0.00    +0.010 A 
ATOM     45  C45 UNL     1       3.335   4.092   2.705 -0.11 +0.00    +0.037 A 
ATOM     46  C46 UNL     1       3.446   5.402   3.148 -0.14 +0.00    +0.065 A 
ATOM     47  C47 UNL     1       4.012   5.696   4.383 -0.16 +0.00    +0.037 A 
ATOM     48  C48 UNL     1       4.541   4.668   5.160 -0.22 +0.00    +0.010 A 
ATOM     49  C49 UNL     1       7.323   0.508   3.183+30.20 +0.00    +0.243 C 
ATOM     50  C50 UNL     1       7.573   0.507   1.668 +6.92 +0.00    +0.200 C 
ATOM     51  C51 UNL     1       6.311  -0.016   0.973+78.02 +0.00    +0.199 C 
ATOM     52  C52 UNL     1       9.174   2.377   1.264 +0.03 +0.00    +0.243 C 
ATOM     53  C53 UNL     1       9.296   3.775   0.625 +0.14 +0.00    +0.200 C 
ATOM     54  C54 UNL     1      10.596   4.499   1.007+29.25 +0.00    +0.199 C 
ATOM     55  C55 UNL     1       7.758   5.613   0.048 -0.10 +0.00    +0.243 C 
ATOM     56  C56 UNL     1       6.761   6.642   0.615 -0.27 +0.00    +0.200 C 
ATOM     57  C57 UNL     1       6.676   7.855  -0.327 -0.22 +0.00    +0.199 C 
ATOM     58  C58 UNL     1       6.377   7.703   2.836 +1.93 +0.00    +0.227 C 
ATOM     59  C59 UNL     1       6.996   8.128   4.161+99.99 +0.00    +0.173 C 
ATOM     60  O1  UNL     1       9.969   1.832   7.423 +9.41 -0.00    -0.271 OA
ATOM     61  O2  UNL     1      17.365   0.459   8.671+12.26 -0.00    -0.274 OA
ATOM     62  O3  UNL     1      16.685   6.025   6.790+60.20 -0.00    -0.274 OA
ATOM     63  O4  UNL     1      11.815   5.773   5.140 +0.05 -0.00    -0.648 OA
ATOM     64  O5  UNL     1      11.956   7.064   3.304 +0.05 -0.00    -0.775 OA
ATOM     65  O6  UNL     1      14.989   9.976   5.417+13.62 -0.00    -0.247 OA
ATOM     66  O7  UNL     1      15.534   8.968   0.698 +0.24 -0.00    -0.650 OA
ATOM     67  O8  UNL     1      14.114  10.604   0.191+67.55 -0.00    -0.776 OA
ATOM     68  O9  UNL     1      15.229  14.140   4.474 +1.63 -0.00    -0.648 OA
ATOM     69  O10 UNL     1      13.291  13.043   4.465+99.99 -0.00    -0.775 OA
ATOM     70  O11 UNL     1      10.870   3.179   3.874 +0.40 -0.00    -0.648 OA
ATOM     71  O12 UNL     1      11.833   1.172   3.704+20.97 -0.00    -0.775 OA
ATOM     72  O13 UNL     1       7.906   3.937   4.483 -0.18 -0.00    -0.271 OA
ATOM     73  O14 UNL     1       3.020   6.400   2.323 +1.33 -0.00    -0.361 OA
ATOM     74  O15 UNL     1       7.497  -0.486   3.881+99.99 -0.00    -0.271 OA
ATOM     75  O16 UNL     1       6.447   0.068  -0.447 +0.63 -0.00    -0.398 OA
ATOM     76  O17 UNL     1      10.131   1.708   1.654 +0.35 -0.00    -0.271 OA
ATOM     77  O18 UNL     1      10.491   5.156   2.283 +0.20 -0.00    -0.398 OA
ATOM     78  O19 UNL     1       8.133   5.620  -1.124 -0.08 -0.00    -0.271 OA
ATOM     79  O20 UNL     1       6.116   7.512  -1.594+58.97 -0.00    -0.398 OA
ATOM     80  O21 UNL     1       5.210   7.989   2.558 +0.15 -0.00    -0.273 OA
ATOM     81  N1  UNL     1      11.389   3.379   6.499 -0.17 -0.00    -0.345 N 
ATOM     82  N2  UNL     1      16.278   0.568   6.651 +0.19 -0.00    -0.361 N 
ATOM     83  N3  UNL     1      16.124   6.927   8.829+99.99 -0.00    -0.361 N 
ATOM     84  N4  UNL     1      13.187   9.032   4.358 +1.04 -0.00    -0.329 N 
ATOM     85  N5  UNL     1      14.213  10.811   3.425+99.99 -0.00    -0.329 N 
ATOM     86  N6  UNL     1       7.869   3.296   6.696 +0.19 -0.00    -0.346 N 
ATOM     87  N7  UNL     1       6.723   1.658   3.648 -0.05 -0.00    -0.346 N 
ATOM     88  N8  UNL     1       7.889   1.869   1.217 -0.10 -0.00    -0.344 N 
ATOM     89  N9  UNL     1       8.124   4.608   0.925 -0.01 -0.00    -0.344 N 
ATOM     90  N10 UNL     1       7.190   7.017   1.965 -0.17 -0.00    -0.345 N 
ATOM     91  S1  UNL     1       8.631   7.405   4.467 +5.40 -0.00    -0.173 SA
ATOM     92  H64 UNL     1      11.386   6.316   2.980 +0.08 +0.00    +0.167 HD
ATOM     93  H65 UNL     1      13.682   9.784  -0.131+99.99 +0.00    +0.167 HD
ATOM     94  H66 UNL     1      13.108  13.873   4.952 +0.23 +0.00    +0.167 HD
ATOM     95  H67 UNL     1      11.288   1.244   2.875 -0.11 +0.00    +0.167 HD
ATOM     96  H68 UNL     1       3.618   7.168   2.463 +0.06 +0.00    +0.217 HD
ATOM     97  H69 UNL     1       7.124  -0.578  -0.717 +0.08 +0.00    +0.209 HD
ATOM     98  H70 UNL     1      10.434   4.424   2.951 -0.44 +0.00    +0.209 HD
ATOM     99  H71 UNL     1       6.736   6.878  -2.012+99.99 +0.00    +0.209 HD
ATOM    100  H72 UNL     1      11.398   4.294   6.039 +0.11 +0.00    +0.163 HD
ATOM    101  H73 UNL     1      16.358   0.855   5.685 -0.39 +0.00    +0.162 HD
ATOM    102  H74 UNL     1      16.482   7.175   9.742+99.99 +0.00    +0.162 HD
ATOM    103  H75 UNL     1      12.942   8.807   3.399 -0.11 +0.00    +0.165 HD
ATOM    104  H76 UNL     1      13.276  11.066   3.135+99.99 +0.00    +0.165 HD
ATOM    105  H77 UNL     1       7.748   2.457   7.259 +0.06 +0.00    +0.163 HD
ATOM    106  H78 UNL     1       6.802   2.471   3.044 +0.06 +0.00    +0.163 HD
ATOM    107  H79 UNL     1       7.217   2.341   0.616 +0.06 +0.00    +0.163 HD
ATOM    108  H80 UNL     1       7.922   4.763   1.911 +0.08 +0.00    +0.163 HD
ATOM    109  H81 UNL     1       8.183   6.989   2.191 +0.09 +0.00    +0.163 HD
ATOM    110  H82 UNL     1       8.210   6.129   4.575 +0.05 +0.00    +0.102 HD
ENDROOT
TORSDOF 53
TER
