USER    Run = 1
USER    DPF = ligand_239_receptor.dpf
USER  
USER    Estimated Free Energy of Binding    =  +2.31e+003 kcal/mol  [=(1)+(2)+(3)-(4)]
USER    
USER    (1) Final Intermolecular Energy     =  +2.31e+003 kcal/mol
USER        vdW + Hbond + desolv Energy     =  +2.31e+003 kcal/mol
USER        Electrostatic Energy            =   +0.00 kcal/mol
USER    (2) Final Total Internal Energy     =   -4.79 kcal/mol
USER    (3) Torsional Free Energy           =   +1.19 kcal/mol
USER    (4) Unbound System's Energy  [=(2)] =   -4.79 kcal/mol
USER    
USER    
USER    NEWDPF move ligand_239.pdbqt
USER    NEWDPF about 0.000000 0.000000 0.000000
USER    NEWDPF tran0 13.867321 7.835678 3.348889
USER    NEWDPF quaternion0 0.694276 0.076014 0.163456 -0.696767
USER    NEWDPF axisangle0 0.967906 0.105972 0.227878 -91.663591
USER    NEWDPF quat0 0.967906 0.105972 0.227878 -91.663591
USER    NEWDPF dihe0 51.72 -41.64 136.76 -90.31 36.48 16.82 -104.26 -117.59 -16.48 -128.08 -174.63 58.72 -60.58 179.96 97.41 -161.07 136.30 -133.17 -144.06 73.86 -180.00 43.34 
USER  keepresnum = 1 
USER  
REMARK  22 active torsions:
REMARK  status: ('A' for Active; 'I' for Inactive)
REMARK    1  A    between atoms: C8_8  and  C49_49 
REMARK    2  A    between atoms: C12_12  and  O15_72 
REMARK    3  A    between atoms: C14_14  and  O14_71 
REMARK    4  A    between atoms: C16_16  and  O13_70 
REMARK    5  A    between atoms: C18_18  and  O12_69 
REMARK    6  A    between atoms: C20_20  and  O11_68 
REMARK    7  A    between atoms: C22_22  and  O10_67 
REMARK    8  A    between atoms: C24_24  and  O9_66 
REMARK    9  A    between atoms: C26_26  and  O8_65 
REMARK   10  A    between atoms: C27_27  and  O7_64 
REMARK   11  A    between atoms: C30_30  and  O6_63 
REMARK   12  A    between atoms: C34_34  and  O5_62 
REMARK   13  A    between atoms: C40_40  and  O4_61 
REMARK   14  A    between atoms: C42_42  and  O3_60 
REMARK   15  A    between atoms: C49_49  and  C51_51 
REMARK   16  A    between atoms: C51_51  and  C52_52 
REMARK   17  A    between atoms: C51_51  and  O17_74 
REMARK   18  A    between atoms: C52_52  and  C53_53 
REMARK   19  A    between atoms: C53_53  and  C54_54 
REMARK       I    between atoms: C54_54  and  N1_75 
REMARK   20  A    between atoms: C55_55  and  C56_56 
REMARK   21  A    between atoms: C55_55  and  N1_75 
REMARK   22  A    between atoms: C56_56  and  N2_76 
USER                              x       y       z     vdW  Elec       q    Type
USER                           _______ _______ _______ _____ _____    ______ ____
ROOT
ATOM      1  C1  UNL     1      18.033   7.408   0.304+99.99 +0.00    +0.012 C 
ATOM      2  C2  UNL     1      16.911   7.252   1.341 +4.43 +0.00    +0.011 C 
ATOM      3  C3  UNL     1      17.388   7.748   2.734 -0.61 +0.00    +0.010 C 
ATOM      4  C4  UNL     1      18.490   6.934   3.425 +2.18 +0.00    +0.028 C 
ATOM      5  C5  UNL     1      19.864   7.073   2.835+99.99 -0.00    -0.014 C 
ATOM      6  C6  UNL     1      20.735   8.094   2.960 +8.30 +0.00    +0.009 C 
ATOM      7  C7  UNL     1      20.446   9.297   3.799 +2.58 +0.00    +0.289 C 
ATOM      8  C8  UNL     1      20.945  11.648   3.895+99.99 +0.00    +0.141 C 
ATOM      9  C9  UNL     1      19.718  12.481   3.451+99.99 +0.00    +0.060 C 
ATOM     10  C10 UNL     1      18.413  11.933   3.968+24.53 -0.00    -0.026 C 
ATOM     11  C11 UNL     1      17.301  11.781   3.231 -0.10 +0.00    +0.001 C 
ATOM     12  C12 UNL     1      15.993  11.193   3.699+12.68 +0.00    +0.143 C 
ATOM     13  C13 UNL     1      16.079  10.351   4.977+15.27 +0.00    +0.067 C 
ATOM     14  C14 UNL     1      14.820   9.515   5.258 +7.07 +0.00    +0.123 C 
ATOM     15  C15 UNL     1      13.636  10.325   5.786+99.99 +0.00    +0.064 C 
ATOM     16  C16 UNL     1      12.543   9.567   6.567+15.07 +0.00    +0.126 C 
ATOM     17  C17 UNL     1      11.784   8.392   5.881 -0.11 +0.00    +0.040 C 
ATOM     18  C18 UNL     1      12.503   7.030   6.092 -0.36 +0.00    +0.130 C 
ATOM     19  C19 UNL     1      11.615   5.780   6.353 -0.39 +0.00    +0.040 C 
ATOM     20  C20 UNL     1      10.542   5.517   5.269 -0.27 +0.00    +0.126 C 
ATOM     21  C21 UNL     1      10.167   4.023   5.186 -0.42 +0.00    +0.064 C 
ATOM     22  C22 UNL     1       9.034   3.727   4.192 -0.31 +0.00    +0.123 C 
ATOM     23  C23 UNL     1       8.748   2.218   4.082+19.89 +0.00    +0.063 C 
ATOM     24  C24 UNL     1       7.280   1.885   3.741 +0.73 +0.00    +0.123 C 
ATOM     25  C25 UNL     1       6.737   2.674   2.546 -0.24 +0.00    +0.066 C 
ATOM     26  C26 UNL     1       5.338   2.275   2.037 -0.15 +0.00    +0.153 C 
ATOM     27  C27 UNL     1       4.118   2.545   2.973 -0.11 +0.00    +0.170 C 
ATOM     28  C28 UNL     1       4.113   3.946   3.527 -0.15 +0.00    +0.012 C 
ATOM     29  C29 UNL     1       3.406   5.020   3.115 -0.15 -0.00    -0.056 C 
ATOM     30  C30 UNL     1       3.702   6.382   3.735 -0.17 +0.00    +0.153 C 
ATOM     31  C31 UNL     1       4.443   7.350   2.771 +0.18 +0.00    +0.037 C 
ATOM     32  C32 UNL     1       5.707   6.740   2.191 -0.31 -0.00    -0.021 C 
ATOM     33  C33 UNL     1       5.903   6.546   0.876 -0.30 +0.00    +0.002 C 
ATOM     34  C34 UNL     1       7.144   5.952   0.263 -0.19 +0.00    +0.148 C 
ATOM     35  C35 UNL     1       8.046   6.971  -0.493 -0.34 +0.00    +0.036 C 
ATOM     36  C36 UNL     1       8.869   7.828   0.452 +0.11 -0.00    -0.024 C 
ATOM     37  C37 UNL     1      10.099   8.321   0.225+13.73 -0.00    -0.030 C 
ATOM     38  C38 UNL     1      10.897   8.187  -1.041 +9.46 +0.00    +0.029 C 
ATOM     39  C39 UNL     1      12.178   7.358  -0.879 +0.81 +0.00    +0.036 C 
ATOM     40  C40 UNL     1      13.306   8.093  -0.138+45.39 +0.00    +0.124 C 
ATOM     41  C41 UNL     1      14.592   7.241   0.077 +5.79 +0.00    +0.039 C 
ATOM     42  C42 UNL     1      15.618   8.034   0.948 +1.83 +0.00    +0.128 C 
ATOM     43  C43 UNL     1      15.184   6.750  -1.248+10.20 +0.00    +0.015 C 
ATOM     44  C44 UNL     1       7.259   7.855  -1.469 +4.47 +0.00    +0.017 C 
ATOM     45  C45 UNL     1       4.799   8.659   3.488+78.21 +0.00    +0.017 C 
ATOM     46  C46 UNL     1       2.373   5.001   2.018 +8.92 +0.00    +0.046 C 
ATOM     47  C47 UNL     1      11.037   5.826   7.775 +0.10 +0.00    +0.015 C 
ATOM     48  C48 UNL     1      11.446   8.724   4.421 +0.27 +0.00    +0.015 C 
ATOM     49  C57 UNL     1      22.072   8.065   2.276 +2.46 +0.00    +0.054 C 
ATOM     50  O1  UNL     1      19.888   9.270   4.885+24.98 -0.00    -0.260 OA
ATOM     51  O2  UNL     1      20.920  10.397   3.159 -0.02 -0.00    -0.311 OA
ENDROOT
BRANCH   8  52
ATOM     52  C49 UNL     1      22.319  12.322   3.572+53.90 +0.00    +0.040 C 
ATOM     53  C50 UNL     1      22.734  13.363   4.626+20.21 +0.00    +0.015 C 
BRANCH  52  54
ATOM     54  C51 UNL     1      23.463  11.271   3.420+17.92 +0.00    +0.124 C 
BRANCH  54  55
ATOM     55  C52 UNL     1      23.101   9.902   4.037 -0.64 +0.00    +0.041 C 
BRANCH  55  56
ATOM     56  C53 UNL     1      24.294   9.209   4.707 +0.16 +0.00    +0.105 C 
BRANCH  56  57
ATOM     57  C54 UNL     1      25.264   8.558   3.740 -0.45 +0.00    +0.217 C 
ATOM     58  O16 UNL     1      25.758   7.451   3.929 -0.46 -0.00    -0.274 OA
ATOM     59  N1  UNL     1      25.552   9.352   2.654 -0.29 -0.00    -0.359 N 
ATOM     60  HA0 UNL     1      25.045  10.220   2.543 +0.12 +0.00    +0.162 HD
BRANCH  59  61
ATOM     61  C55 UNL     1      26.394   8.922   1.545 -0.39 +0.00    +0.152 C 
BRANCH  61  62
ATOM     62  C56 UNL     1      25.807   7.749   0.740 -0.25 +0.00    +0.286 C 
BRANCH  62  63
ATOM     63  N2  UNL     1      25.946   6.467   1.427 -0.32 +0.00    +0.079 N 
ATOM     64  HA1 UNL     1      25.509   6.540   2.356 +0.25 +0.00    +0.312 HD
ATOM     65  HA2 UNL     1      26.928   6.263   1.594 +0.23 +0.00    +0.312 HD
ENDBRANCH  62  63
ENDBRANCH  61  62
ENDBRANCH  59  61
ENDBRANCH  56  57
ENDBRANCH  55  56
ENDBRANCH  54  55
BRANCH  54  66
ATOM     66  O17 UNL     1      24.649  11.740   4.053 +4.02 -0.00    -0.395 OA
ATOM     67  H99 UNL     1      25.400  11.605   3.434 +0.18 +0.00    +0.210 HD
ENDBRANCH  54  66
ENDBRANCH  52  54
ENDBRANCH   8  52
BRANCH  12  68
ATOM     68  O15 UNL     1      15.085  12.269   3.907+99.99 -0.00    -0.392 OA
ATOM     69  H98 UNL     1      15.525  13.078   3.594 +0.31 +0.00    +0.210 HD
ENDBRANCH  12  68
BRANCH  14  70
ATOM     70  O14 UNL     1      15.168   8.493   6.200+93.81 -0.00    -0.395 OA
ATOM     71  H97 UNL     1      14.357   7.984   6.393 +0.21 +0.00    +0.210 HD
ENDBRANCH  14  70
BRANCH  16  72
ATOM     72  O13 UNL     1      11.541  10.541   6.927+99.99 -0.00    -0.395 OA
ATOM     73  H96 UNL     1      11.237  10.339   7.829 +0.38 +0.00    +0.210 HD
ENDBRANCH  16  72
BRANCH  42  74
ATOM     74  O3  UNL     1      15.993   9.272   0.341 -0.25 -0.00    -0.395 OA
ATOM     75  H86 UNL     1      15.251   9.897   0.493 -0.34 +0.00    +0.210 HD
ENDBRANCH  42  74
BRANCH  18  76
ATOM     76  O12 UNL     1      13.372   6.717   5.000 -0.20 -0.00    -0.395 OA
ATOM     77  H95 UNL     1      14.279   6.840   5.357 +0.15 +0.00    +0.210 HD
ENDBRANCH  18  76
BRANCH  40  78
ATOM     78  O4  UNL     1      13.645   9.296  -0.842+50.97 -0.00    -0.395 OA
ATOM     79  H87 UNL     1      14.589   9.480  -0.677 -0.28 +0.00    +0.210 HD
ENDBRANCH  40  78
BRANCH  20  80
ATOM     80  O11 UNL     1       9.371   6.294   5.511 -0.02 -0.00    -0.395 OA
ATOM     81  H94 UNL     1       8.753   6.175   4.772 +0.12 +0.00    +0.210 HD
ENDBRANCH  20  80
BRANCH  22  82
ATOM     82  O10 UNL     1       9.364   4.211   2.891 -0.08 -0.00    -0.395 OA
ATOM     83  H93 UNL     1      10.333   4.232   2.802 -0.48 +0.00    +0.210 HD
ENDBRANCH  22  82
BRANCH  24  84
ATOM     84  O9  UNL     1       6.484   2.132   4.905+28.12 -0.00    -0.395 OA
ATOM     85  H92 UNL     1       5.553   1.984   4.652 -0.38 +0.00    +0.210 HD
ENDBRANCH  24  84
BRANCH  34  86
ATOM     86  O5  UNL     1       6.704   4.961  -0.671 -0.02 -0.00    -0.391 OA
ATOM     87  H88 UNL     1       6.894   5.299  -1.569 -0.47 +0.00    +0.210 HD
ENDBRANCH  34  86
BRANCH  26  88
ATOM     88  O8  UNL     1       5.158   2.978   0.788 -0.01 -0.00    -0.393 OA
ATOM     89  H91 UNL     1       5.644   3.822   0.863 +0.07 +0.00    +0.210 HD
ENDBRANCH  26  88
BRANCH  27  90
ATOM     90  O7  UNL     1       4.077   1.634   4.065 -0.14 -0.00    -0.389 OA
ATOM     91  H90 UNL     1       4.888   1.090   3.993 +0.06 +0.00    +0.210 HD
ENDBRANCH  27  90
BRANCH  30  92
ATOM     92  O6  UNL     1       2.468   6.957   4.161 -0.09 -0.00    -0.391 OA
ATOM     93  H89 UNL     1       2.435   7.851   3.777 +0.05 +0.00    +0.210 HD
ENDBRANCH  30  92
TORSDOF 22
TER
