USER    Run = 1
USER    DPF = ligand_250_receptor.dpf
USER  
USER    Estimated Free Energy of Binding    =   -4.07 kcal/mol  [=(1)+(2)+(3)-(4)]
USER    Estimated Inhibition Constant, Ki   =    1.04 mM (millimolar)  [Temperature = 298.15 K]
USER    
USER    (1) Final Intermolecular Energy     =   -5.26 kcal/mol
USER        vdW + Hbond + desolv Energy     =   -5.26 kcal/mol
USER        Electrostatic Energy            =   +0.00 kcal/mol
USER    (2) Final Total Internal Energy     =   -2.29 kcal/mol
USER    (3) Torsional Free Energy           =   +1.19 kcal/mol
USER    (4) Unbound System's Energy  [=(2)] =   -2.29 kcal/mol
USER    
USER    
USER    NEWDPF move ligand_250.pdbqt
USER    NEWDPF about 0.000000 0.000000 0.000000
USER    NEWDPF tran0 17.836448 13.393115 -1.255613
USER    NEWDPF quaternion0 0.900601 -0.155377 0.205768 -0.349908
USER    NEWDPF axisangle0 0.961375 -0.165862 0.219654 -139.036623
USER    NEWDPF quat0 0.961375 -0.165862 0.219654 -139.036623
USER    NEWDPF dihe0 90.62 -43.22 122.93 -114.56 174.75 -94.79 126.55 129.78 180.00 53.77 1.75 61.24 140.26 109.55 -85.75 56.57 -164.35 -111.11 180.00 -144.61 -36.39 169.13 -68.49 
USER  keepresnum = 1 
USER  
REMARK  23 active torsions:
REMARK  status: ('A' for Active; 'I' for Inactive)
REMARK    1  A    between atoms: C5_5  and  C6_6 
REMARK    2  A    between atoms: C6_6  and  O1_59 
REMARK    3  A    between atoms: C7_7  and  C8_8 
REMARK    4  A    between atoms: C7_7  and  O1_59 
REMARK    5  A    between atoms: C8_8  and  C9_9 
REMARK    6  A    between atoms: C8_8  and  C15_15 
REMARK    7  A    between atoms: C8_8  and  O9_67 
REMARK    8  A    between atoms: C17_17  and  O3_61 
REMARK    9  A    between atoms: C21_21  and  C22_22 
REMARK   10  A    between atoms: C21_21  and  O3_61 
REMARK       I    between atoms: C22_22  and  N2_55 
REMARK   11  A    between atoms: C23_23  and  N2_55 
REMARK   12  A    between atoms: C25_25  and  N3_56 
REMARK   13  A    between atoms: C27_27  and  C28_28 
REMARK       I    between atoms: C27_27  and  N3_56 
REMARK   14  A    between atoms: C31_31  and  C34_34 
REMARK   15  A    between atoms: C34_34  and  C35_35 
REMARK   16  A    between atoms: C35_35  and  N4_57 
REMARK   17  A    between atoms: C36_36  and  C37_37 
REMARK   18  A    between atoms: C36_36  and  N4_57 
REMARK   19  A    between atoms: C37_37  and  C38_38 
REMARK   20  A    between atoms: C37_37  and  O8_66 
REMARK   21  A    between atoms: C44_44  and  O7_65 
REMARK   22  A    between atoms: C47_47  and  C48_48 
REMARK   23  A    between atoms: C47_47  and  N1_54 
USER                              x       y       z     vdW  Elec       q    Type
USER                           _______ _______ _______ _____ _____    ______ ____
ROOT
ATOM      1  C22 UNL     1      14.311   8.340   4.416 -0.32 +0.00    +0.242 C 
ATOM      2  N2  UNL     1      15.557   8.182   3.841 -0.26 -0.00    -0.354 N 
ATOM      3  O4  UNL     1      14.141   8.891   5.502 -0.12 -0.00    -0.271 OA
ATOM      4  H51 UNL     1      15.577   7.704   2.942 -0.22 +0.00    +0.162 HD
ENDROOT
BRANCH   2   5
ATOM      5  C23 UNL     1      16.771   8.824   4.398 -0.31 +0.00    +0.088 C 
ATOM      6  C24 UNL     1      17.987   7.869   4.575 +0.69 +0.00    +0.050 C 
ATOM      7  C25 UNL     1      18.374   8.217   3.124 -0.42 +0.00    +0.088 C 
ATOM      8  C26 UNL     1      17.632   9.556   3.333 -0.53 +0.00    +0.050 C 
BRANCH   7   9
ATOM      9  N3  UNL     1      19.806   8.368   2.812 +1.39 -0.00    -0.352 N 
ATOM     10  C27 UNL     1      20.384   9.624   2.800 -0.22 +0.00    +0.252 C 
ATOM     11  O5  UNL     1      19.750  10.669   2.722 -0.24 -0.00    -0.268 OA
ATOM     12  H52 UNL     1      20.418   7.594   3.040 +0.71 +0.00    +0.163 HD
BRANCH  10  13
ATOM     13  C28 UNL     1      21.857   9.656   2.994 -0.43 +0.00    +0.032 A 
ATOM     14  C29 UNL     1      22.448   9.395   4.235 +0.06 +0.00    +0.017 A 
ATOM     15  C30 UNL     1      23.835   9.485   4.378 -0.57 +0.00    +0.008 A 
ATOM     16  C31 UNL     1      24.644   9.826   3.284 -0.56 -0.00    -0.057 A 
ATOM     17  C32 UNL     1      24.042  10.087   2.045 +0.01 +0.00    +0.008 A 
ATOM     18  C33 UNL     1      22.658   9.992   1.897 +0.03 +0.00    +0.017 A 
BRANCH  16  19
ATOM     19  C34 UNL     1      26.149   9.909   3.421 +0.61 +0.00    +0.068 C 
BRANCH  19  20
ATOM     20  C35 UNL     1      26.933   8.895   2.564 -0.27 +0.00    +0.274 C 
BRANCH  20  21
ATOM     21  N4  UNL     1      26.336   7.558   2.414 -0.42 +0.00    +0.086 N 
ATOM     22  H53 UNL     1      25.374   7.677   2.085 +0.26 +0.00    +0.316 HD
BRANCH  21  23
ATOM     23  C36 UNL     1      27.064   6.728   1.434 +0.34 +0.00    +0.306 C 
BRANCH  23  24
ATOM     24  C37 UNL     1      27.454   7.590   0.208 -0.30 +0.00    +0.180 C 
BRANCH  24  25
ATOM     25  C38 UNL     1      28.252   6.788  -0.804 -0.28 -0.00    -0.015 A 
ATOM     26  C39 UNL     1      27.816   5.525  -1.268 -0.26 +0.00    +0.003 A 
ATOM     27  C40 UNL     1      26.596   4.851  -0.791 -0.37 +0.00    +0.020 A 
ATOM     28  C43 UNL     1      28.573   4.860  -2.251 -0.15 +0.00    +0.079 A 
ATOM     29  C41 UNL     1      26.220   3.667  -1.292 -0.03 +0.00    +0.075 A 
ATOM     30  C42 UNL     1      27.010   2.985  -2.342 -0.18 +0.00    +0.245 A 
ATOM     31  N5  UNL     1      28.144   3.621  -2.749 -0.09 -0.00    -0.321 N 
ATOM     32  O6  UNL     1      26.640   1.912  -2.806 -0.29 -0.00    -0.268 OA
ATOM     33  H54 UNL     1      28.711   3.174  -3.461 +0.06 +0.00    +0.169 HD
ATOM     34  C44 UNL     1      29.747   5.419  -2.760 -0.11 +0.00    +0.093 A 
ATOM     35  C45 UNL     1      30.187   6.654  -2.306 -0.14 +0.00    +0.039 A 
ATOM     36  C46 UNL     1      29.440   7.332  -1.340 -0.23 +0.00    +0.013 A 
BRANCH  34  37
ATOM     37  O7  UNL     1      30.445   4.731  -3.715 -0.04 -0.00    -0.358 OA
ATOM     38  H55 UNL     1      31.052   4.115  -3.273 +0.04 +0.00    +0.217 HD
ENDBRANCH  34  37
ENDBRANCH  24  25
BRANCH  24  39
ATOM     39  O8  UNL     1      26.252   8.119  -0.368 -0.10 -0.00    -0.389 OA
ATOM     40  H56 UNL     1      25.534   7.715   0.161 +0.16 +0.00    +0.210 HD
ENDBRANCH  24  39
ENDBRANCH  23  24
ENDBRANCH  21  23
ENDBRANCH  20  21
ENDBRANCH  19  20
ENDBRANCH  16  19
ENDBRANCH  10  13
ENDBRANCH   7   9
ENDBRANCH   2   5
BRANCH   1  41
ATOM     41  C21 UNL     1      13.139   7.792   3.596 -0.30 +0.00    +0.278 C 
BRANCH  41  42
ATOM     42  O3  UNL     1      11.914   7.664   4.318 -0.21 -0.00    -0.342 OA
BRANCH  42  43
ATOM     43  C17 UNL     1      11.203   6.547   3.969 -0.29 +0.00    +0.070 A 
ATOM     44  C16 UNL     1      10.437   6.498   2.803 -0.28 +0.00    +0.047 A 
ATOM     45  C15 UNL     1       9.819   5.301   2.386 -0.12 -0.00    -0.007 A 
ATOM     46  C20 UNL     1       9.964   4.170   3.211 +0.45 +0.00    +0.011 A 
ATOM     47  C19 UNL     1      10.722   4.226   4.384 -0.29 +0.00    +0.003 A 
ATOM     48  C18 UNL     1      11.359   5.410   4.753 -0.28 +0.00    +0.037 A 
BRANCH  45  49
ATOM     49  C8  UNL     1       9.100   5.206   1.031 -0.11 +0.00    +0.201 C 
BRANCH  49  50
ATOM     50  C7  UNL     1      10.092   5.125  -0.176 -0.09 +0.00    +0.303 C 
ATOM     51  O2  UNL     1      11.253   4.738  -0.145 -0.05 -0.00    -0.261 OA
BRANCH  50  52
ATOM     52  O1  UNL     1       9.493   5.677  -1.283 -0.09 -0.00    -0.318 OA
BRANCH  52  53
ATOM     53  C6  UNL     1       9.676   5.016  -2.543 -0.16 +0.00    +0.183 C 
BRANCH  53  54
ATOM     54  C5  UNL     1       8.841   3.732  -2.534 -0.19 +0.00    +0.013 C 
ATOM     55  C1  UNL     1       7.330   4.034  -2.624 -0.00 +0.00    +0.037 C 
ATOM     56  C2  UNL     1       6.459   2.973  -1.939 -0.05 +0.00    +0.273 C 
ATOM     57  N1  UNL     1       7.067   1.655  -2.099 -0.09 +0.00    +0.092 N 
ATOM     58  C3  UNL     1       8.334   1.555  -1.355 -0.05 +0.00    +0.273 C 
ATOM     59  C4  UNL     1       9.133   2.867  -1.310 -0.17 +0.00    +0.037 C 
BRANCH  57  60
ATOM     60  C47 UNL     1       6.162   0.558  -1.728 -0.06 +0.00    +0.311 C 
BRANCH  60  61
ATOM     61  C48 UNL     1       5.077   0.957  -0.746 -0.12 -0.00    -0.030 A 
ATOM     62  C49 UNL     1       3.747   1.084  -1.178 -0.12 +0.00    +0.009 A 
ATOM     63  C50 UNL     1       2.754   1.522  -0.299 -0.11 +0.00    +0.001 A 
ATOM     64  C51 UNL     1       3.079   1.845   1.016 -0.12 +0.00    +0.000 A 
ATOM     65  C52 UNL     1       4.395   1.723   1.459 -0.17 +0.00    +0.001 A 
ATOM     66  C53 UNL     1       5.388   1.286   0.582 -0.11 +0.00    +0.009 A 
ENDBRANCH  60  61
ENDBRANCH  57  60
ENDBRANCH  53  54
ENDBRANCH  52  53
ENDBRANCH  50  52
ENDBRANCH  49  50
BRANCH  49  67
ATOM     67  C9  UNL     1       8.079   6.349   0.862 -0.24 -0.00    -0.009 A 
ATOM     68  C10 UNL     1       8.393   7.444   0.032 -0.37 +0.00    +0.011 A 
ATOM     69  C11 UNL     1       7.487   8.488  -0.163 +0.17 +0.00    +0.001 A 
ATOM     70  C12 UNL     1       6.245   8.460   0.463 +1.86 +0.00    +0.000 A 
ATOM     71  C13 UNL     1       5.909   7.384   1.280 -0.12 +0.00    +0.001 A 
ATOM     72  C14 UNL     1       6.811   6.335   1.473 -0.27 +0.00    +0.011 A 
ENDBRANCH  49  67
BRANCH  49  73
ATOM     73  O9  UNL     1       8.335   3.976   1.000 -0.03 -0.00    -0.371 OA
ATOM     74  H57 UNL     1       8.993   3.271   1.142 -0.01 +0.00    +0.212 HD
ENDBRANCH  49  73
ENDBRANCH  45  49
ENDBRANCH  42  43
ENDBRANCH  41  42
ENDBRANCH   1  41
TORSDOF 23
TER
