USER    Run = 1
USER    DPF = ligand_475_receptor.dpf
USER  
USER    Estimated Free Energy of Binding    =  +5.42e+003 kcal/mol  [=(1)+(2)+(3)-(4)]
USER    
USER    (1) Final Intermolecular Energy     =  +5.42e+003 kcal/mol
USER        vdW + Hbond + desolv Energy     =  +5.42e+003 kcal/mol
USER        Electrostatic Energy            =   +0.00 kcal/mol
USER    (2) Final Total Internal Energy     =   +0.00 kcal/mol
USER    (3) Torsional Free Energy           =   +1.19 kcal/mol
USER    (4) Unbound System's Energy  [=(2)] =   +0.00 kcal/mol
USER    
USER    
USER    NEWDPF move ligand_475.pdbqt
USER    NEWDPF about 0.000000 0.000000 0.000000
USER    NEWDPF tran0 17.018381 7.555474 1.101850
USER    NEWDPF quaternion0 0.033746 0.421002 0.903997 0.066395
USER    NEWDPF axisangle0 0.033821 0.421933 0.905996 172.386125
USER    NEWDPF quat0 0.033821 0.421933 0.905996 172.386125
USER  keepresnum = 1 
USER  
REMARK  0 active torsions:
REMARK  status: ('A' for Active; 'I' for Inactive)
REMARK       I    between atoms: C2_2  and  C3_3 
REMARK       I    between atoms: C3_3  and  C5_5 
REMARK       I    between atoms: C5_5  and  C6_6 
REMARK       I    between atoms: C5_5  and  N5_69 
REMARK       I    between atoms: C6_6  and  C7_7 
REMARK       I    between atoms: C6_6  and  O5_59 
REMARK       I    between atoms: C7_7  and  C8_8 
REMARK       I    between atoms: C8_8  and  N1_65 
REMARK       I    between atoms: C12_12  and  C13_13 
REMARK       I    between atoms: C13_13  and  C14_14 
REMARK       I    between atoms: C13_13  and  O4_58 
REMARK       I    between atoms: C14_14  and  C16_16 
REMARK       I    between atoms: C16_16  and  N2_66 
REMARK       I    between atoms: C17_17  and  C18_18 
REMARK       I    between atoms: C17_17  and  C27_27 
REMARK       I    between atoms: C17_17  and  N2_66 
REMARK       I    between atoms: C18_18  and  C19_19 
REMARK       I    between atoms: C27_27  and  N4_68 
REMARK       I    between atoms: C31_31  and  C32_32 
REMARK       I    between atoms: C31_31  and  N5_69 
REMARK       I    between atoms: C32_32  and  C33_33 
REMARK       I    between atoms: C32_32  and  N6_70 
REMARK       I    between atoms: C36_36  and  C37_37 
REMARK       I    between atoms: C36_36  and  N6_70 
REMARK       I    between atoms: C37_37  and  C38_38 
REMARK       I    between atoms: C37_37  and  N7_71 
REMARK       I    between atoms: C42_42  and  C43_43 
REMARK       I    between atoms: C42_42  and  N7_71 
REMARK       I    between atoms: C43_43  and  C44_44 
REMARK       I    between atoms: C44_44  and  C45_45 
REMARK       I    between atoms: C45_45  and  C46_46 
REMARK       I    between atoms: C46_46  and  C47_47 
REMARK       I    between atoms: C47_47  and  N8_72 
REMARK       I    between atoms: C50_50  and  C52_52 
REMARK       I    between atoms: C52_52  and  C53_53 
REMARK       I    between atoms: C53_53  and  C54_54 
REMARK       I    between atoms: C53_53  and  N9_73 
REMARK       I    between atoms: C54_54  and  S1_74 
USER                              x       y       z     vdW  Elec       q    Type
USER                           _______ _______ _______ _____ _____    ______ ____
ROOT
ATOM      1  C1  UNL     1      12.891  12.300   0.823+69.04 +0.00    +0.005 C 
ATOM      2  C2  UNL     1      14.149  11.903   1.586 +3.85 +0.00    +0.002 C 
ATOM      3  C3  UNL     1      14.098  10.465   2.171+60.51 +0.00    +0.006 C 
ATOM      4  C4  UNL     1      13.063  10.418   3.307+99.99 +0.00    +0.012 C 
ATOM      5  C5  UNL     1      15.517  10.017   2.668 -0.25 +0.00    +0.119 C 
ATOM      6  C6  UNL     1      15.576   8.631   3.423 -0.45 +0.00    +0.152 C 
ATOM      7  C7  UNL     1      15.559   7.363   2.570+17.96 +0.00    +0.137 C 
ATOM      8  C8  UNL     1      14.264   7.112   1.832+85.26 +0.00    +0.222 C 
ATOM      9  C9  UNL     1      13.155   6.223   3.926 +0.48 +0.00    +0.126 C 
ATOM     10  C10 UNL     1      12.064   5.167   3.940 +3.84 +0.00    +0.022 C 
ATOM     11  C11 UNL     1      11.036   5.750   2.985 -0.18 +0.00    +0.029 C 
ATOM     12  C12 UNL     1      11.895   6.365   1.866 -0.30 +0.00    +0.117 C 
ATOM     13  C13 UNL     1      11.222   7.551   1.103 +2.17 +0.00    +0.156 C 
ATOM     14  C14 UNL     1      10.489   7.139  -0.199 -0.23 +0.00    +0.105 C 
ATOM     15  C15 UNL     1      11.451   6.675  -1.299 -0.40 +0.00    +0.022 C 
ATOM     16  C16 UNL     1       9.327   6.176   0.021 -0.16 +0.00    +0.224 C 
ATOM     17  C17 UNL     1       8.524   3.828  -0.015 -0.08 +0.00    +0.180 C 
ATOM     18  C18 UNL     1       8.917   2.542  -0.756 -0.14 +0.00    +0.075 C 
ATOM     19  C19 UNL     1       7.760   1.613  -0.961 -0.11 -0.00    -0.028 A 
ATOM     20  C20 UNL     1       7.427   0.537  -0.163 -0.01 +0.00    +0.096 A 
ATOM     21  C21 UNL     1       5.891   0.620  -1.804 -0.12 +0.00    +0.042 A 
ATOM     22  C22 UNL     1       4.800   0.379  -2.648 -0.08 +0.00    +0.030 A 
ATOM     23  C23 UNL     1       4.617   1.240  -3.734 -0.05 +0.00    +0.002 A 
ATOM     24  C24 UNL     1       5.492   2.298  -3.965 -0.11 +0.00    +0.001 A 
ATOM     25  C25 UNL     1       6.578   2.526  -3.111 -0.13 +0.00    +0.014 A 
ATOM     26  C26 UNL     1       6.785   1.671  -2.008 -0.10 -0.00    -0.002 A 
ATOM     27  C27 UNL     1       8.295   3.561   1.483 -0.09 +0.00    +0.238 C 
ATOM     28  C28 UNL     1       9.866   9.504   1.524+99.99 +0.00    +0.202 C 
ATOM     29  C29 UNL     1      16.688   7.940   5.442 +9.96 +0.00    +0.202 C 
ATOM     30  C30 UNL     1      16.396   9.637   0.299 -0.34 +0.00    +0.153 C 
ATOM     31  C31 UNL     1      17.935  10.424   1.976 -0.34 +0.00    +0.243 C 
ATOM     32  C32 UNL     1      18.264  11.305   3.221 +0.11 +0.00    +0.180 C 
ATOM     33  C33 UNL     1      17.707  12.755   3.167 +1.52 +0.00    +0.009 C 
ATOM     34  C34 UNL     1      18.210  13.626   4.321+99.99 +0.00    +0.012 C 
ATOM     35  C35 UNL     1      17.833  13.492   1.830 +0.66 +0.00    +0.012 C 
ATOM     36  C36 UNL     1      20.758  11.727   2.997 +6.92 +0.00    +0.252 C 
ATOM     37  C37 UNL     1      22.129  11.073   3.375 +4.10 +0.00    +0.316 C 
ATOM     38  C38 UNL     1      22.794  11.884   4.530 +3.61 +0.00    +0.020 C 
ATOM     39  C39 UNL     1      21.919  11.928   5.790+99.99 +0.00    +0.012 C 
ATOM     40  C40 UNL     1      23.195  13.309   4.130+14.47 +0.00    +0.012 C 
ATOM     41  C41 UNL     1      22.287  10.181   1.093 +0.32 +0.00    +0.310 C 
ATOM     42  C42 UNL     1      24.317  10.335   2.406 +0.24 +0.00    +0.273 C 
ATOM     43  C43 UNL     1      24.350   8.927   3.022 -0.61 +0.00    +0.030 C 
ATOM     44  C44 UNL     1      25.771   8.416   3.284 -0.67 +0.00    +0.002 C 
ATOM     45  C45 UNL     1      26.674   8.276   2.055 -0.58 +0.00    +0.002 C 
ATOM     46  C46 UNL     1      26.104   7.345   0.983 -0.45 +0.00    +0.020 C 
ATOM     47  C47 UNL     1      27.113   7.112  -0.143 -0.31 +0.00    +0.135 C 
ATOM     48  C48 UNL     1      25.869   6.692  -2.245 +0.96 +0.00    +0.227 A 
ATOM     49  C49 UNL     1      25.391   5.522  -3.050+11.81 +0.00    +0.125 A 
ATOM     50  C50 UNL     1      25.932   4.300  -2.309 -0.11 +0.00    +0.159 A 
ATOM     51  C51 UNL     1      26.600   4.878  -1.096 -0.23 +0.00    +0.238 A 
ATOM     52  C52 UNL     1      26.881   3.444  -3.134 +0.19 +0.00    +0.174 C 
ATOM     53  C53 UNL     1      27.541   2.221  -2.463 -0.08 +0.00    +0.296 C 
ATOM     54  C54 UNL     1      28.012   1.231  -3.546 -0.11 +0.00    +0.114 C 
ATOM     55  O1  UNL     1      14.216   7.255   0.608 +3.09 -0.00    -0.273 OA
ATOM     56  O2  UNL     1       8.203   6.579   0.323 -0.17 -0.00    -0.273 OA
ATOM     57  O3  UNL     1       8.903   2.721   2.142 -0.19 -0.00    -0.271 OA
ATOM     58  O4  UNL     1      10.381   8.277   2.020 +2.82 -0.00    -0.388 OA
ATOM     59  O5  UNL     1      16.803   8.621   4.197 -0.29 -0.00    -0.388 OA
ATOM     60  O6  UNL     1      18.846   9.970   1.271 -0.28 -0.00    -0.271 OA
ATOM     61  O7  UNL     1      20.664  12.713   2.275 +0.63 -0.00    -0.271 OA
ATOM     62  O8  UNL     1      25.627   7.858  -2.516+48.35 -0.00    -0.273 OA
ATOM     63  O9  UNL     1      27.092   4.213  -0.194 -0.74 -0.00    -0.272 OA
ATOM     64  O10 UNL     1      27.150   3.744  -4.301 +9.47 -0.00    -0.295 OA
ATOM     65  N1  UNL     1      13.155   6.723   2.557 +0.01 -0.00    -0.345 N 
ATOM     66  N2  UNL     1       9.592   4.834  -0.126 -0.03 -0.00    -0.347 N 
ATOM     67  N3  UNL     1       6.305  -0.051  -0.678 +0.80 -0.00    -0.365 N 
ATOM     68  N4  UNL     1       7.445   4.446   2.093 +0.01 -0.00    -0.368 N 
ATOM     69  N5  UNL     1      16.593  10.185   1.641 -0.19 -0.00    -0.347 N 
ATOM     70  N6  UNL     1      19.674  11.105   3.592+14.86 -0.00    -0.346 N 
ATOM     71  N7  UNL     1      22.984  10.907   2.162+50.83 +0.00    +0.098 N 
ATOM     72  N8  UNL     1      26.572   6.238  -1.168 -0.19 -0.00    -0.288 N 
ATOM     73  N9  UNL     1      26.597   1.583  -1.520+50.54 +0.00    +0.090 N 
ATOM     74  S1  UNL     1      28.844  -0.230  -2.828+25.33 -0.00    -0.180 SA
ATOM     75  H80 UNL     1      10.545   4.502  -0.067 -0.13 +0.00    +0.163 HD
ATOM     76  H81 UNL     1       5.840  -0.860  -0.289 +2.09 +0.00    +0.165 HD
ATOM     77  H82 UNL     1       7.316   5.358   1.655 +0.07 +0.00    +0.159 HD
ATOM     78  H83 UNL     1       7.412   4.419   3.102 +0.08 +0.00    +0.159 HD
ATOM     79  H84 UNL     1      19.858  10.157   3.893 +0.59 +0.00    +0.163 HD
ATOM     80  H85 UNL     1      26.978   0.662  -1.280+69.53 +0.00    +0.313 HD
ATOM     81  H86 UNL     1      26.637   2.106  -0.636+71.98 +0.00    +0.313 HD
ATOM     82  H87 UNL     1      29.094  -0.844  -3.995 -0.00 +0.00    +0.101 HD
ENDROOT
TORSDOF 33
TER
