USER    Run = 1
USER    DPF = ligand_28_receptor.dpf
USER  
USER    Estimated Free Energy of Binding    =  +1.16e+003 kcal/mol  [=(1)+(2)+(3)-(4)]
USER    
USER    (1) Final Intermolecular Energy     =  +1.16e+003 kcal/mol
USER        vdW + Hbond + desolv Energy     =  +1.16e+003 kcal/mol
USER        Electrostatic Energy            =   +0.00 kcal/mol
USER    (2) Final Total Internal Energy     =  +29.39 kcal/mol
USER    (3) Torsional Free Energy           =   +1.19 kcal/mol
USER    (4) Unbound System's Energy  [=(2)] =  +29.39 kcal/mol
USER    
USER    
USER    NEWDPF move ligand_28.pdbqt
USER    NEWDPF about 0.000000 0.000000 0.000000
USER    NEWDPF tran0 9.562454 8.237935 4.280618
USER    NEWDPF quaternion0 -0.299325 -0.772553 0.429459 -0.359348
USER    NEWDPF axisangle0 -0.320750 -0.827851 0.460199 -137.879719
USER    NEWDPF quat0 -0.320750 -0.827851 0.460199 -137.879719
USER    NEWDPF dihe0 180.00 -179.87 -5.70 -99.73 -155.61 101.02 -167.25 180.00 123.02 -13.53 -8.56 176.42 -179.60 42.71 -145.06 -13.39 -129.89 -95.04 -61.61 180.00 48.30 -77.54 -175.93 -110.54 -78.03 -27.36 -107.39 
USER  keepresnum = 1 
USER  
REMARK  27 active torsions:
REMARK  status: ('A' for Active; 'I' for Inactive)
REMARK    1  A    between atoms: C3_3  and  C4_4 
REMARK    2  A    between atoms: C3_3  and  N1_58 
REMARK    3  A    between atoms: C4_4  and  C5_5 
REMARK    4  A    between atoms: C5_5  and  N2_59 
REMARK    5  A    between atoms: C6_6  and  C7_7 
REMARK       I    between atoms: C6_6  and  N2_59 
REMARK    6  A    between atoms: C7_7  and  C8_8 
REMARK    7  A    between atoms: C8_8  and  N3_60 
REMARK    8  A    between atoms: C9_9  and  C10_10 
REMARK       I    between atoms: C9_9  and  N3_60 
REMARK    9  A    between atoms: C12_12  and  N4_61 
REMARK   10  A    between atoms: C13_13  and  C14_14 
REMARK       I    between atoms: C13_13  and  N4_61 
REMARK   11  A    between atoms: C16_16  and  N5_62 
REMARK   12  A    between atoms: C17_17  and  C18_18 
REMARK       I    between atoms: C17_17  and  N5_62 
REMARK   13  A    between atoms: C19_19  and  N7_65 
REMARK   14  A    between atoms: C20_20  and  C21_21 
REMARK       I    between atoms: C20_20  and  N7_65 
REMARK   15  A    between atoms: C23_23  and  N8_66 
REMARK   16  A    between atoms: C24_24  and  C25_25 
REMARK       I    between atoms: C24_24  and  N8_66 
REMARK   17  A    between atoms: C25_25  and  C26_26 
REMARK   18  A    between atoms: C25_25  and  N9_67 
REMARK   19  A    between atoms: C26_26  and  C27_27 
REMARK   20  A    between atoms: C27_27  and  N10_68 
REMARK   21  A    between atoms: C28_28  and  C29_29 
REMARK       I    between atoms: C28_28  and  N10_68 
REMARK   22  A    between atoms: C30_30  and  N12_71 
REMARK   23  A    between atoms: C31_31  and  C32_32 
REMARK       I    between atoms: C31_31  and  N12_71 
REMARK   24  A    between atoms: C34_34  and  N13_72 
REMARK   25  A    between atoms: C35_35  and  C36_36 
REMARK       I    between atoms: C35_35  and  N13_72 
REMARK   26  A    between atoms: C38_38  and  N14_73 
REMARK   27  A    between atoms: C39_39  and  C40_40 
REMARK       I    between atoms: C39_39  and  N14_73 
USER                              x       y       z     vdW  Elec       q    Type
USER                           _______ _______ _______ _____ _____    ______ ____
ROOT
ATOM      1  C21 UNL     1       9.656   5.521   6.527 -0.26 +0.00    +0.105 A 
ATOM      2  C22 UNL     1       8.840   6.250   7.389 +1.05 +0.00    +0.066 A 
ATOM      3  C23 UNL     1       7.659   6.618   6.706+36.85 +0.00    +0.052 A 
ATOM      4  C50 UNL     1       7.755   6.103   5.438 +1.18 +0.00    +0.120 A 
ATOM      5  C51 UNL     1       9.400   4.768   4.130 -0.22 +0.00    +0.156 C 
ATOM      6  N20 UNL     1       8.954   5.438   5.335 -0.07 -0.00    -0.354 N 
ENDROOT
BRANCH   3   7
ATOM      7  N8  UNL     1       6.574   7.343   7.142+33.20 -0.00    -0.324 N 
ATOM      8  C24 UNL     1       5.340   6.824   7.490 -0.11 +0.00    +0.255 C 
ATOM      9  O6  UNL     1       5.011   5.641   7.453 -0.29 -0.00    -0.271 OA
ATOM     10  H65 UNL     1       6.683   8.341   7.304+12.90 +0.00    +0.169 HD
BRANCH   8  11
ATOM     11  C25 UNL     1       4.347   7.946   7.887 +0.24 +0.00    +0.310 C 
BRANCH  11  12
ATOM     12  C26 UNL     1       2.927   7.410   8.126 +0.83 +0.00    +0.065 C 
BRANCH  12  13
ATOM     13  C27 UNL     1       2.373   6.486   7.037 -0.19 +0.00    +0.125 C 
BRANCH  13  14
ATOM     14  N10 UNL     1       3.406   5.970   6.165 -0.09 -0.00    -0.354 N 
ATOM     15  C28 UNL     1       4.337   6.744   5.515 +1.07 +0.00    +0.285 C 
ATOM     16  O7  UNL     1       4.455   7.950   5.722+33.22 -0.00    -0.264 OA
ATOM     17  H68 UNL     1       3.405   4.983   5.903 +0.06 +0.00    +0.162 HD
BRANCH  15  18
ATOM     18  C29 UNL     1       5.167   5.981   4.601 +0.12 +0.00    +0.178 A 
ATOM     19  N11 UNL     1       6.103   6.544   3.852 +0.62 -0.00    -0.323 N 
ATOM     20  C30 UNL     1       6.671   5.539   3.133 -0.13 +0.00    +0.125 A 
ATOM     21  H11 UNL     1       6.349   7.534   3.821 +1.34 +0.00    +0.169 HD
ATOM     22  C48 UNL     1       6.081   4.334   3.430 -0.11 +0.00    +0.140 A 
ATOM     23  N19 UNL     1       5.126   4.627   4.367 -0.05 -0.00    -0.339 N 
ATOM     24  C49 UNL     1       4.240   3.681   4.999 -0.20 +0.00    +0.157 C 
BRANCH  20  25
ATOM     25  N12 UNL     1       7.689   5.710   2.229 -0.05 -0.00    -0.306 N 
ATOM     26  C31 UNL     1       7.668   5.254   0.927 -0.07 +0.00    +0.274 C 
ATOM     27  O8  UNL     1       6.727   4.667   0.402 -0.08 -0.00    -0.266 OA
ATOM     28  H69 UNL     1       8.477   6.250   2.545 +0.09 +0.00    +0.170 HD
BRANCH  26  29
ATOM     29  C32 UNL     1       8.893   5.554   0.184 -0.13 +0.00    +0.105 A 
ATOM     30  C33 UNL     1      10.080   6.146   0.611 -0.23 +0.00    +0.066 A 
ATOM     31  C34 UNL     1      10.981   6.218  -0.483 -0.31 +0.00    +0.053 A 
ATOM     32  C46 UNL     1      10.333   5.664  -1.558 -0.17 +0.00    +0.120 A 
ATOM     33  N18 UNL     1       9.088   5.252  -1.154 -0.03 -0.00    -0.354 N 
ATOM     34  C47 UNL     1       8.128   4.617  -2.033 +0.01 +0.00    +0.156 C 
BRANCH  31  35
ATOM     35  N13 UNL     1      12.255   6.750  -0.425 -0.26 -0.00    -0.320 N 
ATOM     36  C35 UNL     1      12.859   7.303   0.691 +2.82 +0.00    +0.273 C 
ATOM     37  O9  UNL     1      12.321   7.408   1.789 -0.11 -0.00    -0.266 OA
ATOM     38  H70 UNL     1      12.769   6.750  -1.292 +0.06 +0.00    +0.169 HD
BRANCH  36  39
ATOM     39  C36 UNL     1      14.223   7.780   0.454 +8.50 +0.00    +0.105 A 
ATOM     40  C37 UNL     1      15.032   8.605   1.233+14.57 +0.00    +0.066 A 
ATOM     41  C38 UNL     1      16.273   8.783   0.579 -0.49 +0.00    +0.053 A 
ATOM     42  C44 UNL     1      16.208   8.076  -0.595 -0.37 +0.00    +0.120 A 
ATOM     43  N17 UNL     1      14.974   7.480  -0.671 +0.10 -0.00    -0.354 N 
ATOM     44  C45 UNL     1      14.550   6.648  -1.779 +9.06 +0.00    +0.156 C 
BRANCH  41  45
ATOM     45  N14 UNL     1      17.382   9.504   0.959 -0.22 -0.00    -0.319 N 
ATOM     46  C39 UNL     1      18.557   9.630   0.244 -0.09 +0.00    +0.290 C 
ATOM     47  O10 UNL     1      18.784   9.118  -0.849 +1.17 -0.00    -0.264 OA
ATOM     48  H71 UNL     1      17.356   9.998   1.847 +0.14 +0.00    +0.169 HD
BRANCH  46  49
ATOM     49  C40 UNL     1      19.523  10.466   0.951 -0.36 +0.00    +0.176 A 
ATOM     50  N15 UNL     1      20.537   9.962   1.644 -0.18 -0.00    -0.346 N 
ATOM     51  C41 UNL     1      21.212  11.040   2.154 +1.82 +0.00    +0.107 A 
ATOM     52  H15 UNL     1      20.767   8.976   1.770 +0.13 +0.00    +0.167 HD
ATOM     53  C42 UNL     1      20.613  12.216   1.774 +2.06 +0.00    +0.109 A 
ATOM     54  N16 UNL     1      19.542  11.840   1.011 -0.33 -0.00    -0.342 N 
ATOM     55  C43 UNL     1      18.602  12.736   0.381 +0.42 +0.00    +0.157 C 
ENDBRANCH  46  49
ENDBRANCH  41  45
ENDBRANCH  36  39
ENDBRANCH  31  35
ENDBRANCH  26  29
ENDBRANCH  20  25
ENDBRANCH  15  18
ENDBRANCH  13  14
ENDBRANCH  12  13
ENDBRANCH  11  12
BRANCH  11  56
ATOM     56  N9  UNL     1       4.893   8.747   9.008+10.65 +0.00    +0.092 N 
ATOM     57  H66 UNL     1       5.832   8.405   9.218 +0.63 +0.00    +0.313 HD
ATOM     58  H67 UNL     1       5.048   9.708   8.667 +0.18 +0.00    +0.313 HD
ENDBRANCH  11  56
ENDBRANCH   8  11
ENDBRANCH   3   7
BRANCH   1  59
ATOM     59  C20 UNL     1      10.974   4.925   6.756 -0.25 +0.00    +0.274 C 
ATOM     60  N7  UNL     1      12.023   5.784   6.497 -0.15 -0.00    -0.306 N 
ATOM     61  H64 UNL     1      11.826   6.710   6.155 +0.13 +0.00    +0.170 HD
ATOM     62  O5  UNL     1      11.095   3.762   7.131 -0.33 -0.00    -0.266 OA
BRANCH  60  63
ATOM     63  C19 UNL     1      13.349   5.464   6.641 -0.43 +0.00    +0.125 A 
ATOM     64  C52 UNL     1      13.821   4.226   7.002 -0.34 +0.00    +0.140 A 
ATOM     65  N21 UNL     1      15.184   4.355   7.022 +8.37 -0.00    -0.339 N 
ATOM     66  C18 UNL     1      15.489   5.649   6.677+22.03 +0.00    +0.178 A 
ATOM     67  C53 UNL     1      16.128   3.313   7.348+99.99 +0.00    +0.157 C 
ATOM     68  N6  UNL     1      14.378   6.332   6.442 -0.28 -0.00    -0.323 N 
ATOM     69  H6  UNL     1      14.309   7.311   6.167 +0.13 +0.00    +0.169 HD
BRANCH  66  70
ATOM     70  C17 UNL     1      16.811   6.251   6.563+87.24 +0.00    +0.290 C 
ATOM     71  N5  UNL     1      17.043   6.689   5.273+19.44 -0.00    -0.319 N 
ATOM     72  H63 UNL     1      16.275   6.526   4.623 +0.20 +0.00    +0.169 HD
ATOM     73  O4  UNL     1      17.587   6.341   7.511+22.60 -0.00    -0.264 OA
BRANCH  71  74
ATOM     74  C16 UNL     1      18.180   7.304   4.800+14.76 +0.00    +0.053 A 
ATOM     75  C15 UNL     1      19.339   6.627   4.347+28.57 +0.00    +0.066 A 
ATOM     76  C14 UNL     1      20.287   7.567   3.948 +9.26 +0.00    +0.105 A 
ATOM     77  N22 UNL     1      19.688   8.802   4.145 +0.42 -0.00    -0.354 N 
ATOM     78  C54 UNL     1      18.428   8.645   4.666 +1.00 +0.00    +0.120 A 
ATOM     79  C55 UNL     1      20.287  10.092   3.868+39.61 +0.00    +0.156 C 
BRANCH  76  80
ATOM     80  C13 UNL     1      21.633   7.379   3.410+21.16 +0.00    +0.273 C 
ATOM     81  N4  UNL     1      22.465   8.472   3.575 +0.45 -0.00    -0.320 N 
ATOM     82  H62 UNL     1      22.086   9.307   3.992 +0.12 +0.00    +0.169 HD
ATOM     83  O3  UNL     1      21.969   6.338   2.852+24.10 -0.00    -0.266 OA
BRANCH  81  84
ATOM     84  C12 UNL     1      23.784   8.544   3.172 -0.36 +0.00    +0.053 A 
ATOM     85  C11 UNL     1      24.412   8.089   1.988 -0.39 +0.00    +0.066 A 
ATOM     86  C10 UNL     1      25.769   8.396   2.048 -0.42 +0.00    +0.104 A 
ATOM     87  N23 UNL     1      25.952   9.042   3.259 -0.33 -0.00    -0.354 N 
ATOM     88  C56 UNL     1      24.763   9.126   3.940 -0.31 +0.00    +0.120 A 
ATOM     89  C57 UNL     1      27.209   9.556   3.763 +7.43 +0.00    +0.156 C 
BRANCH  86  90
ATOM     90  C9  UNL     1      26.826   8.141   1.081 -0.29 +0.00    +0.268 C 
ATOM     91  N3  UNL     1      26.527   7.203   0.118 -0.13 -0.00    -0.355 N 
ATOM     92  H61 UNL     1      25.700   6.630   0.231 +0.12 +0.00    +0.162 HD
ATOM     93  O2  UNL     1      27.922   8.695   1.114 -0.25 -0.00    -0.266 OA
BRANCH  91  94
ATOM     94  C8  UNL     1      27.503   6.754  -0.854 -0.30 +0.00    +0.132 C 
BRANCH  94  95
ATOM     95  C7  UNL     1      28.646   5.967  -0.224 -0.21 +0.00    +0.122 C 
BRANCH  95  96
ATOM     96  C6  UNL     1      29.815   5.800  -1.174 -0.08 +0.00    +0.219 C 
ATOM     97  N2  UNL     1      29.752   6.659  -2.250 -0.07 -0.00    -0.361 N 
ATOM     98  H60 UNL     1      28.842   7.052  -2.480 +0.05 +0.00    +0.162 HD
ATOM     99  O1  UNL     1      30.717   4.985  -1.005 -0.02 -0.00    -0.274 OA
BRANCH  97 100
ATOM    100  C5  UNL     1      30.665   6.552  -3.367 -0.13 +0.00    +0.124 C 
BRANCH 100 101
ATOM    101  C4  UNL     1      32.108   6.851  -2.960 -0.06 +0.00    +0.050 C 
BRANCH 101 102
ATOM    102  C3  UNL     1      32.215   7.860  -1.802 -0.04 +0.00    +0.273 C 
BRANCH 102 103
ATOM    103  N1  UNL     1      31.791   9.235  -2.141 -0.19 +0.00    +0.080 N 
ATOM    104  C1  UNL     1      31.665   9.370  -3.597 -0.03 +0.00    +0.309 C 
ATOM    105  C2  UNL     1      30.503   9.561  -1.514 +0.22 +0.00    +0.309 C 
ENDBRANCH 102 103
ENDBRANCH 101 102
ENDBRANCH 100 101
ENDBRANCH  97 100
ENDBRANCH  95  96
ENDBRANCH  94  95
ENDBRANCH  91  94
ENDBRANCH  86  90
ENDBRANCH  81  84
ENDBRANCH  76  80
ENDBRANCH  71  74
ENDBRANCH  66  70
ENDBRANCH  60  63
ENDBRANCH   1  59
TORSDOF 27
TER
