USER    Run = 1
USER    DPF = ligand_376_receptor.dpf
USER  
USER    Estimated Free Energy of Binding    =  +9.45e+003 kcal/mol  [=(1)+(2)+(3)-(4)]
USER    
USER    (1) Final Intermolecular Energy     =  +9.45e+003 kcal/mol
USER        vdW + Hbond + desolv Energy     =  +9.45e+003 kcal/mol
USER        Electrostatic Energy            =   +0.00 kcal/mol
USER    (2) Final Total Internal Energy     =   +0.00 kcal/mol
USER    (3) Torsional Free Energy           =   +1.19 kcal/mol
USER    (4) Unbound System's Energy  [=(2)] =   +0.00 kcal/mol
USER    
USER    
USER    NEWDPF move ligand_376.pdbqt
USER    NEWDPF about 0.000000 0.000000 0.000000
USER    NEWDPF tran0 18.362884 6.917918 2.072140
USER    NEWDPF quaternion0 -0.119756 -0.525714 -0.832648 -0.126415
USER    NEWDPF axisangle0 -0.120724 -0.529965 -0.839382 -165.475031
USER    NEWDPF quat0 -0.120724 -0.529965 -0.839382 -165.475031
USER  keepresnum = 1 
USER  
REMARK  0 active torsions:
REMARK  status: ('A' for Active; 'I' for Inactive)
REMARK       I    between atoms: C2_2  and  C4_4 
REMARK       I    between atoms: C4_4  and  C5_5 
REMARK       I    between atoms: C4_4  and  N15_93 
REMARK       I    between atoms: C5_5  and  C6_6 
REMARK       I    between atoms: C6_6  and  C7_7 
REMARK       I    between atoms: C7_7  and  C8_8 
REMARK       I    between atoms: C7_7  and  C12_12 
REMARK       I    between atoms: C8_8  and  C9_9 
REMARK       I    between atoms: C9_9  and  C10_10 
REMARK       I    between atoms: C10_10  and  N1_73 
REMARK       I    between atoms: C11_11  and  N1_73 
REMARK       I    between atoms: C11_11  and  N2_74 
REMARK       I    between atoms: C12_12  and  N3_75 
REMARK       I    between atoms: C13_13  and  N3_75 
REMARK       I    between atoms: C16_16  and  C19_19 
REMARK       I    between atoms: C19_19  and  O4_59 
REMARK       I    between atoms: C20_20  and  O4_59 
REMARK       I    between atoms: C20_20  and  N4_76 
REMARK       I    between atoms: C21_21  and  C22_22 
REMARK       I    between atoms: C21_21  and  N4_76 
REMARK       I    between atoms: C22_22  and  C23_23 
REMARK       I    between atoms: C23_23  and  N5_77 
REMARK       I    between atoms: C24_24  and  N5_77 
REMARK       I    between atoms: C29_29  and  N8_82 
REMARK       I    between atoms: C37_37  and  N10_85 
REMARK       I    between atoms: C41_41  and  N14_92 
REMARK       I    between atoms: C44_44  and  C45_45 
REMARK       I    between atoms: C44_44  and  N15_93 
REMARK       I    between atoms: C45_45  and  C46_46 
REMARK       I    between atoms: C46_46  and  C47_47 
REMARK       I    between atoms: C47_47  and  C48_48 
REMARK       I    between atoms: C48_48  and  C49_49 
REMARK       I    between atoms: C49_49  and  C50_50 
REMARK       I    between atoms: C50_50  and  C51_51 
REMARK       I    between atoms: C51_51  and  C52_52 
REMARK       I    between atoms: C52_52  and  C54_54 
REMARK       I    between atoms: C54_54  and  C55_55 
REMARK       I    between atoms: C55_55  and  O17_72 
REMARK       I    between atoms: O11_66  and  P2_95 
REMARK       I    between atoms: O13_68  and  P1_94 
USER                              x       y       z     vdW  Elec       q    Type
USER                           _______ _______ _______ _____ _____    ______ ____
ROOT
ATOM      1  C1  UNL     1      23.644   4.000  -1.699+60.23 +0.00    +0.012 C 
ATOM      2  C2  UNL     1      24.671   5.047  -1.258 -0.51 +0.00    +0.007 C 
ATOM      3  C3  UNL     1      24.178   6.451  -1.616 -0.62 +0.00    +0.012 C 
ATOM      4  C4  UNL     1      25.060   4.893   0.232 -0.47 +0.00    +0.157 C 
ATOM      5  C5  UNL     1      23.965   5.393   1.212 -0.34 +0.00    +0.150 C 
ATOM      6  C6  UNL     1      24.369   6.394   2.286 +8.63 +0.00    +0.094 C 
ATOM      7  C7  UNL     1      23.168   7.044   2.980+79.54 +0.00    +0.085 C 
ATOM      8  C8  UNL     1      23.572   7.845   4.239+13.72 +0.00    +0.016 C 
ATOM      9  C9  UNL     1      24.832   8.731   4.180 -0.41 +0.00    +0.020 C 
ATOM     10  C10 UNL     1      24.710  10.019   3.361 -0.52 +0.00    +0.124 C 
ATOM     11  C11 UNL     1      26.201   9.787   1.408 +0.74 +0.00    +0.291 C 
ATOM     12  C12 UNL     1      22.358   7.915   2.014 +1.92 +0.00    +0.226 C 
ATOM     13  C13 UNL     1      20.075   8.939   1.852 +5.83 +0.00    +0.034 A 
ATOM     14  C14 UNL     1      20.269   9.688   0.691 +0.23 +0.00    +0.030 A 
ATOM     15  C15 UNL     1      19.230  10.462   0.162 -0.40 +0.00    +0.011 A 
ATOM     16  C16 UNL     1      17.979  10.505   0.787 -0.47 -0.00    -0.034 A 
ATOM     17  C17 UNL     1      17.783   9.748   1.947 -0.45 +0.00    +0.011 A 
ATOM     18  C18 UNL     1      18.821   8.975   2.474 -0.17 +0.00    +0.030 A 
ATOM     19  C19 UNL     1      16.850  11.320   0.209 +0.54 +0.00    +0.219 C 
ATOM     20  C20 UNL     1      14.825  11.020  -0.900+99.99 +0.00    +0.360 C 
ATOM     21  C21 UNL     1      12.833  10.407  -2.206+99.99 +0.00    +0.126 C 
ATOM     22  C22 UNL     1      11.872   9.231  -2.315+99.99 +0.00    +0.034 C 
ATOM     23  C23 UNL     1      11.241   8.885  -0.964+99.99 +0.00    +0.095 C 
ATOM     24  C24 UNL     1      11.016   6.479  -0.814 -0.28 +0.00    +0.112 A 
ATOM     25  C25 UNL     1      10.301   5.404  -0.251 -0.17 +0.00    +0.116 A 
ATOM     26  C26 UNL     1      10.997   4.228  -0.035 +6.24 +0.00    +0.142 A 
ATOM     27  C27 UNL     1      12.882   5.073  -0.826+13.45 +0.00    +0.183 A 
ATOM     28  C28 UNL     1       8.894   4.038   0.605 -0.04 +0.00    +0.188 A 
ATOM     29  C29 UNL     1      10.387   2.017   0.953+13.76 +0.00    +0.267 C 
ATOM     30  C30 UNL     1      11.385   1.953   2.108+99.99 +0.00    +0.251 C 
ATOM     31  C31 UNL     1      10.457   1.994   3.304 +9.74 +0.00    +0.201 C 
ATOM     32  C32 UNL     1       9.358   1.056   2.824+99.99 +0.00    +0.181 C 
ATOM     33  C33 UNL     1       8.034   1.158   3.584+99.99 +0.00    +0.213 C 
ATOM     34  C34 UNL     1       7.590   4.932   5.236 -0.23 +0.00    +0.201 C 
ATOM     35  C35 UNL     1       7.843   4.362   6.639 -0.38 +0.00    +0.181 C 
ATOM     36  C36 UNL     1       9.321   4.055   6.892 -0.38 +0.00    +0.213 C 
ATOM     37  C37 UNL     1       6.944   6.502   6.890 +8.12 +0.00    +0.267 C 
ATOM     38  C38 UNL     1       7.524   6.426   5.490 +6.61 +0.00    +0.251 C 
ATOM     39  C39 UNL     1       6.519   8.576   8.227 +9.64 +0.00    +0.188 A 
ATOM     40  C40 UNL     1       8.512   9.195   8.688+44.32 +0.00    +0.116 A 
ATOM     41  C41 UNL     1       9.703   9.805   9.118+99.99 +0.00    +0.109 A 
ATOM     42  C42 UNL     1      10.856   8.088   8.060+99.99 +0.00    +0.183 A 
ATOM     43  C43 UNL     1       8.641   8.034   7.944+99.99 +0.00    +0.142 A 
ATOM     44  C44 UNL     1      27.232   5.054   1.425+20.66 +0.00    +0.218 C 
ATOM     45  C45 UNL     1      28.402   5.984   1.676+11.33 +0.00    +0.103 C 
ATOM     46  C46 UNL     1      29.531   5.315   2.461+33.06 +0.00    +0.009 C 
ATOM     47  C47 UNL     1      30.551   6.306   3.035 +3.53 +0.00    +0.000 C 
ATOM     48  C48 UNL     1      31.111   7.328   2.043 -0.36 +0.00    +0.000 C 
ATOM     49  C49 UNL     1      31.920   6.703   0.904 -0.18 +0.00    +0.007 C 
ATOM     50  C50 UNL     1      32.372   7.758  -0.108 -0.10 +0.00    +0.079 C 
ATOM     51  C51 UNL     1      31.232   8.276  -0.974 -0.16 +0.00    +0.131 C 
ATOM     52  C52 UNL     1      31.442   9.636  -1.636 -0.24 +0.00    +0.061 C 
ATOM     53  C53 UNL     1      30.718   9.709  -2.980 +0.97 +0.00    +0.018 C 
ATOM     54  C54 UNL     1      31.043  10.767  -0.687 -0.02 +0.00    +0.121 C 
ATOM     55  C55 UNL     1      29.663  10.604  -0.102 +8.51 +0.00    +0.140 C 
ATOM     56  O1  UNL     1      22.808   4.965   1.158 -0.03 -0.00    -0.296 OA
ATOM     57  O2  UNL     1      27.255   9.969   2.003+11.91 -0.00    -0.254 OA
ATOM     58  O3  UNL     1      22.873   8.391   1.005 -0.28 -0.00    -0.273 OA
ATOM     59  O4  UNL     1      15.929  10.416  -0.405 +6.37 -0.00    -0.299 OA
ATOM     60  O5  UNL     1      14.599  12.219  -0.869 +4.62 -0.00    -0.239 OA
ATOM     61  O6  UNL     1       9.159   1.400   1.433 -0.21 -0.00    -0.353 OA
ATOM     62  O7  UNL     1       7.733   2.513   3.887 -0.20 -0.00    -0.311 OA
ATOM     63  O8  UNL     1       6.346   4.468   4.705 -0.13 -0.00    -0.303 OA
ATOM     64  O9  UNL     1       9.691   3.026   5.993 -0.30 -0.00    -0.311 OA
ATOM     65  O10 UNL     1      11.066   1.586   4.519 +3.63 -0.00    -0.303 OA
ATOM     66  O11 UNL     1      11.629   1.796   6.919+99.99 -0.00    -0.324 OA
ATOM     67  O12 UNL     1       7.351   5.314   7.597 -0.30 -0.00    -0.353 OA
ATOM     68  O13 UNL     1       5.670   3.192   2.698 -0.06 -0.00    -0.324 OA
ATOM     69  O14 UNL     1      27.038   4.015   2.046+99.99 -0.00    -0.274 OA
ATOM     70  O15 UNL     1      30.199   7.629  -1.147 -0.10 -0.00    -0.298 OA
ATOM     71  O16 UNL     1      28.616  10.579  -0.731+99.99 -0.00    -0.650 OA
ATOM     72  O17 UNL     1      29.699  10.479   1.238+99.99 -0.00    -0.776 OA
ATOM     73  N1  UNL     1      24.956   9.830   1.950 -0.20 -0.00    -0.348 N 
ATOM     74  N2  UNL     1      26.175   9.495   0.083+14.14 -0.00    -0.254 NA
ATOM     75  N3  UNL     1      21.067   8.138   2.454 +6.13 -0.00    -0.327 N 
ATOM     76  N4  UNL     1      14.012  10.073  -1.442+99.99 -0.00    -0.337 N 
ATOM     77  N5  UNL     1      10.396   7.706  -1.083 -0.13 -0.00    -0.277 NA
ATOM     78  N6  UNL     1      12.290   3.985  -0.294 +4.59 -0.00    -0.336 N 
ATOM     79  H6  UNL     1      12.761   3.098  -0.114 +1.20 +0.00    +0.168 HD
ATOM     80  N7  UNL     1      12.335   6.280  -1.089 -0.27 -0.00    -0.341 N 
ATOM     81  H7  UNL     1      12.900   7.030  -1.488 +0.05 +0.00    +0.167 HD
ATOM     82  N8  UNL     1      10.088   3.372   0.524 +4.04 -0.00    -0.297 N 
ATOM     83  N9  UNL     1       8.992   5.279   0.171 -0.03 -0.00    -0.346 N 
ATOM     84  H9  UNL     1       8.262   5.990   0.150 +0.08 +0.00    +0.167 HD
ATOM     85  N10 UNL     1       7.358   7.658   7.653+99.99 -0.00    -0.297 N 
ATOM     86  N11 UNL     1       7.181   9.520   8.863+13.70 -0.00    -0.346 N 
ATOM     87  H11 UNL     1       6.796  10.315   9.372 -0.45 +0.00    +0.167 HD
ATOM     88  N12 UNL     1      10.879   9.219   8.800+99.99 -0.00    -0.341 N 
ATOM     89  H12 UNL     1      11.763   9.620   9.111 +0.26 +0.00    +0.167 HD
ATOM     90  N13 UNL     1       9.782   7.422   7.585+42.55 -0.00    -0.336 N 
ATOM     91  H13 UNL     1       9.830   6.568   7.028 +0.12 +0.00    +0.168 HD
ATOM     92  N14 UNL     1       9.733  10.973   9.869+23.62 -0.00    -0.287 NA
ATOM     93  N15 UNL     1      26.353   5.538   0.478 -0.14 -0.00    -0.349 N 
ATOM     94  P1  UNL     1       6.210   2.944   4.188 +0.07 +0.00    +0.327 P 
ATOM     95  P2  UNL     1      11.233   2.711   5.666 +1.94 +0.00    +0.327 P 
ATOM     96  S1  UNL     1       5.103   1.794   5.257 +7.17 -0.00    -0.007 SA
ATOM     97  S2  UNL     1      12.401   4.183   5.250 +0.74 -0.00    -0.007 SA
ATOM     98  F1  UNL     1       6.722   7.045   4.590 +4.97 -0.00    -0.242 F 
ATOM     99  F2  UNL     1      12.011   0.738   2.077 +0.30 -0.00    -0.242 F 
ATOM    100  H64 UNL     1      11.053   1.017   7.016+18.96 +0.00    +0.220 HD
ATOM    101  H65 UNL     1       4.716   3.399   2.677 +0.08 +0.00    +0.220 HD
ATOM    102  H66 UNL     1      28.763  10.337   1.547+99.99 +0.00    +0.167 HD
ATOM    103  H67 UNL     1      24.201   9.459   1.377 +0.13 +0.00    +0.163 HD
ATOM    104  H68 UNL     1      25.381   9.851  -0.432+16.64 +0.00    +0.128 HD
ATOM    105  H69 UNL     1      27.061   9.686  -0.389 +0.58 +0.00    +0.128 HD
ATOM    106  H70 UNL     1      20.774   7.624   3.277 +0.23 +0.00    +0.169 HD
ATOM    107  H71 UNL     1      14.427   9.154  -1.530 +6.19 +0.00    +0.164 HD
ATOM    108  H72 UNL     1       9.513   7.753  -0.574 +0.06 +0.00    +0.129 HD
ATOM    109  H73 UNL     1       8.861  11.167  10.350 +3.19 +0.00    +0.125 HD
ATOM    110  H74 UNL     1      10.594  11.072  10.390 +4.19 +0.00    +0.125 HD
ATOM    111  H75 UNL     1      26.508   6.476   0.120 +0.11 +0.00    +0.163 HD
ENDROOT
TORSDOF 35
TER
