USER    Run = 1
USER    DPF = ligand_259_receptor.dpf
USER  
USER    Estimated Free Energy of Binding    =  +74.43 kcal/mol  [=(1)+(2)+(3)-(4)]
USER    
USER    (1) Final Intermolecular Energy     =  +73.23 kcal/mol
USER        vdW + Hbond + desolv Energy     =  +73.23 kcal/mol
USER        Electrostatic Energy            =   +0.00 kcal/mol
USER    (2) Final Total Internal Energy     =   -3.43 kcal/mol
USER    (3) Torsional Free Energy           =   +1.19 kcal/mol
USER    (4) Unbound System's Energy  [=(2)] =   -3.43 kcal/mol
USER    
USER    
USER    NEWDPF move ligand_259.pdbqt
USER    NEWDPF about 0.000000 0.000000 0.000000
USER    NEWDPF tran0 18.806531 8.127464 6.526628
USER    NEWDPF quaternion0 0.852515 0.037387 0.259563 -0.452158
USER    NEWDPF axisangle0 0.955801 0.041917 0.291010 -126.235577
USER    NEWDPF quat0 0.955801 0.041917 0.291010 -126.235577
USER    NEWDPF dihe0 98.96 -158.67 -84.83 -77.26 -171.72 -34.67 112.02 -129.11 -169.65 -12.23 -179.10 -130.88 -138.85 78.34 -175.35 -43.80 111.39 111.55 
USER  keepresnum = 1 
USER  
REMARK  18 active torsions:
REMARK  status: ('A' for Active; 'I' for Inactive)
REMARK    1  A    between atoms: C4_4  and  C5_5 
REMARK       I    between atoms: C5_5  and  N3_47 
REMARK    2  A    between atoms: C6_6  and  N3_47 
REMARK    3  A    between atoms: C8_8  and  C10_10 
REMARK       I    between atoms: C10_10  and  N5_49 
REMARK    4  A    between atoms: C11_11  and  N5_49 
REMARK    5  A    between atoms: C13_13  and  C15_15 
REMARK       I    between atoms: C15_15  and  N7_51 
REMARK    6  A    between atoms: C16_16  and  C17_17 
REMARK    7  A    between atoms: C16_16  and  N7_51 
REMARK    8  A    between atoms: C17_17  and  C18_18 
REMARK       I    between atoms: C18_18  and  N8_52 
REMARK    9  A    between atoms: C19_19  and  N8_52 
REMARK   10  A    between atoms: C21_21  and  C23_23 
REMARK       I    between atoms: C23_23  and  N10_54 
REMARK   11  A    between atoms: C24_24  and  N10_54 
REMARK   12  A    between atoms: C26_26  and  C28_28 
REMARK       I    between atoms: C28_28  and  N12_56 
REMARK   13  A    between atoms: C29_29  and  N12_56 
REMARK   14  A    between atoms: C32_32  and  C34_34 
REMARK       I    between atoms: C34_34  and  N14_58 
REMARK   15  A    between atoms: C35_35  and  C36_36 
REMARK   16  A    between atoms: C35_35  and  N14_58 
REMARK   17  A    between atoms: C36_36  and  C37_37 
REMARK   18  A    between atoms: C37_37  and  N15_59 
USER                              x       y       z     vdW  Elec       q    Type
USER                           _______ _______ _______ _____ _____    ______ ____
ROOT
ATOM      1  C19 UNL     1      21.572  10.179   2.435 -0.22 +0.00    +0.052 A 
ATOM      2  C20 UNL     1      20.631  11.175   2.461 +0.06 +0.00    +0.120 A 
ATOM      3  C21 UNL     1      19.518   9.236   2.800 -0.26 +0.00    +0.105 A 
ATOM      4  C22 UNL     1      20.874   8.961   2.642 +0.10 +0.00    +0.066 A 
ATOM      5  C41 UNL     1      18.178  11.380   2.779 -0.39 +0.00    +0.156 C 
ATOM      6  N9  UNL     1      19.403  10.613   2.689 -0.09 -0.00    -0.354 N 
ENDROOT
BRANCH   1   7
ATOM      7  N8  UNL     1      22.937  10.296   2.255 +0.96 -0.00    -0.326 N 
ATOM      8  C18 UNL     1      23.901  10.011   3.211 -0.41 +0.00    +0.223 C 
ATOM      9  O4  UNL     1      23.696   9.637   4.362 -0.65 -0.00    -0.273 OA
ATOM     10  H49 UNL     1      23.248  10.574   1.334 +0.22 +0.00    +0.169 HD
BRANCH   8  11
ATOM     11  C17 UNL     1      25.303  10.224   2.668 -0.47 +0.00    +0.123 C 
BRANCH  11  12
ATOM     12  C16 UNL     1      25.605   9.307   1.486 -0.30 +0.00    +0.132 C 
BRANCH  12  13
ATOM     13  N7  UNL     1      24.403   8.818   0.836 -0.14 -0.00    -0.355 N 
ATOM     14  C15 UNL     1      24.400   8.440  -0.488 -0.07 +0.00    +0.268 C 
ATOM     15  O3  UNL     1      25.428   8.440  -1.160 +4.63 -0.00    -0.266 OA
ATOM     16  H48 UNL     1      23.526   9.135   1.232 +0.13 +0.00    +0.162 HD
BRANCH  14  17
ATOM     17  C13 UNL     1      23.094   8.142  -1.040 +0.15 +0.00    +0.104 A 
ATOM     18  C14 UNL     1      21.874   8.509  -0.482 +0.53 +0.00    +0.066 A 
ATOM     19  C11 UNL     1      20.829   8.001  -1.289 +7.60 +0.00    +0.053 A 
ATOM     20  C12 UNL     1      21.428   7.364  -2.347 +7.78 +0.00    +0.120 A 
ATOM     21  N6  UNL     1      22.790   7.498  -2.223 +4.85 -0.00    -0.354 N 
ATOM     22  C42 UNL     1      23.719   7.096  -3.259 +1.48 +0.00    +0.156 C 
BRANCH  19  23
ATOM     23  N5  UNL     1      19.480   8.155  -1.026+25.55 -0.00    -0.320 N 
ATOM     24  C10 UNL     1      18.441   7.862  -1.892 +9.13 +0.00    +0.273 C 
ATOM     25  O2  UNL     1      18.592   7.386  -3.014 +2.85 -0.00    -0.266 OA
ATOM     26  H47 UNL     1      19.258   8.532  -0.118 +0.77 +0.00    +0.169 HD
BRANCH  24  27
ATOM     27  C8  UNL     1      17.111   8.161  -1.357 -0.10 +0.00    +0.105 A 
ATOM     28  C9  UNL     1      15.957   7.381  -1.328 +1.47 +0.00    +0.066 A 
ATOM     29  C6  UNL     1      14.922   8.110  -0.695 +3.37 +0.00    +0.053 A 
ATOM     30  C7  UNL     1      15.450   9.329  -0.351 +3.06 +0.00    +0.120 A 
ATOM     31  N4  UNL     1      16.765   9.356  -0.744 +0.27 -0.00    -0.354 N 
ATOM     32  C43 UNL     1      17.644  10.486  -0.522 +0.34 +0.00    +0.156 C 
BRANCH  29  33
ATOM     33  N3  UNL     1      13.620   7.754  -0.427 +1.44 -0.00    -0.319 N 
ATOM     34  C5  UNL     1      12.818   6.942  -1.204 +0.41 +0.00    +0.290 C 
ATOM     35  O1  UNL     1      13.142   6.439  -2.277 +0.09 -0.00    -0.264 OA
ATOM     36  H46 UNL     1      13.196   8.090   0.436 +0.38 +0.00    +0.169 HD
BRANCH  34  37
ATOM     37  C4  UNL     1      11.509   6.744  -0.593 -0.23 +0.00    +0.176 A 
ATOM     38  N1  UNL     1      10.315   7.298  -0.993 -0.13 -0.00    -0.342 N 
ATOM     39  C1  UNL     1      10.119   8.186  -2.113 -0.30 +0.00    +0.157 C 
ATOM     40  C2  UNL     1       9.335   6.847  -0.152 -0.24 +0.00    +0.109 A 
ATOM     41  C3  UNL     1       9.978   6.022   0.739 -0.19 +0.00    +0.107 A 
ATOM     42  N2  UNL     1      11.319   5.961   0.464 -0.18 -0.00    -0.346 N 
ATOM     43  H2  UNL     1      12.026   5.426   0.967 -0.04 +0.00    +0.167 HD
ENDBRANCH  34  37
ENDBRANCH  29  33
ENDBRANCH  24  27
ENDBRANCH  19  23
ENDBRANCH  14  17
ENDBRANCH  12  13
ENDBRANCH  11  12
ENDBRANCH   8  11
ENDBRANCH   1   7
BRANCH   3  44
ATOM     44  C23 UNL     1      18.399   8.335   3.059 -0.25 +0.00    +0.273 C 
ATOM     45  N10 UNL     1      17.221   8.977   3.406 -0.26 -0.00    -0.320 N 
ATOM     46  H50 UNL     1      17.231   9.981   3.509 +0.13 +0.00    +0.169 HD
ATOM     47  O5  UNL     1      18.507   7.113   2.980 +0.21 -0.00    -0.266 OA
BRANCH  45  48
ATOM     48  C24 UNL     1      16.019   8.346   3.663 -0.49 +0.00    +0.053 A 
ATOM     49  C25 UNL     1      15.919   7.174   4.371 +0.91 +0.00    +0.120 A 
ATOM     50  N11 UNL     1      14.592   6.824   4.444 -0.08 -0.00    -0.354 N 
ATOM     51  C26 UNL     1      13.810   7.772   3.804 -0.40 +0.00    +0.105 A 
ATOM     52  C40 UNL     1      14.111   5.635   5.118 +2.19 +0.00    +0.156 C 
ATOM     53  C27 UNL     1      14.703   8.711   3.297 -0.30 +0.00    +0.066 A 
BRANCH  51  54
ATOM     54  C28 UNL     1      12.359   7.727   3.699 -0.28 +0.00    +0.273 C 
ATOM     55  N12 UNL     1      11.790   6.517   4.083 -0.15 -0.00    -0.320 N 
ATOM     56  H51 UNL     1      12.455   5.786   4.316 +0.10 +0.00    +0.169 HD
ATOM     57  O6  UNL     1      11.683   8.667   3.288 -0.03 -0.00    -0.266 OA
BRANCH  55  58
ATOM     58  C29 UNL     1      10.460   6.206   4.134 -0.26 +0.00    +0.053 A 
ATOM     59  C30 UNL     1       9.458   6.987   3.679 -0.25 +0.00    +0.125 A 
ATOM     60  N13 UNL     1       8.175   6.301   3.916 -0.08 -0.00    -0.336 N 
ATOM     61  C31 UNL     1       7.021   6.765   3.636 +0.67 +0.00    +0.128 C 
ATOM     62  C32 UNL     1       8.541   5.016   4.561 -0.20 +0.00    +0.108 A 
ATOM     63  C33 UNL     1       9.885   4.969   4.672 -0.25 +0.00    +0.066 A 
BRANCH  62  64
ATOM     64  C34 UNL     1       7.578   3.940   4.937 -0.19 +0.00    +0.268 C 
ATOM     65  N14 UNL     1       6.511   4.304   5.730 -0.15 -0.00    -0.356 N 
ATOM     66  H52 UNL     1       6.372   5.268   6.017 +0.08 +0.00    +0.162 HD
ATOM     67  O7  UNL     1       7.734   2.790   4.538 -0.06 -0.00    -0.266 OA
BRANCH  65  68
ATOM     68  C35 UNL     1       5.488   3.345   6.118 +0.09 +0.00    +0.124 C 
BRANCH  68  69
ATOM     69  C36 UNL     1       4.327   3.315   5.125 -0.28 +0.00    +0.047 C 
BRANCH  69  70
ATOM     70  C37 UNL     1       4.455   2.225   4.059 -0.19 +0.00    +0.235 C 
BRANCH  70  71
ATOM     71  N15 UNL     1       5.189   2.678   2.814 -0.14 -0.00    -0.079 N 
ATOM     72  C38 UNL     1       4.344   3.648   2.017 -0.06 +0.00    +0.269 C 
ATOM     73  C39 UNL     1       5.650   1.543   1.931 -0.14 +0.00    +0.269 C 
ATOM     74  H53 UNL     1       6.030   3.204   3.085 +0.11 +0.00    +0.278 HD
ENDBRANCH  70  71
ENDBRANCH  69  70
ENDBRANCH  68  69
ENDBRANCH  65  68
ENDBRANCH  62  64
ENDBRANCH  55  58
ENDBRANCH  51  54
ENDBRANCH  45  48
ENDBRANCH   3  44
TORSDOF 18
TER
