USER    Run = 1
USER    DPF = ligand_210_receptor.dpf
USER  
USER    Estimated Free Energy of Binding    =   +2.26 kcal/mol  [=(1)+(2)+(3)-(4)]
USER    
USER    (1) Final Intermolecular Energy     =   +1.07 kcal/mol
USER        vdW + Hbond + desolv Energy     =   +1.07 kcal/mol
USER        Electrostatic Energy            =   +0.00 kcal/mol
USER    (2) Final Total Internal Energy     =   -4.62 kcal/mol
USER    (3) Torsional Free Energy           =   +1.19 kcal/mol
USER    (4) Unbound System's Energy  [=(2)] =   -4.62 kcal/mol
USER    
USER    
USER    NEWDPF move ligand_210.pdbqt
USER    NEWDPF about 0.000000 0.000000 0.000000
USER    NEWDPF tran0 14.081510 7.713122 0.498670
USER    NEWDPF quaternion0 0.798097 0.510523 -0.231367 0.221082
USER    NEWDPF axisangle0 0.818346 0.523476 -0.237238 154.454801
USER    NEWDPF quat0 0.818346 0.523476 -0.237238 154.454801
USER    NEWDPF dihe0 180.00 -82.28 -68.59 -103.02 9.91 14.48 120.61 79.37 -180.00 -134.92 -99.61 -130.76 -171.09 -111.07 109.99 75.76 179.07 -99.98 73.09 -79.70 -19.67 -145.87 
USER  keepresnum = 1 
USER  
REMARK  22 active torsions:
REMARK  status: ('A' for Active; 'I' for Inactive)
REMARK    1  A    between atoms: C2_2  and  C3_3 
REMARK    2  A    between atoms: C7_7  and  C61_61 
REMARK    3  A    between atoms: C11_11  and  O1_68 
REMARK    4  A    between atoms: C15_15  and  C16_16 
REMARK       I    between atoms: C15_15  and  N1_62 
REMARK    5  A    between atoms: C22_22  and  N3_64 
REMARK    6  A    between atoms: C24_24  and  C25_25 
REMARK       I    between atoms: C24_24  and  N3_64 
REMARK    7  A    between atoms: C27_27  and  N5_66 
REMARK    8  A    between atoms: C30_30  and  C31_31 
REMARK       I    between atoms: C30_30  and  N5_66 
REMARK    9  A    between atoms: C31_31  and  C32_32 
REMARK   10  A    between atoms: C32_32  and  C33_33 
REMARK   11  A    between atoms: C33_33  and  N6_67 
REMARK   12  A    between atoms: C34_34  and  N6_67 
REMARK   13  A    between atoms: C36_36  and  O7_74 
REMARK   14  A    between atoms: C38_38  and  O6_73 
REMARK   15  A    between atoms: C40_40  and  O7_74 
REMARK   16  A    between atoms: C42_42  and  C59_59 
REMARK   17  A    between atoms: C42_42  and  O15_82 
REMARK   18  A    between atoms: C45_45  and  O12_79 
REMARK   19  A    between atoms: C48_48  and  O8_75 
REMARK   20  A    between atoms: C57_57  and  O11_78 
REMARK   21  A    between atoms: C59_59  and  C60_60 
REMARK   22  A    between atoms: C60_60  and  O14_81 
USER                              x       y       z     vdW  Elec       q    Type
USER                           _______ _______ _______ _____ _____    ______ ____
ROOT
ATOM      1  C32 UNL     1      10.033   5.700   2.623 -0.24 +0.00    +0.039 C 
ENDROOT
BRANCH   1   2
ATOM      2  C31 UNL     1      10.322   7.178   2.881 -0.34 +0.00    +0.105 C 
BRANCH   2   3
ATOM      3  C30 UNL     1      11.740   7.591   2.497 +0.05 +0.00    +0.222 C 
ATOM      4  N5  UNL     1      12.491   7.905   3.617 -0.21 -0.00    -0.326 N 
ATOM      5  H54 UNL     1      12.055   7.835   4.528 +0.11 +0.00    +0.169 HD
ATOM      6  O4  UNL     1      12.129   7.601   1.332 +1.23 -0.00    -0.273 OA
BRANCH   4   7
ATOM      7  C27 UNL     1      13.807   8.327   3.611 -0.35 +0.00    +0.052 A 
ATOM      8  C26 UNL     1      14.599   8.501   2.452 +2.26 +0.00    +0.066 A 
ATOM      9  C25 UNL     1      15.852   8.958   2.836 -0.40 +0.00    +0.105 A 
ATOM     10  N4  UNL     1      15.851   8.973   4.216 -0.18 -0.00    -0.354 N 
ATOM     11  C28 UNL     1      14.604   8.642   4.684 -0.18 +0.00    +0.120 A 
ATOM     12  C29 UNL     1      16.994   9.203   5.075 +2.57 +0.00    +0.156 C 
BRANCH   9  13
ATOM     13  C24 UNL     1      16.961   9.286   1.955 -0.34 +0.00    +0.273 C 
ATOM     14  N3  UNL     1      18.192   9.076   2.545 -0.21 -0.00    -0.322 N 
ATOM     15  H53 UNL     1      18.175   8.867   3.534 +0.12 +0.00    +0.169 HD
ATOM     16  O3  UNL     1      16.772   9.745   0.836 -0.33 -0.00    -0.266 OA
BRANCH  14  17
ATOM     17  C22 UNL     1      19.470   9.240   1.970 +0.59 +0.00    +0.035 A 
ATOM     18  C21 UNL     1      19.516   9.759   0.670 +0.09 +0.00    +0.032 A 
ATOM     19  C20 UNL     1      20.728   9.973   0.002 -0.03 +0.00    +0.033 A 
ATOM     20  C19 UNL     1      21.903   9.652   0.685 -0.42 +0.00    +0.043 A 
ATOM     21  C18 UNL     1      21.900   9.136   1.978 -0.34 -0.00    -0.005 A 
ATOM     22  N2  UNL     1      23.215   9.737   0.287 -0.17 -0.00    -0.351 N 
ATOM     23  C17 UNL     1      23.257   8.921   2.345 -0.43 +0.00    +0.049 A 
ATOM     24  C23 UNL     1      20.665   8.927   2.630 +0.27 +0.00    +0.043 A 
ATOM     25  C16 UNL     1      24.060   9.347   1.302 -0.34 +0.00    +0.102 A 
ATOM     26  H52 UNL     1      23.524  10.039  -0.628 +0.14 +0.00    +0.166 HD
BRANCH  25  27
ATOM     27  C15 UNL     1      25.504   9.314   1.192 +0.15 +0.00    +0.275 C 
ATOM     28  N1  UNL     1      26.019   8.256   0.451 -0.16 -0.00    -0.311 N 
ATOM     29  C8  UNL     1      25.305   7.546  -0.623 -0.26 +0.00    +0.143 C 
ATOM     30  C9  UNL     1      27.381   7.895   0.371 -0.34 +0.00    +0.048 A 
ATOM     31  C7  UNL     1      26.224   6.407  -1.094 -0.40 +0.00    +0.054 C 
ATOM     32  C6  UNL     1      27.561   6.847  -0.543 -0.32 -0.00    -0.013 A 
ATOM     33  C5  UNL     1      28.837   6.331  -0.835 -0.22 -0.00    -0.014 A 
ATOM     34  C4  UNL     1      29.050   5.321  -1.798 -0.16 +0.00    +0.020 A 
ATOM     35  C12 UNL     1      29.950   6.867  -0.136 -0.18 +0.00    +0.008 A 
ATOM     36  C3  UNL     1      30.330   4.827  -2.080 -0.06 -0.00    -0.058 A 
ATOM     37  C14 UNL     1      31.422   5.366  -1.403 -0.04 +0.00    +0.008 A 
ATOM     38  C13 UNL     1      31.234   6.371  -0.451 -0.08 +0.00    +0.015 A 
ATOM     39  C11 UNL     1      29.719   7.886   0.826 -0.26 +0.00    +0.079 A 
ATOM     40  C10 UNL     1      28.451   8.415   1.070 -0.16 +0.00    +0.067 A 
ATOM     41  O2  UNL     1      26.190  10.171   1.742 +0.16 -0.00    -0.265 OA
BRANCH  31  42
ATOM     42  C61 UNL     1      25.761   5.027  -0.605 -0.43 +0.00    +0.125 C 
ATOM     43 CL1  UNL     1      25.634   3.789  -1.886 -0.49 -0.00    -0.130 Cl
ENDBRANCH  31  42
BRANCH  36  44
ATOM     44  C2  UNL     1      30.528   3.761  -3.129 -0.07 +0.00    +0.034 C 
ATOM     45  C1  UNL     1      29.235   3.442  -3.862 -0.17 +0.00    +0.010 C 
ENDBRANCH  36  44
BRANCH  39  46
ATOM     46  O1  UNL     1      30.730   8.420   1.585 -0.14 -0.00    -0.360 OA
ATOM     47  H56 UNL     1      30.730   7.977   2.448 -0.02 +0.00    +0.217 HD
ENDBRANCH  39  46
ENDBRANCH  25  27
ENDBRANCH  14  17
ENDBRANCH   9  13
ENDBRANCH   4   7
ENDBRANCH   2   3
ENDBRANCH   1   2
BRANCH   1  48
ATOM     48  C33 UNL     1      11.117   4.791   3.210 +3.09 +0.00    +0.270 C 
BRANCH  48  49
ATOM     49  N6  UNL     1      11.501   5.168   4.564 -0.24 +0.00    +0.090 N 
ATOM     50  H55 UNL     1      12.380   5.687   4.589 +0.21 +0.00    +0.316 HD
BRANCH  49  51
ATOM     51  C34 UNL     1      10.457   5.862   5.344 -0.18 +0.00    +0.256 C 
ATOM     52  C35 UNL     1       9.184   4.989   5.303 -0.29 +0.00    +0.099 C 
ATOM     53  C36 UNL     1       8.896   4.266   6.623 -0.31 +0.00    +0.263 C 
ATOM     54  O5  UNL     1      10.112   3.808   7.194 -0.26 -0.00    -0.354 OA
ATOM     55  C37 UNL     1      10.971   4.869   7.632 -0.37 +0.00    +0.151 C 
ATOM     56  C38 UNL     1      10.801   6.174   6.823 -0.18 +0.00    +0.180 C 
ATOM     57  C39 UNL     1      10.759   5.095   9.127 +0.89 +0.00    +0.042 C 
BRANCH  53  58
ATOM     58  O7  UNL     1       7.991   3.200   6.342 +0.19 -0.00    -0.351 OA
BRANCH  58  59
ATOM     59  C40 UNL     1       6.653   3.628   6.034 +0.34 +0.00    +0.164 C 
ATOM     60  C41 UNL     1       6.336   4.849   6.913 -0.46 +0.00    +0.083 C 
ATOM     61  C42 UNL     1       5.363   5.848   6.300 -0.30 +0.00    +0.127 C 
ATOM     62  C43 UNL     1       5.887   6.290   4.929 +1.48 +0.00    +0.088 C 
ATOM     63  C44 UNL     1       6.245   5.146   4.014 -0.20 -0.00    -0.009 A 
ATOM     64  C45 UNL     1       6.251   5.344   2.623 -0.14 +0.00    +0.088 A 
ATOM     65  C49 UNL     1       6.598   3.886   4.533 -0.24 +0.00    +0.014 A 
ATOM     66  C46 UNL     1       6.565   4.299   1.736 -0.09 +0.00    +0.066 A 
ATOM     67  C47 UNL     1       6.861   3.037   2.234 -0.15 +0.00    +0.066 A 
ATOM     68  C53 UNL     1       6.565   4.532   0.282 -0.07 +0.00    +0.197 A 
ATOM     69  C48 UNL     1       6.863   2.835   3.628 -0.21 +0.00    +0.090 A 
ATOM     70  C50 UNL     1       7.166   1.922   1.303 -0.13 +0.00    +0.200 A 
ATOM     71  C51 UNL     1       7.193   2.156  -0.168 -0.09 +0.00    +0.062 A 
ATOM     72  O9  UNL     1       7.389   0.819   1.794 +0.30 -0.00    -0.286 OA
ATOM     73  C52 UNL     1       6.895   3.436  -0.645 -0.08 +0.00    +0.032 A 
ATOM     74  C57 UNL     1       7.506   1.132  -1.089 -0.11 +0.00    +0.083 A 
ATOM     75  C54 UNL     1       6.902   3.707  -2.020 -0.07 +0.00    +0.017 A 
ATOM     76  C55 UNL     1       7.209   2.700  -2.926 -0.14 +0.00    +0.004 A 
ATOM     77  C56 UNL     1       7.510   1.420  -2.463 -0.11 +0.00    +0.038 A 
ATOM     78  O10 UNL     1       6.290   5.648  -0.150 -0.15 -0.00    -0.286 OA
BRANCH  61  79
ATOM     79  C59 UNL     1       3.928   5.277   6.196 -0.23 +0.00    +0.184 C 
ATOM     80  O13 UNL     1       3.243   5.368   5.175 -0.07 -0.00    -0.292 OA
BRANCH  79  81
ATOM     81  C60 UNL     1       3.371   4.565   7.426 -0.22 +0.00    +0.245 C 
BRANCH  81  82
ATOM     82  O14 UNL     1       3.646   3.175   7.441 -0.66 -0.00    -0.393 OA
ATOM     83  H60 UNL     1       3.793   2.903   6.516 +0.07 +0.00    +0.209 HD
ENDBRANCH  81  82
ENDBRANCH  79  81
ENDBRANCH  61  79
BRANCH  61  84
ATOM     84  O15 UNL     1       5.360   6.987   7.179 -0.19 -0.00    -0.382 OA
ATOM     85  H61 UNL     1       4.715   7.633   6.822 +0.11 +0.00    +0.211 HD
ENDBRANCH  61  84
BRANCH  64  86
ATOM     86  O12 UNL     1       5.928   6.602   2.175 -0.16 -0.00    -0.359 OA
ATOM     87  H59 UNL     1       5.765   6.556   1.204 +0.09 +0.00    +0.217 HD
ENDBRANCH  64  86
BRANCH  69  88
ATOM     88  O8  UNL     1       7.098   1.593   4.165 +1.68 -0.00    -0.359 OA
ATOM     89  H58 UNL     1       7.856   1.648   4.790 -0.22 +0.00    +0.217 HD
ENDBRANCH  69  88
BRANCH  74  90
ATOM     90  O11 UNL     1       7.798  -0.108  -0.589 -0.14 -0.00    -0.355 OA
ATOM     91  C58 UNL     1       9.156  -0.511  -0.499 -0.24 +0.00    +0.210 C 
ENDBRANCH  74  90
ENDBRANCH  58  59
ENDBRANCH  53  58
BRANCH  56  92
ATOM     92  O6  UNL     1      11.939   7.004   7.017 -0.13 -0.00    -0.391 OA
ATOM     93  H57 UNL     1      12.380   6.781   7.863 +0.17 +0.00    +0.210 HD
ENDBRANCH  56  92
ENDBRANCH  49  51
ENDBRANCH  48  49
ENDBRANCH   1  48
TORSDOF 22
TER
