USER    Run = 1
USER    DPF = ligand_64_receptor.dpf
USER  
USER    Estimated Free Energy of Binding    =  +2.87e+004 kcal/mol  [=(1)+(2)+(3)-(4)]
USER    
USER    (1) Final Intermolecular Energy     =  +2.87e+004 kcal/mol
USER        vdW + Hbond + desolv Energy     =  +2.87e+004 kcal/mol
USER        Electrostatic Energy            =   +0.00 kcal/mol
USER    (2) Final Total Internal Energy     =   +0.00 kcal/mol
USER    (3) Torsional Free Energy           =   +1.19 kcal/mol
USER    (4) Unbound System's Energy  [=(2)] =   +0.00 kcal/mol
USER    
USER    
USER    NEWDPF move ligand_64.pdbqt
USER    NEWDPF about 0.000000 0.000000 0.000000
USER    NEWDPF tran0 14.939114 6.267391 2.267788
USER    NEWDPF quaternion0 0.975280 0.067525 0.033942 -0.207645
USER    NEWDPF axisangle0 0.997011 0.069030 0.034699 -156.031262
USER    NEWDPF quat0 0.997011 0.069030 0.034699 -156.031262
USER  keepresnum = 1 
USER  
REMARK  0 active torsions:
REMARK  status: ('A' for Active; 'I' for Inactive)
REMARK       I    between atoms: C4_4  and  C57_57 
REMARK       I    between atoms: C6_6  and  C50_50 
REMARK       I    between atoms: C10_10  and  C15_15 
REMARK       I    between atoms: C13_13  and  N6_86 
REMARK       I    between atoms: C15_15  and  N7_87 
REMARK       I    between atoms: C16_16  and  C17_17 
REMARK       I    between atoms: C16_16  and  C19_19 
REMARK       I    between atoms: C16_16  and  N7_87 
REMARK       I    between atoms: C17_17  and  C18_18 
REMARK       I    between atoms: C18_18  and  N8_88 
REMARK       I    between atoms: C19_19  and  N9_89 
REMARK       I    between atoms: C23_23  and  C24_24 
REMARK       I    between atoms: C24_24  and  N10_90 
REMARK       I    between atoms: C25_25  and  C27_27 
REMARK       I    between atoms: C25_25  and  N10_90 
REMARK       I    between atoms: C27_27  and  N11_91 
REMARK       I    between atoms: C28_28  and  C30_30 
REMARK       I    between atoms: C28_28  and  N11_91 
REMARK       I    between atoms: C30_30  and  N12_92 
REMARK       I    between atoms: C31_31  and  C32_32 
REMARK       I    between atoms: C31_31  and  C34_34 
REMARK       I    between atoms: C31_31  and  N12_92 
REMARK       I    between atoms: C32_32  and  O12_71 
REMARK       I    between atoms: C34_34  and  N13_93 
REMARK       I    between atoms: C35_35  and  C36_36 
REMARK       I    between atoms: C35_35  and  N13_93 
REMARK       I    between atoms: C36_36  and  N14_94 
REMARK       I    between atoms: C37_37  and  C38_38 
REMARK       I    between atoms: C37_37  and  C39_39 
REMARK       I    between atoms: C37_37  and  N14_94 
REMARK       I    between atoms: C38_38  and  S3_98 
REMARK       I    between atoms: C39_39  and  N15_95 
REMARK       I    between atoms: C40_40  and  C41_41 
REMARK       I    between atoms: C40_40  and  C48_48 
REMARK       I    between atoms: C40_40  and  N15_95 
REMARK       I    between atoms: C41_41  and  C42_42 
REMARK       I    between atoms: C45_45  and  O16_75 
REMARK       I    between atoms: C48_48  and  O18_77 
REMARK       I    between atoms: C50_50  and  C51_51 
REMARK       I    between atoms: C54_54  and  O19_78 
REMARK       I    between atoms: C57_57  and  C58_58 
REMARK       I    between atoms: C58_58  and  C59_59 
REMARK       I    between atoms: C59_59  and  O21_80 
REMARK       I    between atoms: S3_98  and  S4_99 
REMARK       I    between atoms: S4_99  and  S5_100 
USER                              x       y       z     vdW  Elec       q    Type
USER                           _______ _______ _______ _____ _____    ______ ____
ROOT
ATOM      1  C1  UNL     1       4.860   9.574   3.404+36.17 +0.00    +0.042 C 
ATOM      2  C2  UNL     1       5.051   8.078   3.602+99.99 +0.00    +0.172 C 
ATOM      3  C3  UNL     1       4.987   7.352   2.248 +0.44 +0.00    +0.240 C 
ATOM      4  C4  UNL     1       3.460   6.317   0.572+99.99 +0.00    +0.177 C 
ATOM      5  C5  UNL     1       3.682   4.834   0.935 +1.85 +0.00    +0.241 C 
ATOM      6  C6  UNL     1       5.367   3.105   1.504 -0.08 +0.00    +0.180 C 
ATOM      7  C7  UNL     1       6.826   3.133   2.008 -0.10 +0.00    +0.241 C 
ATOM      8  C8  UNL     1       8.467   1.979   3.483+28.34 +0.00    +0.172 C 
ATOM      9  C9  UNL     1       8.473   2.971   4.672 +0.01 +0.00    +0.240 C 
ATOM     10  C10 UNL     1       9.723   3.855   6.623 -0.39 +0.00    +0.186 C 
ATOM     11  C11 UNL     1       8.951   3.306   7.824 -0.54 +0.00    +0.120 C 
ATOM     12  C12 UNL     1       8.105   7.155   7.482+99.99 +0.00    +0.131 C 
ATOM     13  C13 UNL     1       7.955   7.317   5.962+99.99 +0.00    +0.318 C 
ATOM     14  C14 UNL     1       6.573   7.867   5.551+99.99 +0.00    +0.252 C 
ATOM     15  C15 UNL     1      11.216   4.073   6.916 -0.35 +0.00    +0.242 C 
ATOM     16  C16 UNL     1      13.391   4.350   5.776 +0.26 +0.00    +0.185 C 
ATOM     17  C17 UNL     1      13.911   2.908   5.864+60.71 +0.00    +0.137 C 
ATOM     18  C18 UNL     1      13.241   2.018   4.843+99.99 +0.00    +0.217 C 
ATOM     19  C19 UNL     1      13.967   5.094   4.548+31.55 +0.00    +0.243 C 
ATOM     20  C20 UNL     1      12.765   7.220   5.242 -0.38 +0.00    +0.127 C 
ATOM     21  C21 UNL     1      12.887   8.640   4.716 +0.22 +0.00    +0.022 C 
ATOM     22  C22 UNL     1      13.146   8.424   3.228 +0.09 +0.00    +0.037 C 
ATOM     23  C23 UNL     1      14.066   7.201   3.209 +0.22 +0.00    +0.179 C 
ATOM     24  C24 UNL     1      15.559   7.603   3.298 +0.22 +0.00    +0.241 C 
ATOM     25  C25 UNL     1      17.845   6.699   3.470 +3.48 +0.00    +0.172 C 
ATOM     26  C26 UNL     1      18.530   5.339   3.458+91.41 +0.00    +0.042 C 
ATOM     27  C27 UNL     1      18.625   7.655   2.538 +6.06 +0.00    +0.240 C 
ATOM     28  C28 UNL     1      18.500   8.808   0.327 +6.28 +0.00    +0.172 C 
ATOM     29  C29 UNL     1      18.081  10.188   0.826 -0.52 +0.00    +0.042 C 
ATOM     30  C30 UNL     1      19.981   8.743  -0.108+72.44 +0.00    +0.240 C 
ATOM     31  C31 UNL     1      22.327   9.248   0.513 -0.35 +0.00    +0.205 C 
ATOM     32  C32 UNL     1      23.071  10.417   1.186 +2.85 +0.00    +0.146 C 
ATOM     33  C33 UNL     1      22.965  10.449   2.707 +3.22 +0.00    +0.042 C 
ATOM     34  C34 UNL     1      22.960   7.901   0.927 -0.13 +0.00    +0.243 C 
ATOM     35  C35 UNL     1      22.461   5.725   1.949+30.85 +0.00    +0.225 C 
ATOM     36  C36 UNL     1      23.689   5.245   2.730+99.99 +0.00    +0.236 C 
ATOM     37  C37 UNL     1      25.841   5.920   3.776+16.23 +0.00    +0.186 C 
ATOM     38  C38 UNL     1      25.801   6.078   5.300 +1.84 +0.00    +0.121 C 
ATOM     39  C39 UNL     1      26.922   6.818   3.137+21.99 +0.00    +0.242 C 
ATOM     40  C40 UNL     1      27.593   8.031   1.082 -0.35 +0.00    +0.186 C 
ATOM     41  C41 UNL     1      27.465   7.797  -0.432 -0.30 +0.00    +0.074 C 
ATOM     42  C42 UNL     1      28.741   8.084  -1.190 +0.09 -0.00    -0.056 A 
ATOM     43  C43 UNL     1      28.932   9.313  -1.835+99.99 +0.00    +0.010 A 
ATOM     44  C44 UNL     1      30.119   9.577  -2.524 +1.44 +0.00    +0.037 A 
ATOM     45  C45 UNL     1      31.115   8.608  -2.567 -0.20 +0.00    +0.065 A 
ATOM     46  C46 UNL     1      30.944   7.384  -1.933 -0.12 +0.00    +0.037 A 
ATOM     47  C47 UNL     1      29.760   7.122  -1.243 -0.19 +0.00    +0.010 A 
ATOM     48  C48 UNL     1      27.261   9.495   1.413 +4.37 +0.00    +0.163 C 
ATOM     49  C49 UNL     1       9.662   2.145   2.549 +1.92 +0.00    +0.042 C 
ATOM     50  C50 UNL     1       5.132   1.980   0.480 -0.14 +0.00    +0.073 C 
ATOM     51  C51 UNL     1       5.941   2.098  -0.794 -0.08 -0.00    -0.056 A 
ATOM     52  C52 UNL     1       5.473   2.873  -1.863 -0.09 +0.00    +0.010 A 
ATOM     53  C53 UNL     1       6.223   2.995  -3.033 -0.12 +0.00    +0.037 A 
ATOM     54  C54 UNL     1       7.442   2.338  -3.139 -0.10 +0.00    +0.065 A 
ATOM     55  C55 UNL     1       7.925   1.561  -2.093 -0.11 +0.00    +0.037 A 
ATOM     56  C56 UNL     1       7.175   1.441  -0.921 -0.12 +0.00    +0.010 A 
ATOM     57  C57 UNL     1       4.177   6.739  -0.718+98.09 +0.00    +0.045 C 
ATOM     58  C58 UNL     1       3.854   8.178  -1.115+99.99 +0.00    +0.112 C 
ATOM     59  C59 UNL     1       4.460   8.531  -2.444+11.08 +0.00    +0.139 C 
ATOM     60  O1  UNL     1       6.004   6.985   1.660 -0.26 -0.00    -0.271 OA
ATOM     61  O2  UNL     1       2.741   4.092   1.216 -0.32 -0.00    -0.271 OA
ATOM     62  O3  UNL     1       7.604   4.048   1.742 -0.06 -0.00    -0.271 OA
ATOM     63  O4  UNL     1       7.505   3.676   4.958 -0.21 -0.00    -0.271 OA
ATOM     64  O5  UNL     1       5.785   8.405   6.320+99.99 -0.00    -0.271 OA
ATOM     65  O6  UNL     1      11.729   4.044   8.027 -0.34 -0.00    -0.271 OA
ATOM     66  O7  UNL     1      12.109   1.559   4.989+99.99 -0.00    -0.274 OA
ATOM     67  O8  UNL     1      14.743   4.539   3.759+99.99 -0.00    -0.271 OA
ATOM     68  O9  UNL     1      15.953   8.743   3.523 -0.36 -0.00    -0.271 OA
ATOM     69  O10 UNL     1      19.696   8.172   2.859 +0.99 -0.00    -0.271 OA
ATOM     70  O11 UNL     1      20.339   8.147  -1.121 +6.39 -0.00    -0.271 OA
ATOM     71  O12 UNL     1      22.568  11.666   0.689+94.40 -0.00    -0.393 OA
ATOM     72  O13 UNL     1      24.089   7.560   0.574 -0.27 -0.00    -0.271 OA
ATOM     73  O14 UNL     1      23.900   4.048   2.917 +5.25 -0.00    -0.272 OA
ATOM     74  O15 UNL     1      27.948   7.156   3.721 +8.10 -0.00    -0.271 OA
ATOM     75  O16 UNL     1      32.288   8.825  -3.228 -0.07 -0.00    -0.361 OA
ATOM     76  O17 UNL     1      27.813  10.487   0.961+99.99 -0.00    -0.648 OA
ATOM     77  O18 UNL     1      26.248   9.666   2.296 +0.06 -0.00    -0.775 OA
ATOM     78  O19 UNL     1       8.141   2.480  -4.301 +2.58 -0.00    -0.361 OA
ATOM     79  O20 UNL     1       4.912   7.766  -3.278+99.99 -0.00    -0.650 OA
ATOM     80  O21 UNL     1       4.431   9.858  -2.675 +6.14 -0.00    -0.776 OA
ATOM     81  N1  UNL     1       3.719   7.148   1.750+17.19 -0.00    -0.346 N 
ATOM     82  N2  UNL     1       4.991   4.426   1.010 -0.06 -0.00    -0.346 N 
ATOM     83  N3  UNL     1       7.180   2.041   2.785 -0.15 -0.00    -0.346 N 
ATOM     84  N4  UNL     1       9.621   2.984   5.436 -0.18 -0.00    -0.345 N 
ATOM     85  N5  UNL     1       6.344   7.762   4.192+99.99 -0.00    -0.346 N 
ATOM     86  N6  UNL     1       8.997   8.248   5.436+99.99 +0.00    +0.092 N 
ATOM     87  N7  UNL     1      11.935   4.399   5.779 -0.20 -0.00    -0.346 N 
ATOM     88  N8  UNL     1      13.952   1.796   3.703+51.31 -0.00    -0.370 N 
ATOM     89  N9  UNL     1      13.653   6.429   4.390 -0.14 -0.00    -0.337 N 
ATOM     90  N10 UNL     1      16.441   6.557   3.072+34.93 -0.00    -0.346 N 
ATOM     91  N11 UNL     1      18.128   7.741   1.254+11.21 -0.00    -0.346 N 
ATOM     92  N12 UNL     1      20.881   9.324   0.765 +0.61 -0.00    -0.344 N 
ATOM     93  N13 UNL     1      22.249   7.163   1.854+11.33 -0.00    -0.350 N 
ATOM     94  N14 UNL     1      24.532   6.228   3.185+99.99 -0.00    -0.346 N 
ATOM     95  N15 UNL     1      26.705   7.108   1.802 -0.08 -0.00    -0.345 N 
ATOM     96  S1  UNL     1       8.516   4.568   9.087 +0.53 -0.00    -0.095 SA
ATOM     97  S2  UNL     1       7.118   5.753   8.141 +0.85 -0.00    -0.095 SA
ATOM     98  S3  UNL     1      26.869   4.882   6.186+99.99 -0.00    -0.084 SA
ATOM     99  S4  UNL     1      25.647   3.241   6.391+99.99 -0.00    -0.028 SA
ATOM    100  S5  UNL     1      25.921   2.120   4.698+99.99 -0.00    -0.099 SA
ATOM    101  H62 UNL     1      21.599  11.581   0.630 +0.24 +0.00    +0.210 HD
ATOM    102  H63 UNL     1      32.273   9.726  -3.589 +0.06 +0.00    +0.217 HD
ATOM    103  H64 UNL     1      26.255  10.639   2.431 +0.21 +0.00    +0.167 HD
ATOM    104  H65 UNL     1       8.963   1.968  -4.231+70.58 +0.00    +0.217 HD
ATOM    105  H66 UNL     1       4.837   9.951  -3.563+28.50 +0.00    +0.167 HD
ATOM    106  H67 UNL     1       2.952   7.223   2.409 +0.17 +0.00    +0.163 HD
ATOM    107  H68 UNL     1       5.732   5.133   0.991 +0.05 +0.00    +0.163 HD
ATOM    108  H69 UNL     1       6.411   1.583   3.261 +0.03 +0.00    +0.163 HD
ATOM    109  H70 UNL     1      10.330   2.256   5.308 -0.24 +0.00    +0.163 HD
ATOM    110  H71 UNL     1       6.951   7.160   3.639 +0.10 +0.00    +0.163 HD
ATOM    111  H72 UNL     1       8.794   8.414   4.447 +0.34 +0.00    +0.313 HD
ATOM    112  H73 UNL     1       8.851   9.159   5.882+41.74 +0.00    +0.313 HD
ATOM    113  H74 UNL     1      11.449   4.255   4.897 +0.08 +0.00    +0.163 HD
ATOM    114  H75 UNL     1      14.664   2.466   3.420 +5.38 +0.00    +0.159 HD
ATOM    115  H76 UNL     1      13.488   1.292   2.958 +0.55 +0.00    +0.159 HD
ATOM    116  H77 UNL     1      16.022   5.634   3.201+99.99 +0.00    +0.163 HD
ATOM    117  H78 UNL     1      17.186   7.377   1.156 -0.09 +0.00    +0.163 HD
ATOM    118  H79 UNL     1      20.564   9.362   1.736 +0.12 +0.00    +0.163 HD
ATOM    119  H80 UNL     1      21.293   7.472   2.024 +7.73 +0.00    +0.163 HD
ATOM    120  H81 UNL     1      24.299   7.193   2.978 +0.27 +0.00    +0.163 HD
ATOM    121  H82 UNL     1      25.753   7.021   1.447 +0.12 +0.00    +0.163 HD
ATOM    122  H83 UNL     1      25.051   2.744   3.879+99.99 +0.00    +0.115 HD
ENDROOT
TORSDOF 36
TER
