USER    Run = 1
USER    DPF = ligand_453_receptor.dpf
USER  
USER    Estimated Free Energy of Binding    =  +5.30e+006 kcal/mol  [=(1)+(2)+(3)-(4)]
USER    
USER    (1) Final Intermolecular Energy     =  +5.30e+006 kcal/mol
USER        vdW + Hbond + desolv Energy     =  +2.84e+006 kcal/mol
USER        Electrostatic Energy            =  +2.46e+006 kcal/mol
USER    (2) Final Total Internal Energy     =   +0.00 kcal/mol
USER    (3) Torsional Free Energy           =   +1.19 kcal/mol
USER    (4) Unbound System's Energy  [=(2)] =   +0.00 kcal/mol
USER    
USER    
USER    NEWDPF move ligand_453.pdbqt
USER    NEWDPF about 0.000000 0.000000 0.000000
USER    NEWDPF tran0 16.868668 7.071149 3.451137
USER    NEWDPF quaternion0 0.232033 -0.900947 -0.361293 0.062626
USER    NEWDPF axisangle0 0.232489 -0.902719 -0.362004 172.818897
USER    NEWDPF quat0 0.232489 -0.902719 -0.362004 172.818897
USER  keepresnum = 1 
USER  
REMARK  0 active torsions:
REMARK  status: ('A' for Active; 'I' for Inactive)
REMARK       I    between atoms: C2_2  and  C3_3 
REMARK       I    between atoms: C4_4  and  O30_101 
REMARK       I    between atoms: C5_5  and  O29_100 
REMARK       I    between atoms: C6_6  and  O28_99 
REMARK       I    between atoms: C7_7  and  C9_9 
REMARK       I    between atoms: C9_9  and  O2_73 
REMARK       I    between atoms: C10_10  and  C11_11 
REMARK       I    between atoms: C10_10  and  O2_73 
REMARK       I    between atoms: C12_12  and  C67_67 
REMARK       I    between atoms: C13_13  and  C19_19 
REMARK       I    between atoms: C14_14  and  O5_76 
REMARK       I    between atoms: C15_15  and  O4_75 
REMARK       I    between atoms: C19_19  and  O6_77 
REMARK       I    between atoms: C20_20  and  C21_21 
REMARK       I    between atoms: C20_20  and  O6_77 
REMARK       I    between atoms: C22_22  and  C65_65 
REMARK       I    between atoms: C23_23  and  O10_81 
REMARK       I    between atoms: C24_24  and  O9_80 
REMARK       I    between atoms: C25_25  and  O8_79 
REMARK       I    between atoms: C29_29  and  C30_30 
REMARK       I    between atoms: C29_29  and  O10_81 
REMARK       I    between atoms: C31_31  and  O25_96 
REMARK       I    between atoms: C32_32  and  O24_95 
REMARK       I    between atoms: C33_33  and  O23_94 
REMARK       I    between atoms: C34_34  and  C36_36 
REMARK       I    between atoms: C36_36  and  O12_83 
REMARK       I    between atoms: C37_37  and  C38_38 
REMARK       I    between atoms: C37_37  and  O12_83 
REMARK       I    between atoms: C39_39  and  C60_60 
REMARK       I    between atoms: C40_40  and  C46_46 
REMARK       I    between atoms: C41_41  and  O15_86 
REMARK       I    between atoms: C42_42  and  O14_85 
REMARK       I    between atoms: C46_46  and  O16_87 
REMARK       I    between atoms: C47_47  and  C48_48 
REMARK       I    between atoms: C47_47  and  O16_87 
REMARK       I    between atoms: C49_49  and  C58_58 
REMARK       I    between atoms: C50_50  and  C56_56 
REMARK       I    between atoms: C51_51  and  O19_90 
REMARK       I    between atoms: C52_52  and  O18_89 
REMARK       I    between atoms: C56_56  and  O20_91 
REMARK       I    between atoms: C58_58  and  O21_92 
REMARK       I    between atoms: C60_60  and  O22_93 
REMARK       I    between atoms: C65_65  and  O26_97 
REMARK       I    between atoms: C67_67  and  O27_98 
USER                              x       y       z     vdW  Elec       q    Type
USER                           _______ _______ _______ _____ _____    ______ ____
ROOT
ATOM      1  C1  UNL     1       4.088  -0.990  -5.751+99.99+99.99    +0.007 C 
ATOM      2  C2  UNL     1       4.425  -0.762  -4.287 -0.12 +0.00    +0.030 C 
ATOM      3  C3  UNL     1       3.239  -0.335  -3.398 -0.07 +0.00    +0.159 C 
ATOM      4  C4  UNL     1       2.565   1.020  -3.748 -0.01 +0.00    +0.114 C 
ATOM      5  C5  UNL     1       1.466   1.336  -2.677+99.99+99.99    +0.120 C 
ATOM      6  C6  UNL     1       1.943   1.163  -1.183+99.99+99.99    +0.120 C 
ATOM      7  C7  UNL     1       2.790  -0.165  -1.005 +1.39 +0.00    +0.112 C 
ATOM      8  C8  UNL     1       1.907  -1.439  -0.941+99.99+99.99    +0.051 C 
ATOM      9  C9  UNL     1       3.625  -0.218   0.317+12.29 +0.00    +0.208 C 
ATOM     10  C10 UNL     1       5.624   0.543   1.368 +4.25 +0.00    +0.182 C 
ATOM     11  C11 UNL     1       6.762   1.600   1.279 -0.23 +0.00    +0.039 C 
ATOM     12  C12 UNL     1       6.210   3.049   1.334 -0.09 +0.00    +0.159 C 
ATOM     13  C13 UNL     1       8.355   3.950   2.271 -0.17 +0.00    +0.112 C 
ATOM     14  C14 UNL     1       8.962   2.497   2.418 -0.03 +0.00    +0.118 C 
ATOM     15  C15 UNL     1       7.851   1.367   2.400 +0.87 +0.00    +0.099 C 
ATOM     16  C16 UNL     1       7.250   1.082   3.793 +4.19 +0.00    +0.050 C 
ATOM     17  C17 UNL     1       9.914   2.342   3.623 +9.47 +0.00    +0.052 C 
ATOM     18  C18 UNL     1       7.908   4.573   3.605 -0.23 +0.00    +0.051 C 
ATOM     19  C19 UNL     1       9.371   4.954   1.635 -0.04 +0.00    +0.208 C 
ATOM     20  C20 UNL     1      11.487   6.002   1.756 -0.05 +0.00    +0.182 C 
ATOM     21  C21 UNL     1      12.432   6.779   2.734 -0.38 +0.00    +0.040 C 
ATOM     22  C22 UNL     1      13.528   7.438   1.830 +3.09 +0.00    +0.162 C 
ATOM     23  C23 UNL     1      15.345   7.216   3.394 +1.97 +0.00    +0.194 C 
ATOM     24  C24 UNL     1      14.419   6.508   4.450 +0.74 +0.00    +0.141 C 
ATOM     25  C25 UNL     1      13.144   5.836   3.798 +6.28 +0.00    +0.102 C 
ATOM     26  C26 UNL     1      12.206   5.358   4.938 -0.12 +0.00    +0.050 C 
ATOM     27  C27 UNL     1      15.237   5.528   5.315+74.21 +0.00    +0.055 C 
ATOM     28  C28 UNL     1      16.184   6.255   2.536+99.99 +0.00    +0.082 C 
ATOM     29  C29 UNL     1      17.096   8.908   3.408 -0.44 +0.00    +0.206 C 
ATOM     30  C30 UNL     1      18.012   9.721   4.338 +0.49 +0.00    +0.183 C 
ATOM     31  C31 UNL     1      17.283  10.664   5.353 +2.42 +0.00    +0.116 C 
ATOM     32  C32 UNL     1      18.221  11.898   5.690+99.99 +0.00    +0.120 C 
ATOM     33  C33 UNL     1      19.728  11.409   5.713+99.99 +0.00    +0.120 C 
ATOM     34  C34 UNL     1      20.128  10.893   4.261+99.99 +0.00    +0.113 C 
ATOM     35  C35 UNL     1      20.739  11.991   3.359+62.63 +0.00    +0.051 C 
ATOM     36  C36 UNL     1      21.134   9.704   4.285+16.48 +0.00    +0.208 C 
ATOM     37  C37 UNL     1      23.302   9.001   4.928 +0.95 +0.00    +0.182 C 
ATOM     38  C38 UNL     1      24.718   9.445   5.418+37.50 +0.00    +0.039 C 
ATOM     39  C39 UNL     1      25.416   8.125   5.884+99.99 +0.00    +0.159 C 
ATOM     40  C40 UNL     1      27.396   8.264   4.499+99.99 +0.00    +0.112 C 
ATOM     41  C41 UNL     1      26.477   9.094   3.500 +0.11 +0.00    +0.118 C 
ATOM     42  C42 UNL     1      25.599  10.147   4.286+99.99 +0.00    +0.099 C 
ATOM     43  C43 UNL     1      24.748  11.007   3.328 +0.14 +0.00    +0.050 C 
ATOM     44  C44 UNL     1      27.311   9.719   2.364+14.09 +0.00    +0.052 C 
ATOM     45  C45 UNL     1      27.569   6.797   4.038+99.99 +0.00    +0.051 C 
ATOM     46  C46 UNL     1      28.842   8.814   4.695+99.99 +0.00    +0.208 C 
ATOM     47  C47 UNL     1      30.191  10.601   5.461+84.94 +0.00    +0.182 C 
ATOM     48  C48 UNL     1      30.276  11.891   6.335 +9.75 +0.00    +0.039 C 
ATOM     49  C49 UNL     1      31.733  12.434   6.167 -0.25 +0.00    +0.159 C 
ATOM     50  C50 UNL     1      32.370  12.537   8.508 +0.82 +0.00    +0.112 C 
ATOM     51  C51 UNL     1      31.315  11.363   8.724+99.99 +0.00    +0.118 C 
ATOM     52  C52 UNL     1      29.990  11.643   7.884 +6.12 +0.00    +0.099 C 
ATOM     53  C53 UNL     1      28.907  10.579   8.151+99.99 +0.00    +0.050 C 
ATOM     54  C54 UNL     1      31.901   9.963   8.433+99.99 +0.00    +0.052 C 
ATOM     55  C55 UNL     1      33.840  12.057   8.460+99.99+99.99    +0.051 C 
ATOM     56  C56 UNL     1      32.348  13.623   9.636 -0.12 +0.00    +0.207 C 
ATOM     57  C57 UNL     1      31.047  15.176  10.852+99.99+99.99    +0.201 C 
ATOM     58  C58 UNL     1      31.983  13.275   4.901 -0.17 +0.00    +0.197 C 
ATOM     59  C59 UNL     1      29.247  12.909   5.772+99.99 +0.00    +0.023 C 
ATOM     60  C60 UNL     1      25.077   7.667   7.315+99.99 +0.00    +0.197 C 
ATOM     61  C61 UNL     1      24.527  10.430   6.602+79.01 +0.00    +0.023 C 
ATOM     62  C62 UNL     1      20.692  12.486   6.235+99.99 +0.00    +0.052 C 
ATOM     63  C63 UNL     1      17.814  12.561   7.023+99.99 +0.00    +0.052 C 
ATOM     64  C64 UNL     1      15.901  11.143   4.871+99.99 +0.00    +0.052 C 
ATOM     65  C65 UNL     1      13.023   8.515   0.848+99.99 +0.00    +0.197 C 
ATOM     66  C66 UNL     1      11.586   7.869   3.435 -0.40 +0.00    +0.023 C 
ATOM     67  C67 UNL     1       5.122   3.378   2.376 -0.08 +0.00    +0.197 C 
ATOM     68  C68 UNL     1       7.379   1.426  -0.152 -0.19 +0.00    +0.023 C 
ATOM     69  C69 UNL     1       2.647   2.431  -0.667 -0.08 +0.00    +0.052 C 
ATOM     70  C70 UNL     1       0.744   2.675  -2.943+99.99+99.99    +0.052 C 
ATOM     71  C71 UNL     1       3.605   2.131  -3.936 -0.04 +0.00    +0.052 C 
ATOM     72  O1  UNL     1       3.759  -0.307  -2.062 +0.33 -0.00    -0.367 OA
ATOM     73  O2  UNL     1       4.643   0.787   0.356 -0.08 -0.00    -0.387 OA
ATOM     74  O3  UNL     1       7.275   4.006   1.320 -0.01 -0.00    -0.367 OA
ATOM     75  O4  UNL     1       8.529   0.117   2.098+19.41 -0.00    -0.386 OA
ATOM     76  O5  UNL     1       9.811   2.185   1.273 +0.41 -0.00    -0.384 OA
ATOM     77  O6  UNL     1      10.551   5.153   2.420 +0.17 -0.00    -0.387 OA
ATOM     78  O7  UNL     1      14.547   8.092   2.598 -0.13 -0.00    -0.344 OA
ATOM     79  O8  UNL     1      13.567   4.649   3.098+99.99 -0.00    -0.386 OA
ATOM     80  O9  UNL     1      13.958   7.529   5.379 -0.22 -0.00    -0.381 OA
ATOM     81  O10 UNL     1      16.243   8.058   4.180 -0.49 -0.00    -0.350 OA
ATOM     82  O11 UNL     1      18.932  10.467   3.532 +0.71 -0.00    -0.365 OA
ATOM     83  O12 UNL     1      22.424  10.109   4.746 -0.01 -0.00    -0.387 OA
ATOM     84  O13 UNL     1      26.842   8.245   5.836+99.99 -0.00    -0.367 OA
ATOM     85  O14 UNL     1      26.473  11.123   4.876+99.99 -0.00    -0.386 OA
ATOM     86  O15 UNL     1      25.566   8.172   2.848 -0.29 -0.00    -0.384 OA
ATOM     87  O16 UNL     1      28.854  10.121   5.287+61.00 -0.00    -0.387 OA
ATOM     88  O17 UNL     1      32.130  13.253   7.273 -0.12 -0.00    -0.367 OA
ATOM     89  O18 UNL     1      29.364  12.844   8.398 -0.26 -0.00    -0.386 OA
ATOM     90  O19 UNL     1      30.942  11.292  10.121 +5.03 -0.00    -0.384 OA
ATOM     91  O20 UNL     1      31.039  14.134   9.885 -0.03 -0.00    -0.393 OA
ATOM     92  O21 UNL     1      33.381  13.570   4.814+99.99+99.99    -0.398 OA
ATOM     93  O22 UNL     1      25.697   6.399   7.557+13.47 -0.00    -0.398 OA
ATOM     94  O23 UNL     1      19.853  10.311   6.653+99.99 -0.00    -0.384 OA
ATOM     95  O24 UNL     1      18.051  12.931   4.699+99.99 -0.00    -0.384 OA
ATOM     96  O25 UNL     1      17.072   9.899   6.561+99.99 -0.00    -0.384 OA
ATOM     97  O26 UNL     1      14.118   8.952   0.036+99.99 -0.00    -0.398 OA
ATOM     98  O27 UNL     1       4.587   4.681   2.131 -0.09 -0.00    -0.398 OA
ATOM     99  O28 UNL     1       0.723   1.055  -0.392+99.99+99.99    -0.384 OA
ATOM    100  O29 UNL     1       0.400   0.357  -2.906+99.99+99.99    -0.384 OA
ATOM    101  O30 UNL     1       1.882   0.887  -5.016+99.99+99.99    -0.384 OA
ATOM    102  HB5 UNL     1       9.236   0.370   1.467 -0.10 +0.00    +0.210 HD
ATOM    103  HB6 UNL     1      10.590   2.769   1.309+12.76 +0.00    +0.210 HD
ATOM    104  HB7 UNL     1      12.788   4.067   3.024+99.99 +0.00    +0.210 HD
ATOM    105  HB8 UNL     1      14.620   8.243   5.322 +0.16 +0.00    +0.211 HD
ATOM    106  HB9 UNL     1      27.160  10.664   5.404+34.08 +0.00    +0.210 HD
ATOM    107  HC0 UNL     1      25.150   8.634   2.098 +0.18 +0.00    +0.210 HD
ATOM    108  HC1 UNL     1      29.825  13.100   9.226 +0.11 +0.00    +0.210 HD
ATOM    109  HC2 UNL     1      31.716  11.027  10.646 -0.30 +0.00    +0.210 HD
ATOM    110  HC3 UNL     1      33.592  14.012   5.659+99.99+99.99    +0.209 HD
ATOM    111  HC4 UNL     1      26.632   6.529   7.302 +0.30 +0.00    +0.209 HD
ATOM    112  HC5 UNL     1      18.993  10.164   7.096 +1.73 +0.00    +0.210 HD
ATOM    113  HC6 UNL     1      18.113  12.506   3.822 +0.68 +0.00    +0.210 HD
ATOM    114  HC7 UNL     1      16.559   9.105   6.316+99.99 +0.00    +0.210 HD
ATOM    115  HC8 UNL     1      14.819   9.203   0.665 -0.04 +0.00    +0.209 HD
ATOM    116  HC9 UNL     1       3.939   4.869   2.831 +0.06 +0.00    +0.209 HD
ATOM    117  HD0 UNL     1       0.963   1.163   0.546+99.99+99.99    +0.210 HD
ATOM    118  HD1 UNL     1      -0.148   0.408  -2.092+99.99+99.99    +0.210 HD
ATOM    119  HD2 UNL     1       1.045   0.424  -4.798+99.99+99.99    +0.210 HD
ENDROOT
TORSDOF 44
TER
