USER    Run = 1
USER    DPF = ligand_118_receptor.dpf
USER  
USER    Estimated Free Energy of Binding    =  +10.14 kcal/mol  [=(1)+(2)+(3)-(4)]
USER    
USER    (1) Final Intermolecular Energy     =   +8.94 kcal/mol
USER        vdW + Hbond + desolv Energy     =   +8.94 kcal/mol
USER        Electrostatic Energy            =   +0.00 kcal/mol
USER    (2) Final Total Internal Energy     =   +0.41 kcal/mol
USER    (3) Torsional Free Energy           =   +1.19 kcal/mol
USER    (4) Unbound System's Energy  [=(2)] =   +0.41 kcal/mol
USER    
USER    
USER    NEWDPF move ligand_118.pdbqt
USER    NEWDPF about 0.000000 0.000000 0.000000
USER    NEWDPF tran0 18.748770 10.345187 5.842608
USER    NEWDPF quaternion0 0.837955 0.412640 -0.331210 0.133640
USER    NEWDPF axisangle0 0.845540 0.416374 -0.334208 164.639977
USER    NEWDPF quat0 0.845540 0.416374 -0.334208 164.639977
USER    NEWDPF dihe0 114.71 -34.92 179.26 179.17 168.49 -95.82 18.72 157.50 145.19 -93.58 -137.91 -76.71 -145.77 128.65 64.71 -34.30 -180.00 -93.88 51.34 -102.83 180.00 180.00 164.02 75.52 131.53 -21.91 96.16 79.29 -35.02 180.00 107.74 
USER  keepresnum = 1 
USER  
REMARK  31 active torsions:
REMARK  status: ('A' for Active; 'I' for Inactive)
REMARK    1  A    between atoms: C2_2  and  C3_3 
REMARK    2  A    between atoms: C2_2  and  O12_50 
REMARK    3  A    between atoms: C3_3  and  C4_4 
REMARK    4  A    between atoms: C3_3  and  N8_58 
REMARK       I    between atoms: C4_4  and  N1_51 
REMARK    5  A    between atoms: C5_5  and  C6_6 
REMARK    6  A    between atoms: C5_5  and  C9_9 
REMARK    7  A    between atoms: C5_5  and  N1_51 
REMARK       I    between atoms: C9_9  and  N2_52 
REMARK    8  A    between atoms: C10_10  and  C11_11 
REMARK    9  A    between atoms: C10_10  and  C15_15 
REMARK   10  A    between atoms: C10_10  and  N2_52 
REMARK   11  A    between atoms: C11_11  and  C12_12 
REMARK       I    between atoms: C15_15  and  N3_53 
REMARK   12  A    between atoms: C16_16  and  C17_17 
REMARK   13  A    between atoms: C16_16  and  N3_53 
REMARK       I    between atoms: C17_17  and  N4_54 
REMARK   14  A    between atoms: C18_18  and  C19_19 
REMARK   15  A    between atoms: C18_18  and  C21_21 
REMARK   16  A    between atoms: C18_18  and  N4_54 
REMARK   17  A    between atoms: C19_19  and  C20_20 
REMARK       I    between atoms: C20_20  and  N5_55 
REMARK       I    between atoms: C21_21  and  N6_56 
REMARK   18  A    between atoms: C22_22  and  C23_23 
REMARK   19  A    between atoms: C22_22  and  C27_27 
REMARK   20  A    between atoms: C22_22  and  N6_56 
REMARK   21  A    between atoms: C23_23  and  C24_24 
REMARK       I    between atoms: C27_27  and  N7_57 
REMARK   22  A    between atoms: C28_28  and  C29_29 
REMARK   23  A    between atoms: C28_28  and  C30_30 
REMARK   24  A    between atoms: C28_28  and  N7_57 
REMARK   25  A    between atoms: C29_29  and  S1_61 
REMARK   26  A    between atoms: C30_30  and  O9_47 
REMARK   27  A    between atoms: C31_31  and  C32_32 
REMARK       I    between atoms: C31_31  and  N8_58 
REMARK   28  A    between atoms: C36_36  and  C37_37 
REMARK       I    between atoms: C36_36  and  N9_59 
REMARK   29  A    between atoms: C37_37  and  C38_38 
REMARK   30  A    between atoms: C37_37  and  N10_60 
REMARK   31  A    between atoms: C38_38  and  S2_62 
USER                              x       y       z     vdW  Elec       q    Type
USER                           _______ _______ _______ _____ _____    ______ ____
ROOT
ATOM      1  C10 UNL     1      18.726  10.238   3.088 -0.09 +0.00    +0.177 C 
ENDROOT
BRANCH   1   2
ATOM      2  C11 UNL     1      18.290  10.965   1.802 -0.55 +0.00    +0.038 C 
BRANCH   2   3
ATOM      3  C12 UNL     1      18.006  12.485   1.839 -0.78 -0.00    -0.020 C 
ATOM      4  C13 UNL     1      16.777  12.912   1.040 +0.36 +0.00    +0.009 C 
ATOM      5  C14 UNL     1      19.214  13.341   1.452 -0.56 +0.00    +0.009 C 
ENDBRANCH   2   3
ENDBRANCH   1   2
BRANCH   1   6
ATOM      6  C15 UNL     1      18.195   8.788   3.183 -0.40 +0.00    +0.240 C 
ATOM      7  O3  UNL     1      18.688   7.842   2.576 +0.86 -0.00    -0.271 OA
ATOM      8  N3  UNL     1      17.026   8.672   3.916 -0.26 -0.00    -0.351 N 
ATOM      9  H56 UNL     1      16.479   9.525   3.969 +0.12 +0.00    +0.163 HD
BRANCH   8  10
ATOM     10  C16 UNL     1      16.258   7.442   3.858 -0.04 +0.00    +0.225 C 
BRANCH  10  11
ATOM     11  C17 UNL     1      14.832   7.756   3.401 -0.24 +0.00    +0.236 C 
ATOM     12  O4  UNL     1      14.588   8.363   2.359 +0.49 -0.00    -0.272 OA
ATOM     13  N4  UNL     1      13.851   7.344   4.266 -0.24 -0.00    -0.346 N 
ATOM     14  H57 UNL     1      14.089   6.896   5.151 +0.11 +0.00    +0.163 HD
BRANCH  13  15
ATOM     15  C18 UNL     1      12.430   7.603   4.028 -0.35 +0.00    +0.185 C 
BRANCH  15  16
ATOM     16  C19 UNL     1      12.004   7.102   2.645 -0.34 +0.00    +0.137 C 
BRANCH  16  17
ATOM     17  C20 UNL     1      10.500   7.051   2.510 -0.26 +0.00    +0.217 C 
ATOM     18  O5  UNL     1       9.753   7.978   2.808 -0.30 -0.00    -0.274 OA
ATOM     19  N5  UNL     1      10.000   5.850   2.108 -0.06 -0.00    -0.370 N 
ATOM     20  H58 UNL     1       8.998   5.801   1.948 +0.08 +0.00    +0.159 HD
ATOM     21  H59 UNL     1      10.575   5.171   1.624 -0.35 +0.00    +0.159 HD
ENDBRANCH  16  17
ENDBRANCH  15  16
BRANCH  15  22
ATOM     22  C21 UNL     1      11.665   6.873   5.157 -0.25 +0.00    +0.241 C 
ATOM     23  O6  UNL     1      10.540   7.224   5.513 -0.22 -0.00    -0.271 OA
ATOM     24  N6  UNL     1      12.336   5.825   5.730 -0.14 -0.00    -0.346 N 
ATOM     25  H60 UNL     1      13.218   5.526   5.307 +0.10 +0.00    +0.163 HD
BRANCH  24  26
ATOM     26  C22 UNL     1      11.750   4.946   6.738 -0.35 +0.00    +0.177 C 
BRANCH  26  27
ATOM     27  C23 UNL     1      12.070   5.402   8.172 -0.51 +0.00    +0.038 C 
BRANCH  27  28
ATOM     28  C24 UNL     1      13.411   6.142   8.381 -0.65 -0.00    -0.020 C 
ATOM     29  C25 UNL     1      14.539   5.624   7.490 -0.55 +0.00    +0.009 C 
ATOM     30  C26 UNL     1      13.211   7.641   8.132 -0.59 +0.00    +0.009 C 
ENDBRANCH  27  28
ENDBRANCH  26  27
BRANCH  26  31
ATOM     31  C27 UNL     1      10.242   4.738   6.477 -0.27 +0.00    +0.241 C 
ATOM     32  O7  UNL     1       9.353   5.270   7.136 -0.24 -0.00    -0.271 OA
ATOM     33  N7  UNL     1       9.969   3.791   5.516 -0.20 -0.00    -0.344 N 
ATOM     34  H61 UNL     1      10.741   3.273   5.103 +0.08 +0.00    +0.163 HD
BRANCH  33  35
ATOM     35  C28 UNL     1       8.612   3.342   5.204 -0.24 +0.00    +0.191 C 
BRANCH  35  36
ATOM     36  C29 UNL     1       7.592   3.754   6.273 -0.15 +0.00    +0.106 C 
BRANCH  36  37
ATOM     37  S1  UNL     1       7.043   5.496   6.146 -0.31 -0.00    -0.180 SA
ATOM     38  H65 UNL     1       6.590   5.425   4.882 +0.05 +0.00    +0.101 HD
ENDBRANCH  36  37
ENDBRANCH  35  36
BRANCH  35  39
ATOM     39  C30 UNL     1       8.172   3.825   3.822 -0.23 +0.00    +0.164 C 
ATOM     40  O8  UNL     1       8.890   3.993   2.849 +0.04 -0.00    -0.648 OA
BRANCH  39  41
ATOM     41  O9  UNL     1       6.844   4.079   3.731 +0.11 -0.00    -0.775 OA
ATOM     42  H52 UNL     1       6.804   4.849   3.122 +0.08 +0.00    +0.167 HD
ENDBRANCH  39  41
ENDBRANCH  35  39
ENDBRANCH  33  35
ENDBRANCH  26  31
ENDBRANCH  24  26
ENDBRANCH  15  22
ENDBRANCH  13  15
ENDBRANCH  10  11
ENDBRANCH   8  10
ENDBRANCH   1   6
BRANCH   1  43
ATOM     43  N2  UNL     1      20.163  10.310   3.348 +2.45 -0.00    -0.346 N 
ATOM     44  C9  UNL     1      20.990   9.236   3.117 -0.21 +0.00    +0.241 C 
ATOM     45  O2  UNL     1      20.603   8.200   2.573 +4.35 -0.00    -0.271 OA
ATOM     46  H55 UNL     1      20.484  11.058   3.951 +1.94 +0.00    +0.163 HD
BRANCH  44  47
ATOM     47  C5  UNL     1      22.453   9.409   3.583 -0.36 +0.00    +0.180 C 
BRANCH  47  48
ATOM     48  C6  UNL     1      22.666  10.541   4.612 -0.12 +0.00    +0.009 C 
ATOM     49  C7  UNL     1      23.769  11.515   4.193 +0.98 +0.00    +0.012 C 
ATOM     50  C8  UNL     1      22.931  10.021   6.028 +0.56 +0.00    +0.012 C 
ENDBRANCH  47  48
BRANCH  47  51
ATOM     51  N1  UNL     1      23.233   9.646   2.370 -0.17 -0.00    -0.346 N 
ATOM     52  C4  UNL     1      22.813   9.256   1.115 -0.33 +0.00    +0.243 C 
ATOM     53  O1  UNL     1      21.750   8.668   0.947 +0.58 -0.00    -0.271 OA
ATOM     54  H54 UNL     1      23.996  10.316   2.437 +0.14 +0.00    +0.163 HD
BRANCH  52  55
ATOM     55  C3  UNL     1      23.733   9.764  -0.020 +1.16 +0.00    +0.205 C 
BRANCH  55  56
ATOM     56  C2  UNL     1      22.997  10.438  -1.201 +2.65 +0.00    +0.146 C 
ATOM     57  C1  UNL     1      22.620  11.894  -0.955 -0.23 +0.00    +0.042 C 
BRANCH  56  58
ATOM     58  O12 UNL     1      23.750  10.357  -2.413 +3.45 -0.00    -0.393 OA
ATOM     59  H53 UNL     1      24.002  11.264  -2.663 +0.23 +0.00    +0.210 HD
ENDBRANCH  56  58
ENDBRANCH  55  56
BRANCH  55  60
ATOM     60  N8  UNL     1      24.598   8.662  -0.476 +0.19 -0.00    -0.344 N 
ATOM     61  C31 UNL     1      24.195   7.349  -0.353 -0.36 +0.00    +0.241 C 
ATOM     62  O10 UNL     1      23.069   7.042   0.035 -0.35 -0.00    -0.271 OA
ATOM     63  H62 UNL     1      25.589   8.859  -0.561 +0.15 +0.00    +0.163 HD
BRANCH  61  64
ATOM     64  C32 UNL     1      25.250   6.321  -0.817 -0.39 +0.00    +0.179 C 
ATOM     65  C33 UNL     1      24.766   4.893  -0.571 -0.56 +0.00    +0.037 C 
ATOM     66  C34 UNL     1      25.260   4.601   0.844 -0.40 +0.00    +0.022 C 
ATOM     67  C35 UNL     1      26.602   5.316   0.902 +0.08 +0.00    +0.127 C 
ATOM     68  N9  UNL     1      26.460   6.438  -0.013 -0.13 -0.00    -0.337 N 
ATOM     69  C36 UNL     1      27.354   7.455  -0.254 -0.23 +0.00    +0.254 C 
ATOM     70  O11 UNL     1      27.183   8.240  -1.191 +1.10 -0.00    -0.271 OA
BRANCH  69  71
ATOM     71  C37 UNL     1      28.562   7.595   0.700 -0.20 +0.00    +0.318 C 
BRANCH  71  72
ATOM     72  C38 UNL     1      29.821   6.975   0.067 -0.20 +0.00    +0.116 C 
BRANCH  72  73
ATOM     73  S2  UNL     1      30.603   7.999  -1.233 -0.22 -0.00    -0.180 SA
ATOM     74  H66 UNL     1      30.445   7.120  -2.237 +0.04 +0.00    +0.101 HD
ENDBRANCH  72  73
ENDBRANCH  71  72
BRANCH  71  75
ATOM     75  N10 UNL     1      28.240   6.999   2.019 +0.29 +0.00    +0.092 N 
ATOM     76  H63 UNL     1      28.524   7.658   2.746 +0.09 +0.00    +0.313 HD
ATOM     77  H64 UNL     1      27.217   6.980   2.094 +0.22 +0.00    +0.313 HD
ENDBRANCH  71  75
ENDBRANCH  69  71
ENDBRANCH  61  64
ENDBRANCH  55  60
ENDBRANCH  52  55
ENDBRANCH  47  51
ENDBRANCH  44  47
ENDBRANCH   1  43
TORSDOF 31
TER
