USER    Run = 1
USER    DPF = ligand_465_receptor.dpf
USER  
USER    Estimated Free Energy of Binding    =   +0.59 kcal/mol  [=(1)+(2)+(3)-(4)]
USER    
USER    (1) Final Intermolecular Energy     =   -0.60 kcal/mol
USER        vdW + Hbond + desolv Energy     =   -0.60 kcal/mol
USER        Electrostatic Energy            =   +0.00 kcal/mol
USER    (2) Final Total Internal Energy     =   -2.99 kcal/mol
USER    (3) Torsional Free Energy           =   +1.19 kcal/mol
USER    (4) Unbound System's Energy  [=(2)] =   -2.99 kcal/mol
USER    
USER    
USER    NEWDPF move ligand_465.pdbqt
USER    NEWDPF about 0.000000 0.000000 0.000000
USER    NEWDPF tran0 8.643212 11.169750 -1.315393
USER    NEWDPF quaternion0 0.320028 -0.912367 -0.239684 -0.087866
USER    NEWDPF axisangle0 0.321270 -0.915909 -0.240614 -169.918266
USER    NEWDPF quat0 0.321270 -0.915909 -0.240614 -169.918266
USER    NEWDPF dihe0 -39.33 -65.39 112.55 -127.95 175.55 -44.84 1.37 15.14 10.17 178.21 -152.63 -138.82 -61.91 -100.98 47.21 -170.56 -165.11 180.00 85.71 -131.51 15.81 146.84 105.16 -180.00 101.39 41.85 -110.41 -119.03 -84.95 
USER  keepresnum = 1 
USER  
REMARK  29 active torsions:
REMARK  status: ('A' for Active; 'I' for Inactive)
REMARK    1  A    between atoms: C2_2  and  C3_3 
REMARK    2  A    between atoms: C2_2  and  N6_56 
REMARK    3  A    between atoms: C3_3  and  C4_4 
REMARK    4  A    between atoms: C4_4  and  C5_5 
REMARK    5  A    between atoms: C5_5  and  C6_6 
REMARK    6  A    between atoms: C5_5  and  C10_10 
REMARK    7  A    between atoms: C6_6  and  C7_7 
REMARK    8  A    between atoms: C7_7  and  C8_8 
REMARK    9  A    between atoms: C8_8  and  N1_50 
REMARK       I    between atoms: C9_9  and  N2_52 
REMARK       I    between atoms: C9_9  and  N3_53 
REMARK       I    between atoms: C10_10  and  N4_54 
REMARK   10  A    between atoms: C11_11  and  C12_12 
REMARK   11  A    between atoms: C11_11  and  C14_14 
REMARK   12  A    between atoms: C11_11  and  N4_54 
REMARK   13  A    between atoms: C12_12  and  C13_13 
REMARK   14  A    between atoms: C13_13  and  O4_42 
REMARK   15  A    between atoms: C14_14  and  C15_15 
REMARK   16  A    between atoms: C15_15  and  C16_16 
REMARK   17  A    between atoms: C16_16  and  C17_17 
REMARK   18  A    between atoms: C16_16  and  C20_20 
REMARK   19  A    between atoms: C17_17  and  N5_55 
REMARK       I    between atoms: C18_18  and  N5_55 
REMARK   20  A    between atoms: C20_20  and  O8_46 
REMARK   21  A    between atoms: C21_21  and  C22_22 
REMARK       I    between atoms: C21_21  and  N6_56 
REMARK   22  A    between atoms: C22_22  and  C23_23 
REMARK   23  A    between atoms: C23_23  and  C24_24 
REMARK   24  A    between atoms: C24_24  and  N7_57 
REMARK   25  A    between atoms: C25_25  and  C26_26 
REMARK       I    between atoms: C25_25  and  N7_57 
REMARK   26  A    between atoms: C29_29  and  N8_58 
REMARK   27  A    between atoms: C32_32  and  C33_33 
REMARK   28  A    between atoms: C32_32  and  N8_58 
REMARK   29  A    between atoms: C38_38  and  N13_66 
USER                              x       y       z     vdW  Elec       q    Type
USER                           _______ _______ _______ _____ _____    ______ ____
ROOT
ATOM      1  C1  UNL     1      12.045   6.356  -0.440 -0.47 +0.00    +0.040 C 
ATOM      2  C2  UNL     1      10.891   7.346  -0.326 +0.09 +0.00    +0.150 C 
ENDROOT
BRANCH   2   3
ATOM      3  C3  UNL     1       9.866   7.098  -1.439 -0.29 +0.00    +0.149 C 
ATOM      4  O1  UNL     1      10.213   6.937  -2.613 -0.17 -0.00    -0.296 OA
BRANCH   3   5
ATOM      5  C4  UNL     1       8.415   6.909  -1.043 -0.23 +0.00    +0.094 C 
BRANCH   5   6
ATOM      6  C5  UNL     1       8.212   5.922   0.122 -0.20 +0.00    +0.085 C 
BRANCH   6   7
ATOM      7  C6  UNL     1       7.243   6.539   1.151 -0.33 +0.00    +0.016 C 
BRANCH   7   8
ATOM      8  C7  UNL     1       6.359   5.532   1.898 -0.21 +0.00    +0.020 C 
BRANCH   8   9
ATOM      9  C8  UNL     1       6.314   5.703   3.412 -0.18 +0.00    +0.121 C 
BRANCH   9  10
ATOM     10  N1  UNL     1       7.186   4.721   4.048 -0.04 -0.00    -0.372 N 
ATOM     11  C9  UNL     1       7.083   4.579   5.316 -0.29 +0.00    +0.121 C 
ATOM     12  N2  UNL     1       7.841   3.669   5.959 -0.17 -0.00    -0.279 NA
ATOM     13  N3  UNL     1       6.301   5.238   6.207 -0.21 -0.00    -0.279 NA
ATOM     14  H40 UNL     1       7.288   3.020   6.529 -0.23 +0.00    +0.126 HD
ATOM     15  H41 UNL     1       8.349   3.127   5.270 -0.14 +0.00    +0.126 HD
ATOM     16  H42 UNL     1       6.027   6.158   5.878 +0.05 +0.00    +0.126 HD
ATOM     17  H43 UNL     1       6.789   5.328   7.096 +0.06 +0.00    +0.126 HD
ATOM     18  H1  UNL     1       7.851   4.170   3.504 +0.08 +0.00    +0.161 HD
ENDBRANCH   9  10
ENDBRANCH   8   9
ENDBRANCH   7   8
ENDBRANCH   6   7
BRANCH   6  19
ATOM     19  C10 UNL     1       7.708   4.617  -0.492 -0.07 +0.00    +0.222 C 
ATOM     20  O2  UNL     1       8.249   3.530  -0.313 -0.05 -0.00    -0.273 OA
ATOM     21  N4  UNL     1       6.523   4.749  -1.200 +0.37 -0.00    -0.349 N 
ATOM     22  H44 UNL     1       5.967   5.593  -1.055 -0.54 +0.00    +0.163 HD
BRANCH  21  23
ATOM     23  C11 UNL     1       5.768   3.554  -1.593 -0.08 +0.00    +0.164 C 
BRANCH  23  24
ATOM     24  C12 UNL     1       6.084   3.192  -3.048 -0.11 +0.00    +0.143 C 
BRANCH  24  25
ATOM     25  C13 UNL     1       5.579   1.848  -3.485 -0.08 +0.00    +0.141 C 
ATOM     26  O3  UNL     1       4.437   1.454  -3.284 +0.05 -0.00    -0.650 OA
BRANCH  25  27
ATOM     27  O4  UNL     1       6.499   1.061  -4.058 -0.21 -0.00    -0.776 OA
ATOM     28  H38 UNL     1       6.660   0.319  -3.424 +0.05 +0.00    +0.167 HD
ENDBRANCH  25  27
ENDBRANCH  24  25
ENDBRANCH  23  24
BRANCH  23  29
ATOM     29  C14 UNL     1       6.090   2.353  -0.683 -0.07 +0.00    +0.150 C 
ATOM     30  O5  UNL     1       6.723   1.381  -1.106 -0.07 -0.00    -0.296 OA
BRANCH  29  31
ATOM     31  C15 UNL     1       5.545   2.373   0.739 -0.12 +0.00    +0.097 C 
BRANCH  31  32
ATOM     32  C16 UNL     1       4.038   2.614   0.865 -0.10 +0.00    +0.108 C 
BRANCH  32  33
ATOM     33  C17 UNL     1       3.395   1.899   2.063 -0.11 +0.00    +0.138 C 
BRANCH  33  34
ATOM     34  N5  UNL     1       3.629   2.535   3.345 -0.02 -0.00    -0.361 N 
ATOM     35  C18 UNL     1       4.454   2.030   4.319 -0.22 +0.00    +0.213 C 
ATOM     36  C19 UNL     1       4.483   2.859   5.575 -0.27 +0.00    +0.117 C 
ATOM     37  O6  UNL     1       5.092   0.985   4.201 -0.30 -0.00    -0.274 OA
ATOM     38  H45 UNL     1       3.212   3.452   3.486 +0.05 +0.00    +0.162 HD
ENDBRANCH  33  34
ENDBRANCH  32  33
BRANCH  32  39
ATOM     39  C20 UNL     1       3.656   4.077   0.830 +0.04 +0.00    +0.145 C 
ATOM     40  O7  UNL     1       4.120   4.937   0.099 -0.25 -0.00    -0.650 OA
BRANCH  39  41
ATOM     41  O8  UNL     1       2.756   4.403   1.779 -0.46 -0.00    -0.776 OA
ATOM     42  H39 UNL     1       3.240   5.042   2.347 +0.02 +0.00    +0.167 HD
ENDBRANCH  39  41
ENDBRANCH  32  39
ENDBRANCH  31  32
ENDBRANCH  29  31
ENDBRANCH  23  29
ENDBRANCH  21  23
ENDBRANCH   6  19
ENDBRANCH   5   6
ENDBRANCH   3   5
ENDBRANCH   2   3
BRANCH   2  43
ATOM     43  N6  UNL     1      10.240   7.214   0.969 -0.10 -0.00    -0.350 N 
ATOM     44  C21 UNL     1      10.934   6.790   2.082 -0.26 +0.00    +0.218 C 
ATOM     45  O9  UNL     1      12.126   6.490   2.041 -0.32 -0.00    -0.274 OA
ATOM     46  H46 UNL     1       9.421   7.794   1.134 +0.10 +0.00    +0.163 HD
BRANCH  44  47
ATOM     47  C22 UNL     1      10.046   6.611   3.300 -0.30 +0.00    +0.104 C 
BRANCH  47  48
ATOM     48  C23 UNL     1       9.403   7.900   3.811 -0.31 +0.00    +0.029 C 
BRANCH  48  49
ATOM     49  C24 UNL     1      10.336   8.740   4.682 -0.18 +0.00    +0.123 C 
BRANCH  49  50
ATOM     50  N7  UNL     1      11.738   8.557   4.381 -0.08 -0.00    -0.357 N 
ATOM     51  C25 UNL     1      12.646   8.096   5.311 -0.24 +0.00    +0.251 C 
ATOM     52  O10 UNL     1      12.378   7.974   6.501 -0.29 -0.00    -0.268 OA
ATOM     53  H47 UNL     1      12.043   8.764   3.439 +0.02 +0.00    +0.162 HD
BRANCH  51  54
ATOM     54  C26 UNL     1      14.015   7.788   4.804 -0.46 +0.00    +0.032 A 
ATOM     55  C27 UNL     1      14.331   7.804   3.442 -0.41 +0.00    +0.019 A 
ATOM     56  C28 UNL     1      15.649   7.583   3.018 +1.20 +0.00    +0.024 A 
ATOM     57  C29 UNL     1      16.682   7.375   3.935 -0.09 +0.00    +0.008 A 
ATOM     58  C30 UNL     1      16.330   7.256   5.287 +1.77 +0.00    +0.024 A 
ATOM     59  C31 UNL     1      15.015   7.460   5.722 +2.21 +0.00    +0.019 A 
BRANCH  57  60
ATOM     60  N8  UNL     1      18.016   7.153   3.568 -0.11 -0.00    -0.287 NA
ATOM     61  H48 UNL     1      18.315   6.227   3.884 +1.48 +0.00    +0.128 HD
BRANCH  60  62
ATOM     62  C32 UNL     1      19.049   8.131   3.926 -0.36 +0.00    +0.151 C 
BRANCH  62  63
ATOM     63  C33 UNL     1      19.347   9.080   2.785 -0.24 +0.00    +0.038 A 
ATOM     64  C34 UNL     1      18.388  10.002   2.360 -0.36 +0.00    +0.116 A 
ATOM     65  N9  UNL     1      18.614  10.927   1.390 -0.20 -0.00    -0.348 N 
ATOM     66  C35 UNL     1      19.861  10.909   0.855 -0.44 +0.00    +0.140 A 
ATOM     67  H9  UNL     1      17.898  11.588   1.086 +0.15 +0.00    +0.167 HD
ATOM     68  C36 UNL     1      20.810   9.977   1.266 -0.29 +0.00    +0.146 A 
ATOM     69  N12 UNL     1      20.104  11.924  -0.079 -0.38 -0.00    -0.317 N 
ATOM     70  C37 UNL     1      22.129  10.055   0.613 -0.17 +0.00    +0.278 A 
ATOM     71  N10 UNL     1      20.582   9.031   2.218 +0.42 -0.00    -0.350 N 
ATOM     72  O11 UNL     1      23.045   9.269   0.836 -0.31 -0.00    -0.265 OA
ATOM     73  N11 UNL     1      22.269  11.080  -0.295 -0.16 -0.00    -0.298 N 
ATOM     74  C38 UNL     1      21.292  11.987  -0.585 +0.05 +0.00    +0.159 A 
ATOM     75  H49 UNL     1      23.175  11.176  -0.720 +0.14 +0.00    +0.171 HD
ATOM     76  H10 UNL     1      21.283   8.340   2.486 +0.13 +0.00    +0.166 HD
ATOM     77  H12 UNL     1      19.375  12.585  -0.348 +0.13 +0.00    +0.170 HD
BRANCH  74  78
ATOM     78  N13 UNL     1      21.643  12.976  -1.443 +3.21 -0.00    -0.274 NA
ATOM     79  H50 UNL     1      22.549  13.374  -1.200 -0.22 +0.00    +0.127 HD
ATOM     80  H51 UNL     1      21.672  12.681  -2.419 +0.11 +0.00    +0.127 HD
ENDBRANCH  74  78
ENDBRANCH  62  63
ENDBRANCH  60  62
ENDBRANCH  57  60
ENDBRANCH  51  54
ENDBRANCH  49  50
ENDBRANCH  48  49
ENDBRANCH  47  48
ENDBRANCH  44  47
ENDBRANCH   2  43
TORSDOF 29
TER
