USER    Run = 1
USER    DPF = ligand_146_receptor.dpf
USER  
USER    Estimated Free Energy of Binding    =  +6.74e+005 kcal/mol  [=(1)+(2)+(3)-(4)]
USER    
USER    (1) Final Intermolecular Energy     =  +6.74e+005 kcal/mol
USER        vdW + Hbond + desolv Energy     =  +4.00e+005 kcal/mol
USER        Electrostatic Energy            =  +2.75e+005 kcal/mol
USER    (2) Final Total Internal Energy     =   +0.00 kcal/mol
USER    (3) Torsional Free Energy           =   +1.19 kcal/mol
USER    (4) Unbound System's Energy  [=(2)] =   +0.00 kcal/mol
USER    
USER    
USER    NEWDPF move ligand_146.pdbqt
USER    NEWDPF about 0.000000 0.000000 0.000000
USER    NEWDPF tran0 17.429394 6.209874 2.246254
USER    NEWDPF quaternion0 -0.109961 0.199067 -0.962129 0.150292
USER    NEWDPF axisangle0 -0.111225 0.201354 -0.973183 162.712287
USER    NEWDPF quat0 -0.111225 0.201354 -0.973183 162.712287
USER  keepresnum = 1 
USER  
REMARK  0 active torsions:
REMARK  status: ('A' for Active; 'I' for Inactive)
REMARK       I    between atoms: C4_4  and  C5_5 
REMARK       I    between atoms: C5_5  and  N3_81 
REMARK       I    between atoms: C6_6  and  N3_81 
REMARK       I    between atoms: C8_8  and  C9_9 
REMARK       I    between atoms: C9_9  and  N6_85 
REMARK       I    between atoms: C10_10  and  N6_85 
REMARK       I    between atoms: C12_12  and  C13_13 
REMARK       I    between atoms: C13_13  and  N9_89 
REMARK       I    between atoms: C14_14  and  N9_89 
REMARK       I    between atoms: C16_16  and  C18_18 
REMARK       I    between atoms: C18_18  and  N11_91 
REMARK       I    between atoms: C19_19  and  C20_20 
REMARK       I    between atoms: C19_19  and  N11_91 
REMARK       I    between atoms: C20_20  and  C21_21 
REMARK       I    between atoms: C21_21  and  C22_22 
REMARK       I    between atoms: C22_22  and  O12_117 
REMARK       I    between atoms: C23_23  and  N12_92 
REMARK       I    between atoms: C25_25  and  C27_27 
REMARK       I    between atoms: C27_27  and  N14_95 
REMARK       I    between atoms: C28_28  and  N14_95 
REMARK       I    between atoms: C30_30  and  C32_32 
REMARK       I    between atoms: C32_32  and  N16_97 
REMARK       I    between atoms: C33_33  and  N16_97 
REMARK       I    between atoms: C35_35  and  C37_37 
REMARK       I    between atoms: C37_37  and  N18_99 
REMARK       I    between atoms: C38_38  and  N18_99 
REMARK       I    between atoms: C40_40  and  C42_42 
REMARK       I    between atoms: C42_42  and  N20_101 
REMARK       I    between atoms: C43_43  and  C44_44 
REMARK       I    between atoms: C43_43  and  N20_101 
REMARK       I    between atoms: C44_44  and  C45_45 
REMARK       I    between atoms: C45_45  and  O11_116 
REMARK       I    between atoms: C46_46  and  C47_47 
REMARK       I    between atoms: C46_46  and  N21_102 
REMARK       I    between atoms: C47_47  and  O9_114 
REMARK       I    between atoms: C48_48  and  C49_49 
REMARK       I    between atoms: C48_48  and  O9_114 
REMARK       I    between atoms: C49_49  and  O10_115 
REMARK       I    between atoms: C50_50  and  C51_51 
REMARK       I    between atoms: C50_50  and  O10_115 
REMARK       I    between atoms: C51_51  and  C52_52 
REMARK       I    between atoms: C52_52  and  N22_104 
REMARK       I    between atoms: C56_56  and  C57_57 
USER                              x       y       z     vdW  Elec       q    Type
USER                           _______ _______ _______ _____ _____    ______ ____
ROOT
ATOM      1  C1  UNL     1      12.308  12.622  12.249+99.99+99.99    +0.157 C 
ATOM      2  C2  UNL     1      14.367  14.038  12.353+99.99+99.99    +0.109 A 
ATOM      3  C3  UNL     1      15.493  14.117  11.572+99.99+99.99    +0.107 A 
ATOM      4  C4  UNL     1      14.272  12.587  10.678 +7.11 +0.00    +0.176 A 
ATOM      5  C5  UNL     1      13.828  11.540   9.761 +2.98 +0.00    +0.291 C 
ATOM      6  C6  UNL     1      14.653  10.413   7.763 +9.66 +0.00    +0.125 A 
ATOM      7  C7  UNL     1      15.587  10.210   6.777+99.99 +0.00    +0.140 A 
ATOM      8  C8  UNL     1      13.850   8.855   6.520 +2.14 +0.00    +0.178 A 
ATOM      9  C9  UNL     1      12.928   7.839   6.028 -0.26 +0.00    +0.291 C 
ATOM     10  C10 UNL     1      10.743   6.950   6.665 +0.08 +0.00    +0.125 A 
ATOM     11  C11 UNL     1       9.641   6.927   7.483+19.65 +0.00    +0.140 A 
ATOM     12  C12 UNL     1       9.497   5.377   5.906 -0.19 +0.00    +0.178 A 
ATOM     13  C13 UNL     1       9.037   4.267   5.083 -0.21 +0.00    +0.290 C 
ATOM     14  C14 UNL     1       9.825   2.922   3.190 +0.70 +0.00    +0.053 A 
ATOM     15  C15 UNL     1      10.696   2.741   2.142+99.99 +0.00    +0.120 A 
ATOM     16  C16 UNL     1       9.065   1.200   1.910 +1.71 +0.00    +0.104 A 
ATOM     17  C17 UNL     1       8.847   1.907   3.086+29.69 +0.00    +0.066 A 
ATOM     18  C18 UNL     1       8.224   0.145   1.381+10.37 +0.00    +0.268 C 
ATOM     19  C19 UNL     1       7.038  -0.604  -0.642 +4.45 +0.00    +0.123 C 
ATOM     20  C20 UNL     1       7.364  -0.860  -2.112 -0.19 +0.00    +0.027 C 
ATOM     21  C21 UNL     1       7.475   0.397  -2.975 -0.16 +0.00    +0.085 C 
ATOM     22  C22 UNL     1       6.142   1.044  -3.239 -0.10 +0.00    +0.115 C 
ATOM     23  C23 UNL     1       6.226   2.757  -1.722 -0.08 +0.00    +0.051 A 
ATOM     24  C24 UNL     1       5.729   2.930  -0.460 -0.06 +0.00    +0.120 A 
ATOM     25  C25 UNL     1       7.695   4.034  -0.572 -0.07 +0.00    +0.105 A 
ATOM     26  C26 UNL     1       7.424   3.481  -1.822 -0.09 +0.00    +0.066 A 
ATOM     27  C27 UNL     1       8.905   4.769  -0.232 -0.07 +0.00    +0.273 C 
ATOM     28  C28 UNL     1       9.701   6.661   1.104 -0.25 +0.00    +0.053 A 
ATOM     29  C29 UNL     1       9.451   7.750   1.906 -0.04 +0.00    +0.120 A 
ATOM     30  C30 UNL     1      11.689   7.643   1.632 +2.49 +0.00    +0.105 A 
ATOM     31  C31 UNL     1      11.104   6.584   0.948 -0.30 +0.00    +0.066 A 
ATOM     32  C32 UNL     1      13.096   8.016   1.707+68.44 +0.00    +0.273 C 
ATOM     33  C33 UNL     1      15.321   6.971   1.520+99.99 +0.00    +0.053 A 
ATOM     34  C34 UNL     1      16.122   8.063   1.302 +0.79 +0.00    +0.120 A 
ATOM     35  C35 UNL     1      17.494   6.271   1.427+15.31 +0.00    +0.105 A 
ATOM     36  C36 UNL     1      16.178   5.846   1.587+99.99 +0.00    +0.066 A 
ATOM     37  C37 UNL     1      18.730   5.494   1.418+99.99 +0.00    +0.273 C 
ATOM     38  C38 UNL     1      19.612   3.312   2.128+99.99 +0.00    +0.053 A 
ATOM     39  C39 UNL     1      19.460   2.138   2.826+99.99 +0.00    +0.120 A 
ATOM     40  C40 UNL     1      21.540   2.103   1.939+44.21 +0.00    +0.104 A 
ATOM     41  C41 UNL     1      20.911   3.289   1.574+99.99 +0.00    +0.066 A 
ATOM     42  C42 UNL     1      22.876   1.627   1.612+63.40 +0.00    +0.268 C 
ATOM     43  C43 UNL     1      24.729   1.864  -0.008+99.99 +0.00    +0.131 C 
ATOM     44  C44 UNL     1      25.459   2.988  -0.730+64.44 +0.00    +0.103 C 
ATOM     45  C45 UNL     1      24.784   3.459  -1.993 +5.35 +0.00    +0.112 C 
ATOM     46  C46 UNL     1      24.827   4.397  -4.204+18.48 +0.00    +0.147 C 
ATOM     47  C47 UNL     1      23.990   5.665  -4.027+10.26 +0.00    +0.187 C 
ATOM     48  C48 UNL     1      21.900   6.422  -3.165+99.99 +0.00    +0.193 C 
ATOM     49  C49 UNL     1      21.826   6.516  -1.639 +3.32 +0.00    +0.193 C 
ATOM     50  C50 UNL     1      23.084   6.968   0.307 -0.20 +0.00    +0.169 C 
ATOM     51  C51 UNL     1      24.511   7.036   0.834 -0.47 +0.00    +0.046 C 
ATOM     52  C52 UNL     1      25.294   8.202   0.228 -0.30 +0.00    +0.130 C 
ATOM     53  C53 UNL     1      27.003   8.864   1.910 -0.35 +0.00    +0.092 C 
ATOM     54  C54 UNL     1      28.225   8.918   2.452 +3.44 +0.00    +0.029 C 
ATOM     55  C55 UNL     1      29.337   8.278   1.752 +0.30 -0.00    -0.020 C 
ATOM     56  C56 UNL     1      30.627   8.552   2.049 +0.68 +0.00    +0.049 C 
ATOM     57  C57 UNL     1      31.020   9.523   3.003+28.81 +0.00    +0.077 A 
ATOM     58  C58 UNL     1      31.341  11.552   4.008+99.99 +0.00    +0.052 A 
ATOM     59  C59 UNL     1      31.303  12.945   4.218 +7.15 +0.00    +0.031 A 
ATOM     60  C60 UNL     1      31.801  13.463   5.420 -0.27 +0.00    +0.002 A 
ATOM     61  C61 UNL     1      32.326  12.619   6.394 -0.30 +0.00    +0.002 A 
ATOM     62  C62 UNL     1      32.369  11.236   6.200 +0.82 +0.00    +0.021 A 
ATOM     63  C63 UNL     1      31.866  10.722   4.995 +3.74 +0.00    +0.034 A 
ATOM     64  C64 UNL     1      30.366  11.505   1.715+99.99 +0.00    +0.157 C 
ATOM     65  C65 UNL     1      28.993   7.333   0.628 -0.31 +0.00    +0.001 A 
ATOM     66  C66 UNL     1      29.921   6.422   0.084 -0.18 +0.00    +0.014 A 
ATOM     67  C67 UNL     1      29.579   5.599  -0.987 -0.13 +0.00    +0.001 A 
ATOM     68  C68 UNL     1      28.304   5.665  -1.526 -0.23 +0.00    +0.002 A 
ATOM     69  C69 UNL     1      27.357   6.537  -0.982 -0.31 +0.00    +0.030 A 
ATOM     70  C70 UNL     1      27.660   7.371   0.110 -0.32 +0.00    +0.045 A 
ATOM     71  C71 UNL     1      20.842   0.126   3.337+99.99 +0.00    +0.156 C 
ATOM     72  C72 UNL     1      18.545   8.525   0.997+15.73 +0.00    +0.156 C 
ATOM     73  C73 UNL     1      10.791   9.512   3.055+50.38 +0.00    +0.156 C 
ATOM     74  C74 UNL     1       6.450   4.000   1.649 -0.08 +0.00    +0.156 C 
ATOM     75  C75 UNL     1      10.935   1.190   0.214 +0.04 +0.00    +0.156 C 
ATOM     76  C76 UNL     1       7.588   5.499   7.539 -0.37 +0.00    +0.157 C 
ATOM     77  C77 UNL     1      15.668   8.681   4.797 +0.86 +0.00    +0.157 C 
ATOM     78  N1  UNL     1      13.598  13.064  11.778+99.99+99.99    -0.342 N 
ATOM     79  N2  UNL     1      15.432  13.219  10.538+99.99 -0.00    -0.346 N 
ATOM     80  H2  UNL     1      16.132  13.067   9.811+99.99 +0.00    +0.167 HD
ATOM     81  N3  UNL     1      14.763  11.325   8.773+13.44 -0.00    -0.305 N 
ATOM     82  N4  UNL     1      15.063   9.219   5.990+45.50 -0.00    -0.339 N 
ATOM     83  N5  UNL     1      13.589   9.579   7.600 -0.06 -0.00    -0.323 N 
ATOM     84  H5  UNL     1      12.758   9.522   8.189 +0.12 +0.00    +0.169 HD
ATOM     85  N6  UNL     1      11.798   7.801   6.818 -0.17 -0.00    -0.305 N 
ATOM     86  N7  UNL     1       8.854   5.921   6.992 +0.01 -0.00    -0.339 N 
ATOM     87  N8  UNL     1      10.644   6.005   5.689 -0.10 -0.00    -0.323 N 
ATOM     88  H8  UNL     1      11.315   5.819   4.944 +0.11 +0.00    +0.169 HD
ATOM     89  N9  UNL     1       9.959   3.937   4.110 -0.16 -0.00    -0.319 N 
ATOM     90  N10 UNL     1      10.238   1.697   1.376 +1.10 -0.00    -0.354 N 
ATOM     91  N11 UNL     1       8.050   0.202   0.014 -0.07 -0.00    -0.356 N 
ATOM     92  N12 UNL     1       5.554   2.071  -2.724 -0.01 -0.00    -0.339 N 
ATOM     93  H12 UNL     1       4.630   2.367  -3.041 +0.04 +0.00    +0.168 HD
ATOM     94  N13 UNL     1       6.631   3.692   0.245 +0.00 -0.00    -0.354 N 
ATOM     95  N14 UNL     1       8.702   5.856   0.594 -0.05 -0.00    -0.320 N 
ATOM     96  N15 UNL     1      10.651   8.340   2.216 +5.85 -0.00    -0.354 N 
ATOM     97  N16 UNL     1      13.946   6.928   1.628+22.74 -0.00    -0.320 N 
ATOM     98  N17 UNL     1      17.424   7.639   1.230 +0.87 -0.00    -0.354 N 
ATOM     99  N18 UNL     1      18.616   4.263   2.039+99.99 -0.00    -0.320 N 
ATOM    100  N19 UNL     1      20.628   1.421   2.723+95.22 -0.00    -0.354 N 
ATOM    101  N20 UNL     1      23.496   2.325   0.601+12.66 -0.00    -0.355 N 
ATOM    102  N21 UNL     1      25.461   3.974  -2.952 +0.30 -0.00    -0.372 N 
ATOM    103  H21 UNL     1      26.468   4.092  -2.841 +0.09 +0.00    +0.161 HD
ATOM    104  N22 UNL     1      26.689   8.222   0.722 -0.16 -0.00    -0.356 N 
ATOM    105  N23 UNL     1      30.909  10.840   2.897+99.99 -0.00    -0.344 N 
ATOM    106  O1  UNL     1      12.756  10.957   9.889 -0.00 -0.00    -0.264 OA
ATOM    107  O2  UNL     1      13.158   7.141   5.046 -0.28 -0.00    -0.264 OA
ATOM    108  O3  UNL     1       7.946   3.726   5.240 -0.24 -0.00    -0.264 OA
ATOM    109  O4  UNL     1       7.654  -0.678   2.088+99.99 -0.00    -0.266 OA
ATOM    110  O5  UNL     1       9.991   4.435  -0.699 -0.13 -0.00    -0.266 OA
ATOM    111  O6  UNL     1      13.458   9.182   1.841+99.99 -0.00    -0.266 OA
ATOM    112  O7  UNL     1      19.767   5.930   0.924+99.99 -0.00    -0.266 OA
ATOM    113  O8  UNL     1      23.413   0.675   2.171+99.99 -0.00    -0.266 OA
ATOM    114  O9  UNL     1      22.688   5.286  -3.554+99.99 -0.00    -0.387 OA
ATOM    115  O10 UNL     1      23.116   6.848  -1.114 -0.32 -0.00    -0.389 OA
ATOM    116  O11 UNL     1      23.446   3.348  -1.978+99.99 -0.00    -0.350 OA
ATOM    117  O12 UNL     1       5.448   0.393  -4.191 -0.07 -0.00    -0.349 OA
ATOM    118  S1  UNL     1      31.781   9.084   4.474+99.99 -0.00    -0.070 SA
ATOM    119  H77 UNL     1      15.594  11.905   8.817 +0.24 +0.00    +0.170 HD
ATOM    120  H78 UNL     1      11.785   8.454   7.597 +0.13 +0.00    +0.170 HD
ATOM    121  H79 UNL     1      10.770   4.549   4.049 +0.00 +0.00    +0.169 HD
ATOM    122  H80 UNL     1       8.228   1.115  -0.386 +0.07 +0.00    +0.162 HD
ATOM    123  H81 UNL     1       7.755   6.131   0.807 +0.08 +0.00    +0.169 HD
ATOM    124  H82 UNL     1      13.525   6.015   1.731 -0.20 +0.00    +0.169 HD
ATOM    125  H83 UNL     1      17.752   4.041   2.513 +0.11 +0.00    +0.169 HD
ATOM    126  H84 UNL     1      22.894   2.862  -0.013+10.08 +0.00    +0.162 HD
ATOM    127  H85 UNL     1      23.040   3.845  -2.716+99.99 +0.00    +0.219 HD
ATOM    128  H86 UNL     1       4.605   0.865  -4.301 +0.04 +0.00    +0.219 HD
ENDROOT
TORSDOF 35
TER
