USER    Run = 1
USER    DPF = ligand_166_receptor.dpf
USER  
USER    Estimated Free Energy of Binding    =  +2.92e+003 kcal/mol  [=(1)+(2)+(3)-(4)]
USER    
USER    (1) Final Intermolecular Energy     =  +2.92e+003 kcal/mol
USER        vdW + Hbond + desolv Energy     =  +2.92e+003 kcal/mol
USER        Electrostatic Energy            =   +0.00 kcal/mol
USER    (2) Final Total Internal Energy     =   +0.00 kcal/mol
USER    (3) Torsional Free Energy           =   +1.19 kcal/mol
USER    (4) Unbound System's Energy  [=(2)] =   +0.00 kcal/mol
USER    
USER    
USER    NEWDPF move ligand_166.pdbqt
USER    NEWDPF about 0.000000 0.000000 0.000000
USER    NEWDPF tran0 14.170948 6.470620 2.740668
USER    NEWDPF quaternion0 0.673491 0.210298 0.092253 -0.702619
USER    NEWDPF axisangle0 0.946491 0.295543 0.129649 -90.724934
USER    NEWDPF quat0 0.946491 0.295543 0.129649 -90.724934
USER  keepresnum = 1 
USER  
REMARK  0 active torsions:
REMARK  status: ('A' for Active; 'I' for Inactive)
REMARK       I    between atoms: C2_2  and  C3_3 
REMARK       I    between atoms: C2_2  and  N8_66 
REMARK       I    between atoms: C3_3  and  N1_58 
REMARK       I    between atoms: C4_4  and  C5_5 
REMARK       I    between atoms: C4_4  and  C8_8 
REMARK       I    between atoms: C4_4  and  N1_58 
REMARK       I    between atoms: C5_5  and  C6_6 
REMARK       I    between atoms: C6_6  and  C7_7 
REMARK       I    between atoms: C7_7  and  O3_46 
REMARK       I    between atoms: C8_8  and  N2_59 
REMARK       I    between atoms: C9_9  and  C10_10 
REMARK       I    between atoms: C9_9  and  C11_11 
REMARK       I    between atoms: C9_9  and  N2_59 
REMARK       I    between atoms: C10_10  and  S1_72 
REMARK       I    between atoms: C11_11  and  N3_60 
REMARK       I    between atoms: C12_12  and  C14_14 
REMARK       I    between atoms: C12_12  and  N3_60 
REMARK       I    between atoms: C14_14  and  N4_61 
REMARK       I    between atoms: C15_15  and  C16_16 
REMARK       I    between atoms: C15_15  and  C20_20 
REMARK       I    between atoms: C15_15  and  N4_61 
REMARK       I    between atoms: C16_16  and  C17_17 
REMARK       I    between atoms: C17_17  and  C18_18 
REMARK       I    between atoms: C18_18  and  N5_62 
REMARK       I    between atoms: C19_19  and  N6_64 
REMARK       I    between atoms: C19_19  and  N7_65 
REMARK       I    between atoms: C20_20  and  O8_51 
REMARK       I    between atoms: C21_21  and  C22_22 
REMARK       I    between atoms: C21_21  and  N8_66 
REMARK       I    between atoms: C22_22  and  C23_23 
REMARK       I    between atoms: C22_22  and  N9_67 
REMARK       I    between atoms: C23_23  and  C24_24 
REMARK       I    between atoms: C27_27  and  C28_28 
REMARK       I    between atoms: C27_27  and  N9_67 
REMARK       I    between atoms: C28_28  and  C29_29 
REMARK       I    between atoms: C28_28  and  N11_69 
REMARK       I    between atoms: C29_29  and  C30_30 
REMARK       I    between atoms: C30_30  and  C31_31 
REMARK       I    between atoms: C31_31  and  C32_32 
REMARK       I    between atoms: C32_32  and  N10_68 
REMARK       I    between atoms: C33_33  and  C34_34 
REMARK       I    between atoms: C33_33  and  N11_69 
REMARK       I    between atoms: C34_34  and  C35_35 
REMARK       I    between atoms: C34_34  and  N12_70 
REMARK       I    between atoms: C35_35  and  C36_36 
REMARK       I    between atoms: C39_39  and  C40_40 
REMARK       I    between atoms: C39_39  and  N12_70 
REMARK       I    between atoms: C40_40  and  C41_41 
REMARK       I    between atoms: C40_40  and  N13_71 
REMARK       I    between atoms: C41_41  and  C42_42 
REMARK       I    between atoms: C42_42  and  C43_43 
REMARK       I    between atoms: C43_43  and  O14_57 
USER                              x       y       z     vdW  Elec       q    Type
USER                           _______ _______ _______ _____ _____    ______ ____
ROOT
ATOM      1  C1  UNL     1      10.800   9.379  -1.610+99.99 +0.00    +0.042 C 
ATOM      2  C2  UNL     1      11.652   8.129  -1.420+20.33 +0.00    +0.172 C 
ATOM      3  C3  UNL     1      13.071   8.494  -0.926+99.99 +0.00    +0.240 C 
ATOM      4  C4  UNL     1      15.276   7.535  -0.269 +0.67 +0.00    +0.177 C 
ATOM      5  C5  UNL     1      16.128   8.497  -1.134 +1.02 +0.00    +0.045 C 
ATOM      6  C6  UNL     1      17.360   7.837  -1.769 +0.24 +0.00    +0.112 C 
ATOM      7  C7  UNL     1      18.512   7.771  -0.809+99.99 +0.00    +0.139 C 
ATOM      8  C8  UNL     1      15.213   7.859   1.259 +7.48 +0.00    +0.241 C 
ATOM      9  C9  UNL     1      16.570   8.515   3.251 -0.47 +0.00    +0.185 C 
ATOM     10  C10 UNL     1      16.653   7.222   4.075 +0.95 +0.00    +0.105 C 
ATOM     11  C11 UNL     1      17.846   9.356   3.491 -0.37 +0.00    +0.241 C 
ATOM     12  C12 UNL     1      20.258   9.646   3.022 -0.04 +0.00    +0.172 C 
ATOM     13  C13 UNL     1      20.957   8.967   4.197 +3.62 +0.00    +0.042 C 
ATOM     14  C14 UNL     1      21.158   9.580   1.769 -0.19 +0.00    +0.240 C 
ATOM     15  C15 UNL     1      23.278  10.371   0.764 +0.77 +0.00    +0.182 C 
ATOM     16  C16 UNL     1      24.049  11.695   0.633+64.43 +0.00    +0.038 C 
ATOM     17  C17 UNL     1      25.261  11.895   1.553 +5.28 +0.00    +0.022 C 
ATOM     18  C18 UNL     1      24.936  11.987   3.040 +6.90 +0.00    +0.121 C 
ATOM     19  C19 UNL     1      26.679  11.037   4.325+71.10 +0.00    +0.121 C 
ATOM     20  C20 UNL     1      24.218   9.191   1.028 -0.30 +0.00    +0.163 C 
ATOM     21  C21 UNL     1      11.170   5.857  -0.520 -0.25 +0.00    +0.241 C 
ATOM     22  C22 UNL     1      10.375   5.050   0.530 +0.43 +0.00    +0.177 C 
ATOM     23  C23 UNL     1       8.867   5.358   0.585 -0.18 +0.00    +0.038 C 
ATOM     24  C24 UNL     1       7.993   4.760  -0.539 -0.16 -0.00    -0.020 C 
ATOM     25  C25 UNL     1       8.322   5.317  -1.922 +0.26 +0.00    +0.009 C 
ATOM     26  C26 UNL     1       8.023   3.231  -0.557 -0.13 +0.00    +0.009 C 
ATOM     27  C27 UNL     1      11.009   6.321   2.592 -0.22 +0.00    +0.241 C 
ATOM     28  C28 UNL     1      11.397   6.147   4.076 -0.25 +0.00    +0.176 C 
ATOM     29  C29 UNL     1      12.614   5.243   4.320 +6.55 +0.00    +0.035 C 
ATOM     30  C30 UNL     1      13.058   5.250   5.788 -0.48 +0.00    +0.004 C 
ATOM     31  C31 UNL     1      14.193   4.250   6.030 +8.03 +0.00    +0.030 C 
ATOM     32  C32 UNL     1      14.678   4.218   7.482 +1.17 +0.00    +0.267 C 
ATOM     33  C33 UNL     1       9.572   4.538   4.671 -0.22 +0.00    +0.241 C 
ATOM     34  C34 UNL     1       8.260   4.386   5.474 -0.28 +0.00    +0.177 C 
ATOM     35  C35 UNL     1       8.513   4.259   6.986 -0.51 +0.00    +0.038 C 
ATOM     36  C36 UNL     1       9.589   3.256   7.462 -0.56 -0.00    -0.020 C 
ATOM     37  C37 UNL     1       9.268   1.799   7.135+97.59 +0.00    +0.009 C 
ATOM     38  C38 UNL     1       9.779   3.405   8.977 +5.79 +0.00    +0.009 C 
ATOM     39  C39 UNL     1       6.673   3.473   3.833 -0.16 +0.00    +0.251 C 
ATOM     40  C40 UNL     1       6.174   2.152   3.214 -0.19 +0.00    +0.309 C 
ATOM     41  C41 UNL     1       4.942   1.622   3.960 -0.33 +0.00    +0.055 C 
ATOM     42  C42 UNL     1       3.706   2.518   3.829 -0.16 +0.00    +0.112 C 
ATOM     43  C43 UNL     1       3.147   2.650   2.436 -0.08 +0.00    +0.139 C 
ATOM     44  O1  UNL     1      13.451   9.651  -0.758+99.99 -0.00    -0.271 OA
ATOM     45  O2  UNL     1      18.433   7.402   0.355+99.99 -0.00    -0.650 OA
ATOM     46  O3  UNL     1      19.665   8.212  -1.334 +6.98 -0.00    -0.776 OA
ATOM     47  O4  UNL     1      14.203   7.701   1.947 +1.01 -0.00    -0.271 OA
ATOM     48  O5  UNL     1      17.907  10.181   4.402 +0.11 -0.00    -0.271 OA
ATOM     49  O6  UNL     1      20.948   8.815   0.827 +6.56 -0.00    -0.271 OA
ATOM     50  O7  UNL     1      24.550   8.762   2.125 +0.03 -0.00    -0.648 OA
ATOM     51  O8  UNL     1      24.728   8.663  -0.102 +0.28 -0.00    -0.775 OA
ATOM     52  O9  UNL     1      11.984   5.324  -1.276 -0.08 -0.00    -0.271 OA
ATOM     53  O10 UNL     1      10.590   7.391   2.149 -0.25 -0.00    -0.271 OA
ATOM     54  O11 UNL     1      10.036   3.635   3.973 -0.26 -0.00    -0.271 OA
ATOM     55  O12 UNL     1       6.356   4.573   3.394 -0.08 -0.00    -0.271 OA
ATOM     56  O13 UNL     1       2.375   3.518   2.064 -0.17 -0.00    -0.650 OA
ATOM     57  O14 UNL     1       3.505   1.665   1.594 +0.07 -0.00    -0.776 OA
ATOM     58  N1  UNL     1      13.919   7.408  -0.794 +0.74 -0.00    -0.346 N 
ATOM     59  N2  UNL     1      16.413   8.225   1.825 -0.21 -0.00    -0.345 N 
ATOM     60  N3  UNL     1      18.967   9.018   2.757 -0.17 -0.00    -0.346 N 
ATOM     61  N4  UNL     1      22.245  10.430   1.800 +1.12 -0.00    -0.345 N 
ATOM     62  N5  UNL     1      26.178  12.086   3.795+99.99 -0.00    -0.372 N 
ATOM     63  H5  UNL     1      26.645  12.987   3.899+99.99 +0.00    +0.161 HD
ATOM     64  N6  UNL     1      27.811  11.140   5.055+99.99 -0.00    -0.279 NA
ATOM     65  N7  UNL     1      26.267   9.750   4.306+68.09 -0.00    -0.279 NA
ATOM     66  N8  UNL     1      10.975   7.216  -0.505 -0.08 -0.00    -0.346 N 
ATOM     67  N9  UNL     1      11.009   5.158   1.847 +2.66 -0.00    -0.346 N 
ATOM     68  N10 UNL     1      13.673   3.701   8.405 -0.05 +0.00    +0.078 N 
ATOM     69  N11 UNL     1      10.189   5.765   4.818 -0.08 -0.00    -0.346 N 
ATOM     70  N12 UNL     1       7.476   3.285   4.941 +0.03 -0.00    -0.346 N 
ATOM     71  N13 UNL     1       7.265   1.145   3.314 +0.56 +0.00    +0.092 N 
ATOM     72  S1  UNL     1      16.481   7.489   5.873+30.89 -0.00    -0.180 SA
ATOM     73  H58 UNL     1      20.298   8.283  -0.570 +1.14 +0.00    +0.167 HD
ATOM     74  H59 UNL     1      25.305   7.927   0.190 +0.12 +0.00    +0.167 HD
ATOM     75  H60 UNL     1       3.023   1.886   0.769 +0.04 +0.00    +0.167 HD
ATOM     76  H61 UNL     1      13.487   6.485  -0.813 +0.03 +0.00    +0.163 HD
ATOM     77  H62 UNL     1      17.249   8.014   1.291 +0.06 +0.00    +0.163 HD
ATOM     78  H63 UNL     1      18.952   8.258   2.081 +0.19 +0.00    +0.163 HD
ATOM     79  H64 UNL     1      22.468  10.870   2.684 +0.33 +0.00    +0.163 HD
ATOM     80  H65 UNL     1      28.031  12.122   5.200+99.99 +0.00    +0.126 HD
ATOM     81  H66 UNL     1      27.732  10.665   5.947 +7.80 +0.00    +0.126 HD
ATOM     82  H67 UNL     1      25.606   9.504   3.570 +0.05 +0.00    +0.126 HD
ATOM     83  H68 UNL     1      27.041   9.098   4.300 -0.17 +0.00    +0.126 HD
ATOM     84  H69 UNL     1      10.702   7.600   0.406 +0.10 +0.00    +0.163 HD
ATOM     85  H70 UNL     1      10.949   4.312   2.415 +2.85 +0.00    +0.163 HD
ATOM     86  H71 UNL     1      12.880   4.338   8.443 +0.26 +0.00    +0.312 HD
ATOM     87  H72 UNL     1      13.311   2.815   8.054 +0.31 +0.00    +0.312 HD
ATOM     88  H73 UNL     1       9.607   6.537   5.120 +0.10 +0.00    +0.163 HD
ATOM     89  H74 UNL     1       7.892   2.355   4.934 -0.50 +0.00    +0.163 HD
ATOM     90  H75 UNL     1       6.953   0.287   2.854 +0.41 +0.00    +0.313 HD
ATOM     91  H76 UNL     1       8.058   1.477   2.759 -0.23 +0.00    +0.313 HD
ATOM     92  H77 UNL     1      17.339   8.521   5.972 +2.39 +0.00    +0.101 HD
ENDROOT
TORSDOF 42
TER
