USER    Run = 1
USER    DPF = ligand_170_receptor.dpf
USER  
USER    Estimated Free Energy of Binding    =  +1.29e+004 kcal/mol  [=(1)+(2)+(3)-(4)]
USER    
USER    (1) Final Intermolecular Energy     =  +1.29e+004 kcal/mol
USER        vdW + Hbond + desolv Energy     =  +1.29e+004 kcal/mol
USER        Electrostatic Energy            =   +0.00 kcal/mol
USER    (2) Final Total Internal Energy     =   +0.00 kcal/mol
USER    (3) Torsional Free Energy           =   +1.19 kcal/mol
USER    (4) Unbound System's Energy  [=(2)] =   +0.00 kcal/mol
USER    
USER    
USER    NEWDPF move ligand_170.pdbqt
USER    NEWDPF about 0.000000 0.000000 0.000000
USER    NEWDPF tran0 17.342119 7.458011 2.332715
USER    NEWDPF quaternion0 0.079071 -0.958941 -0.163216 -0.218038
USER    NEWDPF axisangle0 0.081021 -0.982582 -0.167240 -154.812365
USER    NEWDPF quat0 0.081021 -0.982582 -0.167240 -154.812365
USER  keepresnum = 1 
USER  
REMARK  0 active torsions:
REMARK  status: ('A' for Active; 'I' for Inactive)
REMARK       I    between atoms: C2_2  and  C3_3 
REMARK       I    between atoms: C3_3  and  C5_5 
REMARK       I    between atoms: C5_5  and  C6_6 
REMARK       I    between atoms: C5_5  and  N8_81 
REMARK       I    between atoms: C6_6  and  N1_73 
REMARK       I    between atoms: C7_7  and  C8_8 
REMARK       I    between atoms: C7_7  and  C10_10 
REMARK       I    between atoms: C7_7  and  N1_73 
REMARK       I    between atoms: C8_8  and  C9_9 
REMARK       I    between atoms: C9_9  and  O3_59 
REMARK       I    between atoms: C10_10  and  N2_74 
REMARK       I    between atoms: C11_11  and  C12_12 
REMARK       I    between atoms: C11_11  and  C16_16 
REMARK       I    between atoms: C11_11  and  N2_74 
REMARK       I    between atoms: C12_12  and  C13_13 
REMARK       I    between atoms: C13_13  and  C14_14 
REMARK       I    between atoms: C14_14  and  N3_75 
REMARK       I    between atoms: C15_15  and  N4_77 
REMARK       I    between atoms: C15_15  and  N5_78 
REMARK       I    between atoms: C16_16  and  N6_79 
REMARK       I    between atoms: C17_17  and  C18_18 
REMARK       I    between atoms: C17_17  and  C22_22 
REMARK       I    between atoms: C17_17  and  N6_79 
REMARK       I    between atoms: C18_18  and  C20_20 
REMARK       I    between atoms: C22_22  and  N7_80 
REMARK       I    between atoms: C23_23  and  C24_24 
REMARK       I    between atoms: C23_23  and  C25_25 
REMARK       I    between atoms: C23_23  and  N7_80 
REMARK       I    between atoms: C24_24  and  S1_93 
REMARK       I    between atoms: C26_26  and  C27_27 
REMARK       I    between atoms: C26_26  and  N8_81 
REMARK       I    between atoms: C27_27  and  C28_28 
REMARK       I    between atoms: C27_27  and  N12_86 
REMARK       I    between atoms: C28_28  and  C29_29 
REMARK       I    between atoms: C29_29  and  C30_30 
REMARK       I    between atoms: C30_30  and  N9_82 
REMARK       I    between atoms: C31_31  and  N10_84 
REMARK       I    between atoms: C31_31  and  N11_85 
REMARK       I    between atoms: C32_32  and  C33_33 
REMARK       I    between atoms: C32_32  and  N12_86 
REMARK       I    between atoms: C37_37  and  C38_38 
REMARK       I    between atoms: C37_37  and  N13_87 
REMARK       I    between atoms: C38_38  and  N14_88 
REMARK       I    between atoms: C39_39  and  C40_40 
REMARK       I    between atoms: C39_39  and  N14_88 
REMARK       I    between atoms: C40_40  and  C41_41 
REMARK       I    between atoms: C40_40  and  N15_89 
REMARK       I    between atoms: C41_41  and  C42_42 
REMARK       I    between atoms: C48_48  and  C49_49 
REMARK       I    between atoms: C48_48  and  N15_89 
REMARK       I    between atoms: C49_49  and  C50_50 
REMARK       I    between atoms: C49_49  and  N16_90 
REMARK       I    between atoms: C50_50  and  S2_94 
REMARK       I    between atoms: C51_51  and  C52_52 
REMARK       I    between atoms: C51_51  and  N16_90 
REMARK       I    between atoms: C52_52  and  C53_53 
REMARK       I    between atoms: C52_52  and  N17_91 
REMARK       I    between atoms: C53_53  and  O14_70 
REMARK       I    between atoms: C54_54  and  C55_55 
REMARK       I    between atoms: C54_54  and  N17_91 
REMARK       I    between atoms: C55_55  and  C56_56 
REMARK       I    between atoms: C55_55  and  N18_92 
REMARK       I    between atoms: C56_56  and  O16_72 
USER                              x       y       z     vdW  Elec       q    Type
USER                           _______ _______ _______ _____ _____    ______ ____
ROOT
ATOM      1  C1  UNL     1      20.821  11.770   8.385 -0.51 +0.00    +0.005 C 
ATOM      2  C2  UNL     1      20.387  10.311   8.319 +0.30 +0.00    +0.002 C 
ATOM      3  C3  UNL     1      21.464   9.326   7.802 -0.35 +0.00    +0.013 C 
ATOM      4  C4  UNL     1      22.642   9.294   8.791+17.06 +0.00    +0.012 C 
ATOM      5  C5  UNL     1      21.945   9.634   6.361 +3.75 +0.00    +0.180 C 
ATOM      6  C6  UNL     1      22.787   8.502   5.702+75.48 +0.00    +0.241 C 
ATOM      7  C7  UNL     1      23.554   7.627   3.503+24.16 +0.00    +0.186 C 
ATOM      8  C8  UNL     1      22.489   6.576   3.167+99.99 +0.00    +0.144 C 
ATOM      9  C9  UNL     1      23.060   5.515   2.281+59.51 +0.00    +0.141 C 
ATOM     10  C10 UNL     1      24.126   8.312   2.231 -0.31 +0.00    +0.241 C 
ATOM     11  C11 UNL     1      25.357   7.896   0.139 -0.30 +0.00    +0.176 C 
ATOM     12  C12 UNL     1      26.773   7.501  -0.290 -0.37 +0.00    +0.036 C 
ATOM     13  C13 UNL     1      27.082   6.000  -0.219 -0.36 +0.00    +0.022 C 
ATOM     14  C14 UNL     1      28.538   5.693  -0.573 -0.20 +0.00    +0.121 C 
ATOM     15  C15 UNL     1      29.918   5.781  -2.474 -0.12 +0.00    +0.121 C 
ATOM     16  C16 UNL     1      24.273   7.216  -0.736 -0.38 +0.00    +0.241 C 
ATOM     17  C17 UNL     1      22.433   7.793  -2.327+77.87 +0.00    +0.180 C 
ATOM     18  C18 UNL     1      22.168   6.367  -2.880+99.99 +0.00    +0.013 C 
ATOM     19  C19 UNL     1      20.803   6.285  -3.581+99.99 +0.00    +0.012 C 
ATOM     20  C20 UNL     1      23.299   5.944  -3.850+99.99 +0.00    +0.002 C 
ATOM     21  C21 UNL     1      23.214   4.492  -4.301+99.99 +0.00    +0.005 C 
ATOM     22  C22 UNL     1      21.400   8.270  -1.269 +4.44 +0.00    +0.241 C 
ATOM     23  C23 UNL     1      19.234   9.392  -0.890+16.61 +0.00    +0.155 C 
ATOM     24  C24 UNL     1      19.588  10.736  -0.239 +0.37 +0.00    +0.103 C 
ATOM     25  C25 UNL     1      17.926   9.491  -1.658 +9.23 +0.00    +0.257 C 
ATOM     26  C26 UNL     1      19.810   9.206   5.120+91.60 +0.00    +0.241 C 
ATOM     27  C27 UNL     1      18.847   9.759   4.041 +6.05 +0.00    +0.176 C 
ATOM     28  C28 UNL     1      18.020  10.965   4.507 +8.59 +0.00    +0.036 C 
ATOM     29  C29 UNL     1      18.744  12.303   4.706+99.99 +0.00    +0.022 C 
ATOM     30  C30 UNL     1      19.646  12.733   3.546+99.99 +0.00    +0.121 C 
ATOM     31  C31 UNL     1      21.849  12.317   2.826+99.99 +0.00    +0.121 C 
ATOM     32  C32 UNL     1      17.272   8.546   2.506 -0.40 +0.00    +0.241 C 
ATOM     33  C33 UNL     1      16.319   7.327   2.437 +6.78 +0.00    +0.179 C 
ATOM     34  C34 UNL     1      15.935   6.994   0.992+99.99 +0.00    +0.037 C 
ATOM     35  C35 UNL     1      14.695   7.848   0.752 +6.11 +0.00    +0.022 C 
ATOM     36  C36 UNL     1      13.978   7.784   2.091 +3.61 +0.00    +0.127 C 
ATOM     37  C37 UNL     1      14.913   7.634   4.451 -0.36 +0.00    +0.238 C 
ATOM     38  C38 UNL     1      13.549   7.960   5.084 -0.33 +0.00    +0.225 C 
ATOM     39  C39 UNL     1      12.089   5.966   5.081 -0.25 +0.00    +0.241 C 
ATOM     40  C40 UNL     1      10.901   5.249   4.406 -0.22 +0.00    +0.180 C 
ATOM     41  C41 UNL     1      11.394   4.481   3.167+19.97 +0.00    +0.073 C 
ATOM     42  C42 UNL     1      10.341   3.569   2.579+99.99 -0.00    -0.056 A 
ATOM     43  C43 UNL     1       9.964   2.395   3.246 +3.91 +0.00    +0.007 A 
ATOM     44  C44 UNL     1       8.979   1.564   2.710+36.39 +0.00    +0.001 A 
ATOM     45  C45 UNL     1       8.368   1.894   1.503 -0.25 +0.00    +0.000 A 
ATOM     46  C46 UNL     1       8.742   3.055   0.829 -0.15 +0.00    +0.001 A 
ATOM     47  C47 UNL     1       9.722   3.891   1.364 +5.42 +0.00    +0.007 A 
ATOM     48  C48 UNL     1       9.624   7.051   3.173 -0.25 +0.00    +0.241 C 
ATOM     49  C49 UNL     1       8.227   7.682   2.980 -0.24 +0.00    +0.185 C 
ATOM     50  C50 UNL     1       8.177   8.965   3.818+29.78 +0.00    +0.105 C 
ATOM     51  C51 UNL     1       6.601   5.866   2.481 -0.14 +0.00    +0.243 C 
ATOM     52  C52 UNL     1       5.825   4.683   3.109 -0.11 +0.00    +0.200 C 
ATOM     53  C53 UNL     1       4.737   4.224   2.125 -0.09 +0.00    +0.199 C 
ATOM     54  C54 UNL     1       6.003   4.918   5.591 -0.23 +0.00    +0.253 C 
ATOM     55  C55 UNL     1       5.173   5.059   6.882 -0.28 +0.00    +0.332 C 
ATOM     56  C56 UNL     1       6.087   5.070   8.117 +5.72 +0.00    +0.209 C 
ATOM     57  O1  UNL     1      23.377   7.620   6.318+16.29 -0.00    -0.271 OA
ATOM     58  O2  UNL     1      24.206   5.093   2.337 +6.02 -0.00    -0.650 OA
ATOM     59  O3  UNL     1      22.213   5.145   1.305+10.04 -0.00    -0.776 OA
ATOM     60  O4  UNL     1      23.762   9.431   1.860 -0.28 -0.00    -0.271 OA
ATOM     61  O5  UNL     1      23.893   6.062  -0.534 -0.37 -0.00    -0.271 OA
ATOM     62  O6  UNL     1      21.569   8.156  -0.056 +4.41 -0.00    -0.271 OA
ATOM     63  O7  UNL     1      17.797   9.109  -2.822 +4.18 -0.00    -0.305 OA
ATOM     64  O8  UNL     1      19.657   8.101   5.640+22.42 -0.00    -0.271 OA
ATOM     65  O9  UNL     1      17.386   9.368   1.597 -0.29 -0.00    -0.271 OA
ATOM     66  O10 UNL     1      15.914   7.515   5.163 -0.10 -0.00    -0.272 OA
ATOM     67  O11 UNL     1      12.774   5.397   5.929 -0.29 -0.00    -0.271 OA
ATOM     68  O12 UNL     1      10.621   7.504   2.609 -0.25 -0.00    -0.271 OA
ATOM     69  O13 UNL     1       6.792   5.951   1.267 -0.13 -0.00    -0.271 OA
ATOM     70  O14 UNL     1       5.279   3.579   0.977 -0.02 -0.00    -0.398 OA
ATOM     71  O15 UNL     1       7.230   4.842   5.556 -0.20 -0.00    -0.271 OA
ATOM     72  O16 UNL     1       6.941   6.213   8.109 -0.04 -0.00    -0.398 OA
ATOM     73  N1  UNL     1      22.958   8.673   4.338 +1.52 -0.00    -0.345 N 
ATOM     74  N2  UNL     1      25.071   7.576   1.534 -0.14 -0.00    -0.346 N 
ATOM     75  N3  UNL     1      28.777   6.054  -1.968 -0.08 -0.00    -0.372 N 
ATOM     76  H3  UNL     1      28.053   6.512  -2.523 +0.06 +0.00    +0.161 HD
ATOM     77  N4  UNL     1      30.169   6.076  -3.767 -0.23 -0.00    -0.279 NA
ATOM     78  N5  UNL     1      31.001   5.196  -1.916 +0.00 -0.00    -0.279 NA
ATOM     79  N6  UNL     1      23.760   8.030  -1.733 +0.19 -0.00    -0.346 N 
ATOM     80  N7  UNL     1      20.283   8.889  -1.778+99.99 -0.00    -0.348 N 
ATOM     81  N8  UNL     1      20.879  10.014   5.425+99.99 -0.00    -0.346 N 
ATOM     82  N9  UNL     1      20.980  12.163   3.755+99.99 -0.00    -0.372 N 
ATOM     83  H9  UNL     1      21.210  11.661   4.612+34.26 +0.00    +0.161 HD
ATOM     84  N10 UNL     1      21.732  12.922   1.627+99.99 -0.00    -0.279 NA
ATOM     85  N11 UNL     1      23.104  11.847   2.979+99.99 -0.00    -0.279 NA
ATOM     86  N12 UNL     1      17.946   8.657   3.696 -0.27 -0.00    -0.346 N 
ATOM     87  N13 UNL     1      15.037   7.640   3.077 +0.18 -0.00    -0.337 N 
ATOM     88  N14 UNL     1      12.415   7.205   4.589 -0.15 -0.00    -0.351 N 
ATOM     89  N15 UNL     1       9.713   6.086   4.155 -0.08 -0.00    -0.346 N 
ATOM     90  N16 UNL     1       7.187   6.732   3.375 -0.00 -0.00    -0.345 N 
ATOM     91  N17 UNL     1       5.250   4.963   4.433 -0.05 -0.00    -0.344 N 
ATOM     92  N18 UNL     1       4.191   3.955   6.952 -0.37 +0.00    +0.094 N 
ATOM     93  S1  UNL     1      19.980  12.052  -1.448 +6.62 -0.00    -0.180 SA
ATOM     94  S2  UNL     1       6.585   9.844   3.661+99.99 -0.00    -0.180 SA
ATOM     95  H68 UNL     1      22.805   4.895   0.554 +0.11 +0.00    +0.167 HD
ATOM     96  H69 UNL     1       5.866   4.232   0.540 +0.07 +0.00    +0.209 HD
ATOM     97  H70 UNL     1       7.710   5.977   7.557 +0.13 +0.00    +0.209 HD
ATOM     98  H71 UNL     1      22.308   9.299   3.874 +0.12 +0.00    +0.163 HD
ATOM     99  H72 UNL     1      25.157   6.590   1.784 +0.12 +0.00    +0.163 HD
ATOM    100  H73 UNL     1      29.305   6.353  -4.223 +0.03 +0.00    +0.126 HD
ATOM    101  H74 UNL     1      30.590   5.298  -4.259 +0.03 +0.00    +0.126 HD
ATOM    102  H75 UNL     1      30.979   5.159  -0.905 +0.04 +0.00    +0.126 HD
ATOM    103  H76 UNL     1      31.867   5.606  -2.243 +0.02 +0.00    +0.126 HD
ATOM    104  H77 UNL     1      23.998   9.010  -1.641 +0.13 +0.00    +0.163 HD
ATOM    105  H78 UNL     1      20.049   8.830  -2.766+99.99 +0.00    +0.163 HD
ATOM    106  H79 UNL     1      20.977  10.901   4.922+99.99 +0.00    +0.163 HD
ATOM    107  H80 UNL     1      22.599  13.349   1.321+99.99 +0.00    +0.126 HD
ATOM    108  H81 UNL     1      20.948  13.552   1.519 +3.66 +0.00    +0.126 HD
ATOM    109  H82 UNL     1      23.230  11.348   3.852 +0.08 +0.00    +0.126 HD
ATOM    110  H83 UNL     1      23.377  11.202   2.228 +6.00 +0.00    +0.126 HD
ATOM    111  H84 UNL     1      17.648   8.053   4.470 +0.10 +0.00    +0.163 HD
ATOM    112  H85 UNL     1      11.893   7.554   3.788 +0.10 +0.00    +0.163 HD
ATOM    113  H86 UNL     1       8.842   5.621   4.397 +0.09 +0.00    +0.163 HD
ATOM    114  H87 UNL     1       7.084   6.536   4.362 +0.08 +0.00    +0.163 HD
ATOM    115  H88 UNL     1       4.310   5.339   4.484 +0.06 +0.00    +0.163 HD
ATOM    116  H89 UNL     1       4.685   3.069   7.079 +0.12 +0.00    +0.314 HD
ATOM    117  H90 UNL     1       3.692   3.869   6.069 +0.13 +0.00    +0.314 HD
ATOM    118  H91 UNL     1      21.046  11.437  -1.979+14.50 +0.00    +0.101 HD
ATOM    119  H92 UNL     1       6.650  10.051   2.337+55.93 +0.00    +0.101 HD
ENDROOT
TORSDOF 48
TER
