USER    Run = 1
USER    DPF = ligand_498_receptor.dpf
USER  
USER    Estimated Free Energy of Binding    = +881.65 kcal/mol  [=(1)+(2)+(3)-(4)]
USER    
USER    (1) Final Intermolecular Energy     = +880.45 kcal/mol
USER        vdW + Hbond + desolv Energy     = +880.45 kcal/mol
USER        Electrostatic Energy            =   +0.00 kcal/mol
USER    (2) Final Total Internal Energy     =   -1.12 kcal/mol
USER    (3) Torsional Free Energy           =   +1.19 kcal/mol
USER    (4) Unbound System's Energy  [=(2)] =   -1.12 kcal/mol
USER    
USER    
USER    NEWDPF move ligand_498.pdbqt
USER    NEWDPF about 0.000000 0.000000 0.000000
USER    NEWDPF tran0 15.559652 -0.538442 1.297571
USER    NEWDPF quaternion0 0.506786 0.300009 -0.220251 0.777594
USER    NEWDPF axisangle0 0.806000 0.477138 -0.350290 77.918431
USER    NEWDPF quat0 0.806000 0.477138 -0.350290 77.918431
USER    NEWDPF dihe0 180.00 69.44 -135.34 109.79 180.00 -179.93 -174.45 -17.38 118.18 -90.10 -59.67 -53.66 -30.52 -160.10 175.88 -54.93 112.79 
USER  keepresnum = 1 
USER  
REMARK  17 active torsions:
REMARK  status: ('A' for Active; 'I' for Inactive)
REMARK    1  A    between atoms: C4_4  and  C5_5 
REMARK       I    between atoms: C5_5  and  N3_44 
REMARK    2  A    between atoms: C6_6  and  N3_44 
REMARK    3  A    between atoms: C8_8  and  C10_10 
REMARK       I    between atoms: C10_10  and  N5_46 
REMARK    4  A    between atoms: C11_11  and  N5_46 
REMARK    5  A    between atoms: C13_13  and  C15_15 
REMARK       I    between atoms: C15_15  and  N7_48 
REMARK    6  A    between atoms: C16_16  and  C17_17 
REMARK    7  A    between atoms: C16_16  and  N7_48 
REMARK       I    between atoms: C17_17  and  N8_49 
REMARK    8  A    between atoms: C18_18  and  N8_49 
REMARK    9  A    between atoms: C20_20  and  C22_22 
REMARK       I    between atoms: C22_22  and  N10_51 
REMARK   10  A    between atoms: C23_23  and  N10_51 
REMARK   11  A    between atoms: C25_25  and  C27_27 
REMARK       I    between atoms: C27_27  and  N12_53 
REMARK   12  A    between atoms: C28_28  and  N12_53 
REMARK   13  A    between atoms: C30_30  and  C32_32 
REMARK       I    between atoms: C32_32  and  N14_55 
REMARK   14  A    between atoms: C33_33  and  C34_34 
REMARK   15  A    between atoms: C33_33  and  N14_55 
REMARK   16  A    between atoms: C34_34  and  C35_35 
REMARK   17  A    between atoms: C35_35  and  N15_56 
USER                              x       y       z     vdW  Elec       q    Type
USER                           _______ _______ _______ _____ _____    ______ ____
ROOT
ATOM      1  C18 UNL     1      15.198   0.458  -1.324 +6.59 +0.00    +0.052 A 
ATOM      2  C19 UNL     1      16.091  -0.507  -0.935 +4.18 +0.00    +0.120 A 
ATOM      3  C20 UNL     1      17.040   1.492  -0.451+99.99 +0.00    +0.105 A 
ATOM      4  C21 UNL     1      15.787   1.707  -1.021 +4.77 +0.00    +0.066 A 
ATOM      5  C38 UNL     1      18.349  -0.595   0.107+20.80 +0.00    +0.156 C 
ATOM      6  N9  UNL     1      17.195   0.115  -0.407+27.63 -0.00    -0.354 N 
ENDROOT
BRANCH   1   7
ATOM      7  N8  UNL     1      13.978   0.162  -1.894 +1.75 -0.00    -0.324 N 
ATOM      8  C17 UNL     1      13.794  -0.396  -3.145+10.23 +0.00    +0.239 C 
ATOM      9  O4  UNL     1      14.682  -0.740  -3.925+39.09 -0.00    -0.271 OA
ATOM     10  H42 UNL     1      13.147   0.402  -1.352 -0.20 +0.00    +0.169 HD
BRANCH   8  11
ATOM     11  C16 UNL     1      12.318  -0.604  -3.498 +4.40 +0.00    +0.226 C 
BRANCH  11  12
ATOM     12  N7  UNL     1      11.427   0.045  -2.551 -0.25 -0.00    -0.347 N 
ATOM     13  C15 UNL     1      10.953   1.317  -2.768 +0.08 +0.00    +0.268 C 
ATOM     14  O3  UNL     1      11.183   1.914  -3.818 +9.67 -0.00    -0.266 OA
ATOM     15  H41 UNL     1      11.405  -0.314  -1.606 +0.08 +0.00    +0.163 HD
BRANCH  13  16
ATOM     16  C13 UNL     1      10.209   1.887  -1.669 -0.19 +0.00    +0.104 A 
ATOM     17  C14 UNL     1      10.630   2.916  -0.838 -0.04 +0.00    +0.066 A 
ATOM     18  C11 UNL     1       9.624   3.161   0.126 +0.21 +0.00    +0.053 A 
ATOM     19  C12 UNL     1       8.587   2.308  -0.164 -0.09 +0.00    +0.120 A 
ATOM     20  N6  UNL     1       8.926   1.570  -1.270 -0.01 -0.00    -0.354 N 
ATOM     21  C39 UNL     1       8.008   0.675  -1.943 -0.13 +0.00    +0.156 C 
BRANCH  18  22
ATOM     22  N5  UNL     1       9.701   4.101   1.135 +1.00 -0.00    -0.320 N 
ATOM     23  C10 UNL     1       8.794   5.117   1.368 -0.07 +0.00    +0.273 C 
ATOM     24  O2  UNL     1       7.735   5.279   0.772 -0.08 -0.00    -0.266 OA
ATOM     25  H40 UNL     1      10.448   3.977   1.803 +3.79 +0.00    +0.169 HD
BRANCH  23  26
ATOM     26  C8  UNL     1       9.192   5.982   2.466 -0.18 +0.00    +0.105 A 
ATOM     27  C9  UNL     1      10.166   5.716   3.418 -0.21 +0.00    +0.066 A 
ATOM     28  C6  UNL     1      10.259   6.827   4.291 -0.29 +0.00    +0.053 A 
ATOM     29  C7  UNL     1       9.310   7.732   3.881 -0.14 +0.00    +0.120 A 
ATOM     30  N4  UNL     1       8.638   7.199   2.810 -0.16 -0.00    -0.354 N 
ATOM     31  C40 UNL     1       7.468   7.809   2.213 -0.31 +0.00    +0.156 C 
BRANCH  28  32
ATOM     32  N3  UNL     1      11.139   6.934   5.345 -0.13 -0.00    -0.319 N 
ATOM     33  C5  UNL     1      12.148   6.050   5.675 -0.23 +0.00    +0.290 C 
ATOM     34  O1  UNL     1      12.418   5.012   5.077 -0.19 -0.00    -0.264 OA
ATOM     35  H39 UNL     1      11.060   7.744   5.954 +0.12 +0.00    +0.169 HD
BRANCH  33  36
ATOM     36  C4  UNL     1      12.881   6.499   6.854 -0.30 +0.00    +0.176 A 
ATOM     37  N1  UNL     1      12.642   7.635   7.594 -0.17 -0.00    -0.342 N 
ATOM     38  C1  UNL     1      11.611   8.613   7.348 +0.77 +0.00    +0.157 C 
ATOM     39  C2  UNL     1      13.556   7.678   8.611 -0.43 +0.00    +0.109 A 
ATOM     40  C3  UNL     1      14.326   6.551   8.449 -0.51 +0.00    +0.107 A 
ATOM     41  N2  UNL     1      13.906   5.827   7.364 -0.29 -0.00    -0.346 N 
ATOM     42  H2  UNL     1      14.301   4.952   7.019 +0.10 +0.00    +0.167 HD
ENDBRANCH  33  36
ENDBRANCH  28  32
ENDBRANCH  23  26
ENDBRANCH  18  22
ENDBRANCH  13  16
ENDBRANCH  11  12
ENDBRANCH   8  11
ENDBRANCH   1   7
BRANCH   3  43
ATOM     43  C22 UNL     1      18.032   2.453   0.031+99.99 +0.00    +0.273 C 
ATOM     44  N10 UNL     1      19.281   1.911   0.272 +3.71 -0.00    -0.320 N 
ATOM     45  H43 UNL     1      19.416   0.922   0.124 +0.05 +0.00    +0.169 HD
ATOM     46  O5  UNL     1      17.756   3.638   0.206+99.99 -0.00    -0.266 OA
BRANCH  44  47
ATOM     47  C23 UNL     1      20.385   2.608   0.723+41.26 +0.00    +0.053 A 
ATOM     48  C24 UNL     1      21.099   2.232   1.834+24.96 +0.00    +0.120 A 
ATOM     49  N11 UNL     1      22.124   3.128   2.012 +0.12 -0.00    -0.354 N 
ATOM     50  C25 UNL     1      22.100   4.092   1.017+12.52 +0.00    +0.105 A 
ATOM     51  C37 UNL     1      23.089   3.042   3.090 +4.54 +0.00    +0.156 C 
ATOM     52  C26 UNL     1      21.007   3.772   0.215+99.99 +0.00    +0.066 A 
BRANCH  50  53
ATOM     53  C27 UNL     1      23.055   5.195   0.911 +0.09 +0.00    +0.273 C 
ATOM     54  N12 UNL     1      24.266   4.841   0.340 -0.33 -0.00    -0.320 N 
ATOM     55  H44 UNL     1      24.410   3.877   0.082 +0.10 +0.00    +0.169 HD
ATOM     56  O6  UNL     1      22.783   6.326   1.310 +1.39 -0.00    -0.266 OA
BRANCH  54  57
ATOM     57  C28 UNL     1      25.338   5.683   0.113 -0.42 +0.00    +0.053 A 
ATOM     58  C29 UNL     1      25.356   7.056   0.073 -0.32 +0.00    +0.120 A 
ATOM     59  N13 UNL     1      26.645   7.468  -0.155 -0.14 -0.00    -0.354 N 
ATOM     60  C30 UNL     1      27.463   6.372  -0.341 -0.25 +0.00    +0.104 A 
ATOM     61  C36 UNL     1      27.060   8.854  -0.103 +1.18 +0.00    +0.156 C 
ATOM     62  C31 UNL     1      26.666   5.256  -0.123 -0.32 +0.00    +0.066 A 
BRANCH  60  63
ATOM     63  C32 UNL     1      28.879   6.367  -0.644 -0.13 +0.00    +0.268 C 
ATOM     64  N14 UNL     1      29.609   5.442   0.074 -0.04 -0.00    -0.356 N 
ATOM     65  H45 UNL     1      29.166   5.034   0.885 +0.08 +0.00    +0.162 HD
ATOM     66  O7  UNL     1      29.403   7.157  -1.422 -0.16 -0.00    -0.266 OA
BRANCH  64  67
ATOM     67  C33 UNL     1      31.056   5.395  -0.008 -0.09 +0.00    +0.125 C 
BRANCH  67  68
ATOM     68  C34 UNL     1      31.624   4.154   0.677 -0.16 +0.00    +0.049 C 
BRANCH  68  69
ATOM     69  C35 UNL     1      30.799   2.916   0.332 -0.15 +0.00    +0.268 C 
BRANCH  69  70
ATOM     70  N15 UNL     1      30.057   2.431   1.491 -0.42 +0.00    +0.078 N 
ATOM     71  H46 UNL     1      30.280   1.451   1.660 +0.21 +0.00    +0.312 HD
ATOM     72  H47 UNL     1      29.057   2.456   1.287 +0.18 +0.00    +0.312 HD
ENDBRANCH  69  70
ENDBRANCH  68  69
ENDBRANCH  67  68
ENDBRANCH  64  67
ENDBRANCH  60  63
ENDBRANCH  54  57
ENDBRANCH  50  53
ENDBRANCH  44  47
ENDBRANCH   3  43
TORSDOF 17
TER
