USER    Run = 1
USER    DPF = ligand_515_receptor.dpf
USER  
USER    Estimated Free Energy of Binding    =  +1.68e+005 kcal/mol  [=(1)+(2)+(3)-(4)]
USER    
USER    (1) Final Intermolecular Energy     =  +1.68e+005 kcal/mol
USER        vdW + Hbond + desolv Energy     =  +1.68e+005 kcal/mol
USER        Electrostatic Energy            =   +0.00 kcal/mol
USER    (2) Final Total Internal Energy     =   +0.00 kcal/mol
USER    (3) Torsional Free Energy           =   +1.19 kcal/mol
USER    (4) Unbound System's Energy  [=(2)] =   +0.00 kcal/mol
USER    
USER    
USER    NEWDPF move ligand_515.pdbqt
USER    NEWDPF about 0.000000 0.000000 0.000000
USER    NEWDPF tran0 16.859792 5.938000 3.750678
USER    NEWDPF quaternion0 0.970773 0.015373 0.075809 0.227192
USER    NEWDPF axisangle0 0.996841 0.015786 0.077844 153.736392
USER    NEWDPF quat0 0.996841 0.015786 0.077844 153.736392
USER  keepresnum = 1 
USER  
REMARK  0 active torsions:
REMARK  status: ('A' for Active; 'I' for Inactive)
REMARK       I    between atoms: C2_2  and  C3_3 
REMARK       I    between atoms: C2_2  and  N17_91 
REMARK       I    between atoms: C3_3  and  N1_72 
REMARK       I    between atoms: C4_4  and  C5_5 
REMARK       I    between atoms: C4_4  and  C8_8 
REMARK       I    between atoms: C4_4  and  N1_72 
REMARK       I    between atoms: C8_8  and  N2_73 
REMARK       I    between atoms: C9_9  and  C10_10 
REMARK       I    between atoms: C9_9  and  C14_14 
REMARK       I    between atoms: C9_9  and  N2_73 
REMARK       I    between atoms: C10_10  and  C11_11 
REMARK       I    between atoms: C11_11  and  C12_12 
REMARK       I    between atoms: C12_12  and  N3_74 
REMARK       I    between atoms: C13_13  and  N4_76 
REMARK       I    between atoms: C13_13  and  N5_77 
REMARK       I    between atoms: C14_14  and  N6_78 
REMARK       I    between atoms: C15_15  and  C16_16 
REMARK       I    between atoms: C15_15  and  C20_20 
REMARK       I    between atoms: C15_15  and  N6_78 
REMARK       I    between atoms: C16_16  and  C17_17 
REMARK       I    between atoms: C17_17  and  C18_18 
REMARK       I    between atoms: C18_18  and  N7_79 
REMARK       I    between atoms: C19_19  and  N8_81 
REMARK       I    between atoms: C19_19  and  N9_82 
REMARK       I    between atoms: C20_20  and  N10_83 
REMARK       I    between atoms: C21_21  and  C22_22 
REMARK       I    between atoms: C21_21  and  C23_23 
REMARK       I    between atoms: C21_21  and  N10_83 
REMARK       I    between atoms: C22_22  and  O5_60 
REMARK       I    between atoms: C23_23  and  N11_84 
REMARK       I    between atoms: C24_24  and  C25_25 
REMARK       I    between atoms: C24_24  and  C27_27 
REMARK       I    between atoms: C24_24  and  N11_84 
REMARK       I    between atoms: C25_25  and  C26_26 
REMARK       I    between atoms: C26_26  and  O8_63 
REMARK       I    between atoms: C27_27  and  N12_85 
REMARK       I    between atoms: C28_28  and  C29_29 
REMARK       I    between atoms: C28_28  and  C33_33 
REMARK       I    between atoms: C28_28  and  N12_85 
REMARK       I    between atoms: C29_29  and  C30_30 
REMARK       I    between atoms: C30_30  and  C31_31 
REMARK       I    between atoms: C31_31  and  N13_86 
REMARK       I    between atoms: C32_32  and  N14_88 
REMARK       I    between atoms: C32_32  and  N15_89 
REMARK       I    between atoms: C33_33  and  N16_90 
REMARK       I    between atoms: C34_34  and  C36_36 
REMARK       I    between atoms: C34_34  and  N16_90 
REMARK       I    between atoms: C36_36  and  O12_67 
REMARK       I    between atoms: C37_37  and  C38_38 
REMARK       I    between atoms: C37_37  and  N17_91 
REMARK       I    between atoms: C42_42  and  C43_43 
REMARK       I    between atoms: C42_42  and  N18_92 
REMARK       I    between atoms: C43_43  and  N19_93 
REMARK       I    between atoms: C45_45  and  C46_46 
REMARK       I    between atoms: C45_45  and  N19_93 
REMARK       I    between atoms: C50_50  and  C51_51 
REMARK       I    between atoms: C50_50  and  N20_94 
REMARK       I    between atoms: C51_51  and  C52_52 
REMARK       I    between atoms: C51_51  and  N24_99 
REMARK       I    between atoms: C52_52  and  C53_53 
REMARK       I    between atoms: C53_53  and  C54_54 
REMARK       I    between atoms: C54_54  and  N21_95 
REMARK       I    between atoms: C55_55  and  N22_97 
REMARK       I    between atoms: C55_55  and  N23_98 
USER                              x       y       z     vdW  Elec       q    Type
USER                           _______ _______ _______ _____ _____    ______ ____
ROOT
ATOM      1  C1  UNL     1      18.906   4.743   3.687+99.99 +0.00    +0.042 C 
ATOM      2  C2  UNL     1      20.017   4.319   4.643+24.11 +0.00    +0.172 C 
ATOM      3  C3  UNL     1      19.358   3.797   5.936+99.99 +0.00    +0.240 C 
ATOM      4  C4  UNL     1      18.709   1.706   7.155+41.98 +0.00    +0.180 C 
ATOM      5  C5  UNL     1      19.818   1.559   8.225+19.40 +0.00    +0.009 C 
ATOM      6  C6  UNL     1      20.091   2.813   9.057+99.99 +0.00    +0.012 C 
ATOM      7  C7  UNL     1      19.541   0.372   9.158+99.99 +0.00    +0.012 C 
ATOM      8  C8  UNL     1      17.314   2.173   7.656+99.99 +0.00    +0.241 C 
ATOM      9  C9  UNL     1      15.187   3.192   6.902+30.74 +0.00    +0.176 C 
ATOM     10  C10 UNL     1      15.413   4.666   7.264+23.62 +0.00    +0.036 C 
ATOM     11  C11 UNL     1      14.239   5.377   7.936 -0.67 +0.00    +0.022 C 
ATOM     12  C12 UNL     1      13.935   4.871   9.346+67.24 +0.00    +0.121 C 
ATOM     13  C13 UNL     1      13.303   2.629   9.816 +6.01 +0.00    +0.121 C 
ATOM     14  C14 UNL     1      14.335   3.054   5.630+99.99 +0.00    +0.241 C 
ATOM     15  C15 UNL     1      12.064   2.661   4.757 +4.13 +0.00    +0.176 C 
ATOM     16  C16 UNL     1      11.175   1.403   4.726+36.75 +0.00    +0.036 C 
ATOM     17  C17 UNL     1      10.490   0.942   6.021+99.99 +0.00    +0.022 C 
ATOM     18  C18 UNL     1       9.234   1.730   6.391+99.99 +0.00    +0.121 C 
ATOM     19  C19 UNL     1       9.870   3.403   7.946 -0.41 +0.00    +0.121 C 
ATOM     20  C20 UNL     1      11.367   4.046   4.709 -0.05 +0.00    +0.241 C 
ATOM     21  C21 UNL     1       9.784   5.506   3.457 -0.17 +0.00    +0.200 C 
ATOM     22  C22 UNL     1       8.852   5.828   4.631 -0.17 +0.00    +0.199 C 
ATOM     23  C23 UNL     1      10.694   6.718   3.138 -0.24 +0.00    +0.243 C 
ATOM     24  C24 UNL     1      13.014   7.352   2.411 +0.02 +0.00    +0.186 C 
ATOM     25  C25 UNL     1      14.375   6.747   2.744+38.63 +0.00    +0.144 C 
ATOM     26  C26 UNL     1      15.453   7.784   2.633 +1.38 +0.00    +0.141 C 
ATOM     27  C27 UNL     1      12.925   7.739   0.921+27.40 +0.00    +0.241 C 
ATOM     28  C28 UNL     1      11.496   8.890  -0.753+99.99 +0.00    +0.176 C 
ATOM     29  C29 UNL     1      10.957   7.736  -1.621 +0.18 +0.00    +0.036 C 
ATOM     30  C30 UNL     1       9.856   6.882  -0.976 -0.34 +0.00    +0.022 C 
ATOM     31  C31 UNL     1       8.452   7.480  -1.066 -0.34 +0.00    +0.121 C 
ATOM     32  C32 UNL     1       7.436   7.432   1.069 -0.39 +0.00    +0.121 C 
ATOM     33  C33 UNL     1      10.527  10.084  -0.700+99.99 +0.00    +0.241 C 
ATOM     34  C34 UNL     1       9.484  11.897  -2.020+99.99 +0.00    +0.178 C 
ATOM     35  C35 UNL     1      10.073  13.074  -2.783+99.99 +0.00    +0.043 C 
ATOM     36  C36 UNL     1       8.270  11.359  -2.786+99.99 +0.00    +0.163 C 
ATOM     37  C37 UNL     1      22.111   3.030   4.553+81.36 +0.00    +0.241 C 
ATOM     38  C38 UNL     1      23.129   2.435   3.549+29.65 +0.00    +0.179 C 
ATOM     39  C39 UNL     1      24.422   1.975   4.220+99.99 +0.00    +0.037 C 
ATOM     40  C40 UNL     1      25.261   3.245   4.268+99.99 +0.00    +0.022 C 
ATOM     41  C41 UNL     1      24.902   3.959   2.970+63.14 +0.00    +0.127 C 
ATOM     42  C42 UNL     1      22.785   3.855   1.554 +0.34 +0.00    +0.243 C 
ATOM     43  C43 UNL     1      23.247   4.946   0.558 -0.21 +0.00    +0.172 C 
ATOM     44  C44 UNL     1      24.207   4.350  -0.464 -0.20 +0.00    +0.042 C 
ATOM     45  C45 UNL     1      23.019   6.987   1.917 +1.74 +0.00    +0.241 C 
ATOM     46  C46 UNL     1      23.722   8.256   2.469 -0.29 +0.00    +0.179 C 
ATOM     47  C47 UNL     1      22.684   9.314   2.861 -0.53 +0.00    +0.037 C 
ATOM     48  C48 UNL     1      22.409  10.014   1.535 -0.16 +0.00    +0.022 C 
ATOM     49  C49 UNL     1      23.783  10.069   0.885 +0.21 +0.00    +0.127 C 
ATOM     50  C50 UNL     1      25.884   8.863   1.197 -0.24 +0.00    +0.253 C 
ATOM     51  C51 UNL     1      26.706   7.769   1.918 -0.30 +0.00    +0.309 C 
ATOM     52  C52 UNL     1      28.174   8.183   2.110 -0.39 +0.00    +0.047 C 
ATOM     53  C53 UNL     1      28.383   9.448   2.955+51.37 +0.00    +0.022 C 
ATOM     54  C54 UNL     1      27.704   9.396   4.322+99.99 +0.00    +0.121 C 
ATOM     55  C55 UNL     1      27.676  11.653   5.061+99.99 +0.00    +0.121 C 
ATOM     56  O1  UNL     1      18.896   4.553   6.786+93.77 -0.00    -0.271 OA
ATOM     57  O2  UNL     1      16.923   2.076   8.818+99.99 -0.00    -0.271 OA
ATOM     58  O3  UNL     1      14.794   3.265   4.508+99.99 -0.00    -0.271 OA
ATOM     59  O4  UNL     1      11.614   4.951   5.508 -0.23 -0.00    -0.271 OA
ATOM     60  O5  UNL     1       8.065   4.688   4.984 -0.10 -0.00    -0.398 OA
ATOM     61  O6  UNL     1      10.303   7.885   3.173 -0.31 -0.00    -0.271 OA
ATOM     62  O7  UNL     1      15.312   8.995   2.634 +0.02 -0.00    -0.650 OA
ATOM     63  O8  UNL     1      16.681   7.235   2.572 +0.04 -0.00    -0.776 OA
ATOM     64  O9  UNL     1      13.759   7.406   0.083 -0.11 -0.00    -0.271 OA
ATOM     65  O10 UNL     1       9.803  10.296   0.273+99.99 -0.00    -0.271 OA
ATOM     66  O11 UNL     1       7.236  11.967  -3.015+99.99 -0.00    -0.648 OA
ATOM     67  O12 UNL     1       8.440  10.112  -3.284+99.99 -0.00    -0.775 OA
ATOM     68  O13 UNL     1      22.364   3.230   5.738+99.99 -0.00    -0.271 OA
ATOM     69  O14 UNL     1      21.730   3.241   1.339 +1.91 -0.00    -0.271 OA
ATOM     70  O15 UNL     1      21.864   6.688   2.219+99.99 -0.00    -0.271 OA
ATOM     71  O16 UNL     1      26.418   9.590   0.356 +3.33 -0.00    -0.271 OA
ATOM     72  N1  UNL     1      19.147   2.431   5.954+99.99 -0.00    -0.346 N 
ATOM     73  N2  UNL     1      16.467   2.549   6.629+99.99 -0.00    -0.346 N 
ATOM     74  N3  UNL     1      13.003   3.750   9.276 +1.64 -0.00    -0.372 N 
ATOM     75  H3  UNL     1      12.110   3.859   8.796 +0.12 +0.00    +0.161 HD
ATOM     76  N4  UNL     1      12.404   1.621   9.791+99.99 -0.00    -0.279 NA
ATOM     77  N5  UNL     1      14.433   2.214  10.430+18.83 -0.00    -0.279 NA
ATOM     78  N6  UNL     1      13.031   2.645   5.850+55.24 -0.00    -0.346 N 
ATOM     79  N7  UNL     1       9.629   3.082   6.733 -0.15 -0.00    -0.372 N 
ATOM     80  H7  UNL     1       9.716   3.784   5.998 +0.10 +0.00    +0.161 HD
ATOM     81  N8  UNL     1       9.703   2.699   9.090+12.44 -0.00    -0.279 NA
ATOM     82  N9  UNL     1      10.432   4.598   8.219 -0.23 -0.00    -0.279 NA
ATOM     83  N10 UNL     1      10.538   4.249   3.622 +0.18 -0.00    -0.344 N 
ATOM     84  N11 UNL     1      11.953   6.381   2.690 -0.16 -0.00    -0.345 N 
ATOM     85  N12 UNL     1      11.809   8.477   0.605+99.99 -0.00    -0.346 N 
ATOM     86  N13 UNL     1       7.613   6.848  -0.055 -0.14 -0.00    -0.372 N 
ATOM     87  H13 UNL     1       7.171   5.948  -0.242 -0.05 +0.00    +0.161 HD
ATOM     88  N14 UNL     1       6.683   6.825   2.011 -0.19 -0.00    -0.279 NA
ATOM     89  N15 UNL     1       7.877   8.617   1.544 +5.08 -0.00    -0.279 NA
ATOM     90  N16 UNL     1      10.506  10.864  -1.838 +2.73 -0.00    -0.345 N 
ATOM     91  N17 UNL     1      20.874   3.317   4.000 +0.16 -0.00    -0.346 N 
ATOM     92  N18 UNL     1      23.568   3.490   2.627 +3.33 -0.00    -0.337 N 
ATOM     93  N19 UNL     1      23.811   6.130   1.189 -0.17 -0.00    -0.346 N 
ATOM     94  N20 UNL     1      24.536   8.964   1.467 -0.17 -0.00    -0.337 N 
ATOM     95  N21 UNL     1      28.181  10.486   5.165+61.74 -0.00    -0.372 N 
ATOM     96  H21 UNL     1      28.924  10.315   5.843 +3.29 +0.00    +0.161 HD
ATOM     97  N22 UNL     1      28.130  12.651   5.849+99.99 -0.00    -0.279 NA
ATOM     98  N23 UNL     1      26.711  12.125   4.242+99.99 -0.00    -0.279 NA
ATOM     99  N24 UNL     1      26.641   6.543   1.082 -0.27 +0.00    +0.092 N 
ATOM    100  H69 UNL     1       8.608   4.182   5.631 +0.12 +0.00    +0.209 HD
ATOM    101  H70 UNL     1      17.291   7.999   2.498 +0.09 +0.00    +0.167 HD
ATOM    102  H71 UNL     1       7.577   9.917  -3.709+99.99 +0.00    +0.167 HD
ATOM    103  H72 UNL     1      19.738   1.925   5.303+99.99 +0.00    +0.163 HD
ATOM    104  H73 UNL     1      16.897   2.758   5.733+63.71 +0.00    +0.163 HD
ATOM    105  H74 UNL     1      11.488   1.964   9.490+95.88 +0.00    +0.126 HD
ATOM    106  H75 UNL     1      12.324   1.160  10.688 +4.24 +0.00    +0.126 HD
ATOM    107  H76 UNL     1      14.618   1.232  10.260 +0.76 +0.00    +0.126 HD
ATOM    108  H77 UNL     1      15.277   2.713  10.149+17.50 +0.00    +0.126 HD
ATOM    109  H78 UNL     1      12.657   2.821   6.781 +0.50 +0.00    +0.163 HD
ATOM    110  H79 UNL     1       9.518   3.336   9.861 +0.82 +0.00    +0.126 HD
ATOM    111  H80 UNL     1       8.961   2.013   9.030 +0.07 +0.00    +0.126 HD
ATOM    112  H81 UNL     1      11.275   4.479   8.793 +0.09 +0.00    +0.126 HD
ATOM    113  H82 UNL     1      10.745   5.037   7.348 +0.09 +0.00    +0.126 HD
ATOM    114  H83 UNL     1      10.082   3.433   3.236 -0.34 +0.00    +0.163 HD
ATOM    115  H84 UNL     1      12.149   5.394   2.562 -0.11 +0.00    +0.163 HD
ATOM    116  H85 UNL     1      11.126   8.668   1.341 +6.01 +0.00    +0.163 HD
ATOM    117  H86 UNL     1       6.067   7.474   2.483 +0.05 +0.00    +0.126 HD
ATOM    118  H87 UNL     1       6.165   6.053   1.607 +0.05 +0.00    +0.126 HD
ATOM    119  H88 UNL     1       8.273   8.544   2.480 +0.05 +0.00    +0.126 HD
ATOM    120  H89 UNL     1       8.549   9.128   0.973 +3.34 +0.00    +0.126 HD
ATOM    121  H90 UNL     1      10.865  10.444  -2.687 -0.31 +0.00    +0.163 HD
ATOM    122  H91 UNL     1      20.876   3.337   2.977 +0.31 +0.00    +0.163 HD
ATOM    123  H92 UNL     1      24.782   6.379   0.991 +0.13 +0.00    +0.163 HD
ATOM    124  H93 UNL     1      28.960  12.340   6.347 +0.67 +0.00    +0.126 HD
ATOM    125  H94 UNL     1      28.333  13.492   5.322+18.65 +0.00    +0.126 HD
ATOM    126  H95 UNL     1      26.170  11.422   3.759 +0.50 +0.00    +0.126 HD
ATOM    127  H96 UNL     1      26.114  12.805   4.698+99.99 +0.00    +0.126 HD
ATOM    128  H97 UNL     1      27.004   6.798   0.155 +0.20 +0.00    +0.313 HD
ATOM    129  H98 UNL     1      27.331   5.877   1.439 +0.26 +0.00    +0.313 HD
ENDROOT
TORSDOF 45
TER
