USER    Run = 1
USER    DPF = ligand_308_receptor.dpf
USER  
USER    Estimated Free Energy of Binding    =  +3.63e+004 kcal/mol  [=(1)+(2)+(3)-(4)]
USER    
USER    (1) Final Intermolecular Energy     =  +3.63e+004 kcal/mol
USER        vdW + Hbond + desolv Energy     =  +3.63e+004 kcal/mol
USER        Electrostatic Energy            =   +0.00 kcal/mol
USER    (2) Final Total Internal Energy     =   +0.00 kcal/mol
USER    (3) Torsional Free Energy           =   +1.19 kcal/mol
USER    (4) Unbound System's Energy  [=(2)] =   +0.00 kcal/mol
USER    
USER    
USER    NEWDPF move ligand_308.pdbqt
USER    NEWDPF about 0.000000 0.000000 0.000000
USER    NEWDPF tran0 17.890438 8.326178 2.207021
USER    NEWDPF quaternion0 -0.090913 -0.647269 -0.743665 -0.140498
USER    NEWDPF axisangle0 -0.091824 -0.653754 -0.751116 -163.846704
USER    NEWDPF quat0 -0.091824 -0.653754 -0.751116 -163.846704
USER  keepresnum = 1 
USER  
REMARK  0 active torsions:
REMARK  status: ('A' for Active; 'I' for Inactive)
REMARK       I    between atoms: C2_2  and  C4_4 
REMARK       I    between atoms: C4_4  and  C5_5 
REMARK       I    between atoms: C4_4  and  N10_95 
REMARK       I    between atoms: C5_5  and  N1_86 
REMARK       I    between atoms: C6_6  and  C7_7 
REMARK       I    between atoms: C6_6  and  C11_11 
REMARK       I    between atoms: C6_6  and  N1_86 
REMARK       I    between atoms: C7_7  and  C8_8 
REMARK       I    between atoms: C8_8  and  C9_9 
REMARK       I    between atoms: C9_9  and  N2_87 
REMARK       I    between atoms: C10_10  and  N2_87 
REMARK       I    between atoms: C10_10  and  N3_88 
REMARK       I    between atoms: C11_11  and  N4_89 
REMARK       I    between atoms: C12_12  and  N4_89 
REMARK       I    between atoms: C15_15  and  C18_18 
REMARK       I    between atoms: C18_18  and  O4_72 
REMARK       I    between atoms: C19_19  and  O4_72 
REMARK       I    between atoms: C19_19  and  N5_90 
REMARK       I    between atoms: C21_21  and  C24_24 
REMARK       I    between atoms: C21_21  and  N5_90 
REMARK       I    between atoms: C24_24  and  N6_91 
REMARK       I    between atoms: C25_25  and  C26_26 
REMARK       I    between atoms: C25_25  and  C29_29 
REMARK       I    between atoms: C25_25  and  N6_91 
REMARK       I    between atoms: C29_29  and  N7_92 
REMARK       I    between atoms: C31_31  and  C32_32 
REMARK       I    between atoms: C31_31  and  C38_38 
REMARK       I    between atoms: C31_31  and  N7_92 
REMARK       I    between atoms: C38_38  and  C39_39 
REMARK       I    between atoms: C38_38  and  O12_80 
REMARK       I    between atoms: C39_39  and  C40_40 
REMARK       I    between atoms: C40_40  and  N8_93 
REMARK       I    between atoms: C44_44  and  C45_45 
REMARK       I    between atoms: C45_45  and  C46_46 
REMARK       I    between atoms: C45_45  and  O11_79 
REMARK       I    between atoms: C46_46  and  C48_48 
REMARK       I    between atoms: C48_48  and  N9_94 
REMARK       I    between atoms: C49_49  and  C51_51 
REMARK       I    between atoms: C49_49  and  N9_94 
REMARK       I    between atoms: C51_51  and  C52_52 
REMARK       I    between atoms: C51_51  and  O10_78 
REMARK       I    between atoms: C60_60  and  O14_82 
REMARK       I    between atoms: C60_60  and  N10_95 
REMARK       I    between atoms: C61_61  and  C62_62 
REMARK       I    between atoms: C61_61  and  O14_82 
REMARK       I    between atoms: C62_62  and  O15_83 
REMARK       I    between atoms: C63_63  and  C64_64 
REMARK       I    between atoms: C63_63  and  O15_83 
REMARK       I    between atoms: C64_64  and  N11_96 
USER                              x       y       z     vdW  Elec       q    Type
USER                           _______ _______ _______ _____ _____    ______ ____
ROOT
ATOM      1  C1  UNL     1      12.248   7.413   4.280 -0.46 +0.00    +0.012 C 
ATOM      2  C2  UNL     1      12.103   8.871   3.837 +0.26 +0.00    +0.009 C 
ATOM      3  C3  UNL     1      13.120   9.743   4.582+99.99 +0.00    +0.012 C 
ATOM      4  C4  UNL     1      12.178   9.090   2.307+99.99 +0.00    +0.182 C 
ATOM      5  C5  UNL     1      13.548   8.703   1.699+99.99 +0.00    +0.241 C 
ATOM      6  C6  UNL     1      14.844   7.006   0.456+93.69 +0.00    +0.177 C 
ATOM      7  C7  UNL     1      14.568   5.717  -0.347+75.42 +0.00    +0.036 C 
ATOM      8  C8  UNL     1      14.748   4.379   0.389+99.99 +0.00    +0.022 C 
ATOM      9  C9  UNL     1      13.712   4.045   1.459+99.99 +0.00    +0.124 C 
ATOM     10  C10 UNL     1      11.396   4.618   0.822+99.99 +0.00    +0.313 C 
ATOM     11  C11 UNL     1      16.205   6.879   1.198+99.99 +0.00    +0.245 C 
ATOM     12  C12 UNL     1      17.054   6.696   3.554 +8.43 +0.00    +0.034 A 
ATOM     13  C13 UNL     1      18.353   6.269   3.282 +9.24 +0.00    +0.030 A 
ATOM     14  C14 UNL     1      19.263   6.059   4.326+99.99 +0.00    +0.011 A 
ATOM     15  C15 UNL     1      18.881   6.265   5.657+99.99 -0.00    -0.034 A 
ATOM     16  C16 UNL     1      17.580   6.700   5.926+99.99 +0.00    +0.011 A 
ATOM     17  C17 UNL     1      16.674   6.909   4.884 +5.99 +0.00    +0.030 A 
ATOM     18  C18 UNL     1      19.861   6.058   6.782+12.53 +0.00    +0.219 C 
ATOM     19  C19 UNL     1      20.517   8.200   7.546+53.30 +0.00    +0.363 C 
ATOM     20  C20 UNL     1      22.496   9.156   6.453 +5.13 +0.00    +0.156 C 
ATOM     21  C21 UNL     1      21.451  10.393   8.405 -0.59 +0.00    +0.110 C 
ATOM     22  C22 UNL     1      20.855  10.134   9.807 +3.38 +0.00    +0.049 C 
ATOM     23  C23 UNL     1      22.870  10.965   8.657 +0.45 +0.00    +0.049 C 
ATOM     24  C24 UNL     1      20.604  11.480   7.670+11.41 +0.00    +0.246 C 
ATOM     25  C25 UNL     1      18.541  11.864   6.388+99.99 +0.00    +0.180 C 
ATOM     26  C26 UNL     1      17.022  11.900   6.670+66.33 +0.00    +0.009 C 
ATOM     27  C27 UNL     1      16.391  10.513   6.842+99.99 +0.00    +0.012 C 
ATOM     28  C28 UNL     1      16.722  12.760   7.901+73.22 +0.00    +0.012 C 
ATOM     29  C29 UNL     1      18.842  11.170   5.032+99.99 +0.00    +0.243 C 
ATOM     30  C30 UNL     1      18.713  13.381   3.884+70.69 +0.00    +0.153 C 
ATOM     31  C31 UNL     1      19.273  11.272   2.610 -0.11 +0.00    +0.120 C 
ATOM     32  C32 UNL     1      18.330  11.568   1.387 -0.67 +0.00    +0.011 C 
ATOM     33  C33 UNL     1      18.895  12.548   0.341 -0.25 +0.00    +0.007 C 
ATOM     34  C34 UNL     1      17.903  12.802  -0.793+99.99 +0.00    +0.000 C 
ATOM     35  C35 UNL     1      17.480  11.500  -1.462+99.99 +0.00    +0.000 C 
ATOM     36  C36 UNL     1      16.903  10.521  -0.448 +2.47 +0.00    +0.000 C 
ATOM     37  C37 UNL     1      17.868  10.261   0.707 -0.56 +0.00    +0.007 C 
ATOM     38  C38 UNL     1      20.809  11.548   2.404 +1.25 +0.00    +0.152 C 
ATOM     39  C39 UNL     1      21.427  10.463   1.510 +0.02 +0.00    +0.137 C 
ATOM     40  C40 UNL     1      22.727  10.905   0.870+17.97 +0.00    +0.222 C 
ATOM     41  C41 UNL     1      25.022  10.341   0.238+99.99 +0.00    +0.126 C 
ATOM     42  C42 UNL     1      25.897   9.240   0.805 +0.74 +0.00    +0.022 C 
ATOM     43  C43 UNL     1      25.044   7.999   0.590 -0.45 +0.00    +0.029 C 
ATOM     44  C44 UNL     1      23.611   8.480   0.879 -0.43 +0.00    +0.117 C 
ATOM     45  C45 UNL     1      22.506   7.702   0.090 +0.73 +0.00    +0.156 C 
ATOM     46  C46 UNL     1      22.050   6.430   0.840+99.99 +0.00    +0.105 C 
ATOM     47  C47 UNL     1      20.881   5.740   0.131+99.99 +0.00    +0.022 C 
ATOM     48  C48 UNL     1      23.180   5.434   1.052 +0.12 +0.00    +0.224 C 
ATOM     49  C49 UNL     1      24.908   4.046  -0.074 -0.43 +0.00    +0.113 C 
ATOM     50  C50 UNL     1      24.541   2.668   0.492+48.02 +0.00    +0.035 C 
ATOM     51  C51 UNL     1      25.513   3.884  -1.501 -0.32 +0.00    +0.173 C 
ATOM     52  C52 UNL     1      26.210   5.142  -1.995 -0.24 -0.00    -0.028 A 
ATOM     53  C53 UNL     1      27.423   5.539  -1.408 -0.28 +0.00    +0.010 A 
ATOM     54  C54 UNL     1      28.077   6.699  -1.830 -0.24 +0.00    +0.001 A 
ATOM     55  C55 UNL     1      27.529   7.478  -2.846+23.69 +0.00    +0.000 A 
ATOM     56  C56 UNL     1      26.332   7.095  -3.444+99.99 +0.00    +0.001 A 
ATOM     57  C57 UNL     1      25.678   5.936  -3.022+18.92 +0.00    +0.010 A 
ATOM     58  C58 UNL     1      22.730   8.371  -2.197+99.99 +0.00    +0.202 C 
ATOM     59  C59 UNL     1      22.501  12.426   3.866+28.02 +0.00    +0.202 C 
ATOM     60  C60 UNL     1      10.525   8.881   0.489+99.99 +0.00    +0.361 C 
ATOM     61  C61 UNL     1       9.039   8.257  -1.244 -0.05 +0.00    +0.207 C 
ATOM     62  C62 UNL     1       7.789   9.090  -0.961+29.64 +0.00    +0.194 C 
ATOM     63  C63 UNL     1       6.905   8.532   1.205 +1.27 +0.00    +0.188 C 
ATOM     64  C64 UNL     1       7.194   7.213   1.930 -0.34 +0.00    +0.162 C 
ATOM     65  C65 UNL     1       4.956   6.139   1.934 -0.08 +0.00    +0.250 A 
ATOM     66  C66 UNL     1       4.351   4.974   1.280 -0.11 +0.00    +0.080 A 
ATOM     67  C67 UNL     1       5.298   4.375   0.556 -0.14 +0.00    +0.080 A 
ATOM     68  C68 UNL     1       6.542   5.137   0.731 -0.08 +0.00    +0.250 A 
ATOM     69  O1  UNL     1      14.506   9.473   1.721+99.99 -0.00    -0.271 OA
ATOM     70  O2  UNL     1      11.427   5.746   1.294 -0.14 -0.00    -0.248 OA
ATOM     71  O3  UNL     1      17.244   6.679   0.571 +9.12 -0.00    -0.271 OA
ATOM     72  O4  UNL     1      20.836   7.105   6.808+99.99 -0.00    -0.299 OA
ATOM     73  O5  UNL     1      19.466   8.315   8.169+99.99 -0.00    -0.238 OA
ATOM     74  O6  UNL     1      21.062  12.581   7.361 +3.08 -0.00    -0.271 OA
ATOM     75  O7  UNL     1      19.098   9.959   5.023+99.99 -0.00    -0.271 OA
ATOM     76  O8  UNL     1      22.914  12.087   0.575+99.99 -0.00    -0.273 OA
ATOM     77  O9  UNL     1      23.566   5.135   2.178 +7.60 -0.00    -0.273 OA
ATOM     78  O10 UNL     1      24.507   3.467  -2.435 +9.98 -0.00    -0.389 OA
ATOM     79  O11 UNL     1      22.898   7.326  -1.244 -0.30 -0.00    -0.388 OA
ATOM     80  O12 UNL     1      21.472  11.463   3.688 +5.19 -0.00    -0.388 OA
ATOM     81  O13 UNL     1      10.692   9.993   0.019+99.99 -0.00    -0.238 OA
ATOM     82  O14 UNL     1       9.736   7.920  -0.036 +0.06 -0.00    -0.302 OA
ATOM     83  O15 UNL     1       6.829   8.337  -0.211 -0.34 -0.00    -0.387 OA
ATOM     84  O16 UNL     1       4.351   6.900   2.665 -0.18 -0.00    -0.268 OA
ATOM     85  O17 UNL     1       7.603   4.825   0.218 -0.07 -0.00    -0.268 OA
ATOM     86  N1  UNL     1      13.699   7.386   1.296 +1.79 -0.00    -0.346 N 
ATOM     87  N2  UNL     1      12.421   3.729   0.884+99.99 -0.00    -0.343 N 
ATOM     88  N3  UNL     1      10.330   4.133   0.144 +0.83 -0.00    -0.352 N 
ATOM     89  N4  UNL     1      16.075   6.911   2.572+28.48 -0.00    -0.325 N 
ATOM     90  N5  UNL     1      21.526   9.158   7.548 -0.11 -0.00    -0.315 N 
ATOM     91  N6  UNL     1      19.288  11.138   7.416+18.67 -0.00    -0.345 N 
ATOM     92  N7  UNL     1      18.754  11.925   3.852+17.17 -0.00    -0.347 N 
ATOM     93  N8  UNL     1      23.668   9.933   0.586 +0.00 -0.00    -0.345 N 
ATOM     94  N9  UNL     1      23.724   4.916  -0.104 -0.18 -0.00    -0.354 N 
ATOM     95  N10 UNL     1      11.092   8.397   1.626+29.33 -0.00    -0.323 N 
ATOM     96  N11 UNL     1       6.260   6.167   1.565 -0.14 -0.00    -0.279 N 
ATOM     97  H95 UNL     1      23.655   3.483  -1.964 +2.23 +0.00    +0.210 HD
ATOM     98  H96 UNL     1      12.827   6.877   1.139 +0.00 +0.00    +0.163 HD
ATOM     99  H97 UNL     1      12.363   2.934   0.261 +3.78 +0.00    +0.164 HD
ATOM    100  H98 UNL     1       9.488   4.713   0.159 +0.05 +0.00    +0.160 HD
ATOM    101  H99 UNL     1      10.110   3.155   0.257 -0.43 +0.00    +0.160 HD
ATOM    102  HA0 UNL     1      15.172   7.232   2.895 -0.45 +0.00    +0.169 HD
ATOM    103  HA1 UNL     1      19.091  10.139   7.457 +1.69 +0.00    +0.163 HD
ATOM    104  HA2 UNL     1      23.619   5.529  -0.915 +0.11 +0.00    +0.163 HD
ATOM    105  HA3 UNL     1      10.990   7.387   1.723 +0.09 +0.00    +0.165 HD
ENDROOT
TORSDOF 39
TER
