USER    Run = 1
USER    DPF = ligand_495_receptor.dpf
USER  
USER    Estimated Free Energy of Binding    =  +1.61e+004 kcal/mol  [=(1)+(2)+(3)-(4)]
USER    
USER    (1) Final Intermolecular Energy     =  +1.61e+004 kcal/mol
USER        vdW + Hbond + desolv Energy     =  +1.61e+004 kcal/mol
USER        Electrostatic Energy            =   +0.00 kcal/mol
USER    (2) Final Total Internal Energy     =   +0.00 kcal/mol
USER    (3) Torsional Free Energy           =   +1.19 kcal/mol
USER    (4) Unbound System's Energy  [=(2)] =   +0.00 kcal/mol
USER    
USER    
USER    NEWDPF move ligand_495.pdbqt
USER    NEWDPF about 0.000000 0.000000 0.000000
USER    NEWDPF tran0 16.876534 6.681310 3.354256
USER    NEWDPF quaternion0 -0.009449 0.950423 0.294597 -0.099092
USER    NEWDPF axisangle0 -0.009496 0.955124 0.296054 -168.626207
USER    NEWDPF quat0 -0.009496 0.955124 0.296054 -168.626207
USER  keepresnum = 1 
USER  
REMARK  0 active torsions:
REMARK  status: ('A' for Active; 'I' for Inactive)
REMARK       I    between atoms: C2_2  and  C3_3 
REMARK       I    between atoms: C3_3  and  C5_5 
REMARK       I    between atoms: C5_5  and  C6_6 
REMARK       I    between atoms: C5_5  and  N3_101 
REMARK       I    between atoms: C6_6  and  C7_7 
REMARK       I    between atoms: C6_6  and  O5_82 
REMARK       I    between atoms: C7_7  and  C8_8 
REMARK       I    between atoms: C8_8  and  N1_99 
REMARK       I    between atoms: C12_12  and  C13_13 
REMARK       I    between atoms: C13_13  and  C14_14 
REMARK       I    between atoms: C13_13  and  O4_81 
REMARK       I    between atoms: C14_14  and  C16_16 
REMARK       I    between atoms: C16_16  and  N2_100 
REMARK       I    between atoms: C17_17  and  C19_19 
REMARK       I    between atoms: C17_17  and  N2_100 
REMARK       I    between atoms: C19_19  and  C20_20 
REMARK       I    between atoms: C19_19  and  O3_80 
REMARK       I    between atoms: C29_29  and  C30_30 
REMARK       I    between atoms: C29_29  and  N3_101 
REMARK       I    between atoms: C30_30  and  C31_31 
REMARK       I    between atoms: C30_30  and  N4_102 
REMARK       I    between atoms: C34_34  and  C35_35 
REMARK       I    between atoms: C34_34  and  N4_102 
REMARK       I    between atoms: C35_35  and  C36_36 
REMARK       I    between atoms: C35_35  and  N5_103 
REMARK       I    between atoms: C40_40  and  O9_86 
REMARK       I    between atoms: C40_40  and  N5_103 
REMARK       I    between atoms: C41_41  and  C42_42 
REMARK       I    between atoms: C41_41  and  O9_86 
REMARK       I    between atoms: C45_45  and  N6_104 
REMARK       I    between atoms: C48_48  and  C49_49 
REMARK       I    between atoms: C48_48  and  N6_104 
REMARK       I    between atoms: C49_49  and  C50_50 
REMARK       I    between atoms: C49_49  and  N9_107 
REMARK       I    between atoms: C50_50  and  C51_51 
REMARK       I    between atoms: C51_51  and  C52_52 
REMARK       I    between atoms: C52_52  and  N7_105 
REMARK       I    between atoms: C53_53  and  N7_105 
REMARK       I    between atoms: C53_53  and  N8_106 
REMARK       I    between atoms: C54_54  and  C55_55 
REMARK       I    between atoms: C54_54  and  N9_107 
REMARK       I    between atoms: C55_55  and  C56_56 
REMARK       I    between atoms: C55_55  and  N10_108 
REMARK       I    between atoms: C59_59  and  C60_60 
REMARK       I    between atoms: C59_59  and  N10_108 
REMARK       I    between atoms: C60_60  and  C61_61 
REMARK       I    between atoms: C61_61  and  O14_91 
REMARK       I    between atoms: C62_62  and  C63_63 
REMARK       I    between atoms: C62_62  and  O14_91 
REMARK       I    between atoms: C63_63  and  O15_92 
REMARK       I    between atoms: C64_64  and  C65_65 
REMARK       I    between atoms: C64_64  and  O15_92 
REMARK       I    between atoms: C65_65  and  O16_93 
REMARK       I    between atoms: C66_66  and  C67_67 
REMARK       I    between atoms: C66_66  and  O16_93 
REMARK       I    between atoms: C67_67  and  O17_94 
REMARK       I    between atoms: C68_68  and  C69_69 
REMARK       I    between atoms: C68_68  and  O17_94 
REMARK       I    between atoms: C69_69  and  O18_95 
REMARK       I    between atoms: C70_70  and  C71_71 
REMARK       I    between atoms: C70_70  and  O18_95 
REMARK       I    between atoms: C71_71  and  C72_72 
REMARK       I    between atoms: C72_72  and  C73_73 
REMARK       I    between atoms: C73_73  and  N11_109 
USER                              x       y       z     vdW  Elec       q    Type
USER                           _______ _______ _______ _____ _____    ______ ____
ROOT
ATOM      1  C1  UNL     1      22.443  11.698  -0.666 -0.01 +0.00    +0.005 C 
ATOM      2  C2  UNL     1      23.772  12.149  -0.071+19.30 +0.00    +0.002 C 
ATOM      3  C3  UNL     1      24.499  11.103   0.812+19.64 +0.00    +0.006 C 
ATOM      4  C4  UNL     1      24.579   9.752   0.091+25.12 +0.00    +0.012 C 
ATOM      5  C5  UNL     1      23.881  10.985   2.249+46.16 +0.00    +0.119 C 
ATOM      6  C6  UNL     1      24.466   9.808   3.124 -0.55 +0.00    +0.152 C 
ATOM      7  C7  UNL     1      25.989   9.884   3.355 +0.32 +0.00    +0.137 C 
ATOM      8  C8  UNL     1      26.680   8.529   3.275 +0.16 +0.00    +0.222 C 
ATOM      9  C9  UNL     1      28.769   9.614   4.162+90.38 +0.00    +0.126 C 
ATOM     10  C10 UNL     1      30.155   9.066   4.465+62.61 +0.00    +0.022 C 
ATOM     11  C11 UNL     1      29.939   7.557   4.494+99.99 +0.00    +0.029 C 
ATOM     12  C12 UNL     1      28.851   7.308   3.438+11.11 +0.00    +0.117 C 
ATOM     13  C13 UNL     1      29.467   7.003   2.029 -0.18 +0.00    +0.156 C 
ATOM     14  C14 UNL     1      28.396   6.690   0.952 -0.22 +0.00    +0.105 C 
ATOM     15  C15 UNL     1      28.074   7.861   0.025 -0.36 +0.00    +0.022 C 
ATOM     16  C16 UNL     1      28.838   5.466   0.151 -0.16 +0.00    +0.224 C 
ATOM     17  C17 UNL     1      29.058   2.984   0.285 -0.35 +0.00    +0.113 C 
ATOM     18  C18 UNL     1      30.527   2.856  -0.123 -0.23 +0.00    +0.035 C 
ATOM     19  C19 UNL     1      28.621   1.829   1.236 +0.02 +0.00    +0.173 C 
ATOM     20  C20 UNL     1      29.448   1.663   2.500 -0.27 -0.00    -0.028 A 
ATOM     21  C21 UNL     1      30.425   0.658   2.568 +1.51 +0.00    +0.010 A 
ATOM     22  C22 UNL     1      31.202   0.495   3.716+11.51 +0.00    +0.001 A 
ATOM     23  C23 UNL     1      31.012   1.334   4.812 +5.91 +0.00    +0.000 A 
ATOM     24  C24 UNL     1      30.045   2.333   4.762+99.99 +0.00    +0.001 A 
ATOM     25  C25 UNL     1      29.268   2.498   3.614+99.99 +0.00    +0.010 A 
ATOM     26  C26 UNL     1      31.426   7.675   0.831 -0.16 +0.00    +0.202 C 
ATOM     27  C27 UNL     1      23.928   8.584   5.116 +1.38 +0.00    +0.202 C 
ATOM     28  C28 UNL     1      25.131  12.911   3.349+16.52 +0.00    +0.153 C 
ATOM     29  C29 UNL     1      22.732  12.868   3.574+99.99 +0.00    +0.243 C 
ATOM     30  C30 UNL     1      21.321  12.382   3.153+19.50 +0.00    +0.180 C 
ATOM     31  C31 UNL     1      20.263  13.516   3.264+18.91 +0.00    +0.009 C 
ATOM     32  C32 UNL     1      19.746  13.765   4.686+99.99 +0.00    +0.012 C 
ATOM     33  C33 UNL     1      19.071  13.242   2.337 -0.56 +0.00    +0.012 C 
ATOM     34  C34 UNL     1      20.384  10.082   3.404 +4.34 +0.00    +0.241 C 
ATOM     35  C35 UNL     1      20.095   8.969   4.452 +8.83 +0.00    +0.184 C 
ATOM     36  C36 UNL     1      19.276   7.779   3.878 -0.11 +0.00    +0.010 C 
ATOM     37  C37 UNL     1      18.687   6.872   4.964+99.99 +0.00    +0.012 C 
ATOM     38  C38 UNL     1      20.151   6.910   2.958+99.99 +0.00    +0.012 C 
ATOM     39  C39 UNL     1      20.269   9.376   6.925+53.73 +0.00    +0.156 C 
ATOM     40  C40 UNL     1      18.283  10.159   5.733+62.30 +0.00    +0.363 C 
ATOM     41  C41 UNL     1      16.360  10.709   4.468 +7.97 +0.00    +0.219 C 
ATOM     42  C42 UNL     1      15.433   9.522   4.470 +1.43 -0.00    -0.034 A 
ATOM     43  C43 UNL     1      15.221   8.784   3.298 -0.45 +0.00    +0.011 A 
ATOM     44  C44 UNL     1      14.394   7.655   3.304 -0.25 +0.00    +0.030 A 
ATOM     45  C45 UNL     1      13.777   7.239   4.483 -0.45 +0.00    +0.034 A 
ATOM     46  C46 UNL     1      13.992   7.972   5.656 -0.21 +0.00    +0.030 A 
ATOM     47  C47 UNL     1      14.818   9.100   5.653+10.47 +0.00    +0.011 A 
ATOM     48  C48 UNL     1      12.638   5.178   3.611+60.89 +0.00    +0.245 C 
ATOM     49  C49 UNL     1      11.580   4.115   4.052 +5.29 +0.00    +0.177 C 
ATOM     50  C50 UNL     1      11.068   3.275   2.854+99.99 +0.00    +0.036 C 
ATOM     51  C51 UNL     1      10.551   4.019   1.608+99.99 +0.00    +0.022 C 
ATOM     52  C52 UNL     1       9.355   4.947   1.786 -0.08 +0.00    +0.124 C 
ATOM     53  C53 UNL     1       7.490   3.819   2.971 -0.10 +0.00    +0.313 C 
ATOM     54  C54 UNL     1      10.558   4.914   6.201 -0.25 +0.00    +0.241 C 
ATOM     55  C55 UNL     1       9.192   5.045   6.928 -0.33 +0.00    +0.180 C 
ATOM     56  C56 UNL     1       9.295   5.548   8.387 +0.59 +0.00    +0.009 C 
ATOM     57  C57 UNL     1       7.954   5.449   9.125 +5.92 +0.00    +0.012 C 
ATOM     58  C58 UNL     1       9.759   7.012   8.431+99.99 +0.00    +0.012 C 
ATOM     59  C59 UNL     1       8.830   2.618   7.387 +1.05 +0.00    +0.220 C 
ATOM     60  C60 UNL     1       7.998   1.412   7.027+99.99 +0.00    +0.129 C 
ATOM     61  C61 UNL     1       8.341   0.898   5.640+99.99 +0.00    +0.177 C 
ATOM     62  C62 UNL     1       6.494  -0.669   5.459+85.16 +0.00    +0.193 C 
ATOM     63  C63 UNL     1       5.695   0.134   4.426 +1.81 +0.00    +0.193 C 
ATOM     64  C64 UNL     1       4.063   1.377   5.637 +0.49 +0.00    +0.193 C 
ATOM     65  C65 UNL     1       3.853   2.659   6.451 -0.12 +0.00    +0.193 C 
ATOM     66  C66 UNL     1       2.942   3.942   4.637 -0.09 +0.00    +0.193 C 
ATOM     67  C67 UNL     1       2.730   5.399   4.219 -0.11 +0.00    +0.193 C 
ATOM     68  C68 UNL     1       4.567   6.842   4.642 +3.71 +0.00    +0.193 C 
ATOM     69  C69 UNL     1       5.950   7.241   4.135+99.99 +0.00    +0.193 C 
ATOM     70  C70 UNL     1       7.074   8.275   2.321 +0.15 +0.00    +0.175 C 
ATOM     71  C71 UNL     1       6.835   8.590   0.858 +2.13 +0.00    +0.106 C 
ATOM     72  C72 UNL     1       6.528   7.314   0.101 -0.34 +0.00    +0.147 C 
ATOM     73  C73 UNL     1       5.184   6.643   0.381 +2.22 +0.00    +0.213 C 
ATOM     74  C74 UNL     1       4.262   6.263  -1.880+99.99 +0.00    +0.227 A 
ATOM     75  C75 UNL     1       4.130   5.138  -2.862+99.99 +0.00    +0.112 A 
ATOM     76  C76 UNL     1       4.773   3.951  -2.168 +0.05 +0.00    +0.112 A 
ATOM     77  C77 UNL     1       5.181   4.476  -0.823 -0.06 +0.00    +0.227 A 
ATOM     78  O1  UNL     1      26.070   7.496   3.003 -0.38 -0.00    -0.273 OA
ATOM     79  O2  UNL     1      29.260   5.523  -0.998 -0.08 -0.00    -0.273 OA
ATOM     80  O3  UNL     1      27.246   2.031   1.602+48.77 -0.00    -0.389 OA
ATOM     81  O4  UNL     1      30.328   8.088   1.638 -0.19 -0.00    -0.388 OA
ATOM     82  O5  UNL     1      23.761   9.797   4.389 -0.58 -0.00    -0.388 OA
ATOM     83  O6  UNL     1      22.854  13.735   4.448+15.89 -0.00    -0.271 OA
ATOM     84  O7  UNL     1      20.242   9.937   2.192 -0.30 -0.00    -0.271 OA
ATOM     85  O8  UNL     1      17.753  10.554   6.764+71.11 -0.00    -0.238 OA
ATOM     86  O9  UNL     1      17.711  10.241   4.507 -0.12 -0.00    -0.299 OA
ATOM     87  O10 UNL     1      13.244   5.072   2.545+99.99 -0.00    -0.271 OA
ATOM     88  O11 UNL     1       7.909   4.018   4.105 -0.17 -0.00    -0.248 OA
ATOM     89  O12 UNL     1      11.646   5.172   6.712 -0.22 -0.00    -0.271 OA
ATOM     90  O13 UNL     1       9.752   2.546   8.191 -0.20 -0.00    -0.274 OA
ATOM     91  O14 UNL     1       7.905  -0.443   5.410+99.99 -0.00    -0.389 OA
ATOM     92  O15 UNL     1       5.315   1.420   4.944 +1.90 -0.00    -0.387 OA
ATOM     93  O16 UNL     1       3.892   3.873   5.700 -0.13 -0.00    -0.387 OA
ATOM     94  O17 UNL     1       3.939   5.960   3.699 -0.10 -0.00    -0.387 OA
ATOM     95  O18 UNL     1       5.813   7.979   2.916 +2.81 -0.00    -0.389 OA
ATOM     96  O19 UNL     1       7.355   6.832  -0.679 +0.03 -0.00    -0.296 OA
ATOM     97  O20 UNL     1       3.890   7.410  -2.084+39.59 -0.00    -0.273 OA
ATOM     98  O21 UNL     1       5.715   3.801   0.048 -0.07 -0.00    -0.273 OA
ATOM     99  N1  UNL     1      28.043   8.531   3.508 +9.74 -0.00    -0.345 N 
ATOM    100  N2  UNL     1      28.753   4.293   0.875 +0.01 -0.00    -0.354 N 
ATOM    101  N3  UNL     1      23.864  12.306   2.964+99.99 -0.00    -0.347 N 
ATOM    102  N4  UNL     1      20.953  11.216   3.942+52.36 -0.00    -0.346 N 
ATOM    103  N5  UNL     1      19.545   9.584   5.684+99.99 -0.00    -0.319 N 
ATOM    104  N6  UNL     1      12.922   6.126   4.575 -0.11 -0.00    -0.325 N 
ATOM    105  N7  UNL     1       8.097   4.234   1.835 -0.02 -0.00    -0.343 N 
ATOM    106  N8  UNL     1       6.363   3.117   2.737 -0.05 -0.00    -0.352 N 
ATOM    107  N9  UNL     1      10.452   4.602   4.857 -0.12 -0.00    -0.346 N 
ATOM    108  N10 UNL     1       8.460   3.783   6.755 -0.23 -0.00    -0.347 N 
ATOM    109  N11 UNL     1       4.848   5.793  -0.744 +0.22 -0.00    -0.281 N 
ATOM    110  HB5 UNL     1      27.046   1.380   2.300 +1.18 +0.00    +0.210 HD
ATOM    111  HB6 UNL     1      27.984   4.258   1.537 +0.32 +0.00    +0.163 HD
ATOM    112  HB7 UNL     1      21.079  11.263   4.946+92.67 +0.00    +0.163 HD
ATOM    113  HB8 UNL     1      12.541   5.930   5.502 +0.12 +0.00    +0.169 HD
ATOM    114  HB9 UNL     1       7.661   3.957   0.961 +0.07 +0.00    +0.164 HD
ATOM    115  HC0 UNL     1       5.854   3.307   1.880 +0.06 +0.00    +0.160 HD
ATOM    116  HC1 UNL     1       5.808   2.875   3.554 +0.05 +0.00    +0.160 HD
ATOM    117  HC2 UNL     1       9.523   4.283   4.575 +0.10 +0.00    +0.163 HD
ATOM    118  HC3 UNL     1       7.881   3.714   5.916 -0.01 +0.00    +0.163 HD
ENDROOT
TORSDOF 54
TER
