USER    Run = 1
USER    DPF = ligand_251_receptor.dpf
USER  
USER    Estimated Free Energy of Binding    = +366.87 kcal/mol  [=(1)+(2)+(3)-(4)]
USER    
USER    (1) Final Intermolecular Energy     = +365.67 kcal/mol
USER        vdW + Hbond + desolv Energy     = +365.67 kcal/mol
USER        Electrostatic Energy            =   +0.00 kcal/mol
USER    (2) Final Total Internal Energy     =   +0.00 kcal/mol
USER    (3) Torsional Free Energy           =   +1.19 kcal/mol
USER    (4) Unbound System's Energy  [=(2)] =   +0.00 kcal/mol
USER    
USER    
USER    NEWDPF move ligand_251.pdbqt
USER    NEWDPF about 0.000000 0.000000 0.000000
USER    NEWDPF tran0 12.874286 7.068854 2.569247
USER    NEWDPF quaternion0 0.427776 0.284384 -0.088986 -0.853355
USER    NEWDPF axisangle0 0.820547 0.545497 -0.170690 -62.843037
USER    NEWDPF quat0 0.820547 0.545497 -0.170690 -62.843037
USER  keepresnum = 1 
USER  
REMARK  0 active torsions:
REMARK  status: ('A' for Active; 'I' for Inactive)
REMARK       I    between atoms: C2_2  and  C3_3 
REMARK       I    between atoms: C3_3  and  C5_5 
REMARK       I    between atoms: C5_5  and  C6_6 
REMARK       I    between atoms: C5_5  and  C8_8 
REMARK       I    between atoms: C6_6  and  C7_7 
REMARK       I    between atoms: C7_7  and  N1_51 
REMARK       I    between atoms: C8_8  and  N2_52 
REMARK       I    between atoms: C9_9  and  C10_10 
REMARK       I    between atoms: C9_9  and  C14_14 
REMARK       I    between atoms: C9_9  and  N2_52 
REMARK       I    between atoms: C10_10  and  C11_11 
REMARK       I    between atoms: C14_14  and  N5_56 
REMARK       I    between atoms: C15_15  and  C16_16 
REMARK       I    between atoms: C15_15  and  C20_20 
REMARK       I    between atoms: C15_15  and  N5_56 
REMARK       I    between atoms: C16_16  and  C17_17 
REMARK       I    between atoms: C17_17  and  C18_18 
REMARK       I    between atoms: C18_18  and  C19_19 
REMARK       I    between atoms: C19_19  and  N6_57 
REMARK       I    between atoms: C20_20  and  N7_58 
REMARK       I    between atoms: C21_21  and  C22_22 
REMARK       I    between atoms: C21_21  and  N7_58 
REMARK       I    between atoms: C22_22  and  N8_59 
REMARK       I    between atoms: C23_23  and  C24_24 
REMARK       I    between atoms: C23_23  and  N8_59 
REMARK       I    between atoms: C24_24  and  N9_60 
REMARK       I    between atoms: C25_25  and  C26_26 
REMARK       I    between atoms: C25_25  and  C40_40 
REMARK       I    between atoms: C25_25  and  N9_60 
REMARK       I    between atoms: C26_26  and  C27_27 
REMARK       I    between atoms: C27_27  and  C28_28 
REMARK       I    between atoms: C28_28  and  C29_29 
REMARK       I    between atoms: C29_29  and  N10_61 
REMARK       I    between atoms: C30_30  and  C31_31 
REMARK       I    between atoms: C30_30  and  N10_61 
REMARK       I    between atoms: C31_31  and  C32_32 
REMARK       I    between atoms: C32_32  and  C33_33 
REMARK       I    between atoms: C33_33  and  C34_34 
REMARK       I    between atoms: C34_34  and  C35_35 
REMARK       I    between atoms: C40_40  and  N13_64 
REMARK       I    between atoms: O2_42  and  N1_51 
USER                              x       y       z     vdW  Elec       q    Type
USER                           _______ _______ _______ _____ _____    ______ ____
ROOT
ATOM      1  C1  UNL     1       4.753   4.429   7.986 +2.22 +0.00    +0.005 C 
ATOM      2  C2  UNL     1       6.240   4.572   8.269+18.92 +0.00    +0.000 C 
ATOM      3  C3  UNL     1       6.728   6.022   8.485 +8.50 -0.00    -0.005 C 
ATOM      4  C4  UNL     1       8.184   5.975   8.980 +3.46 +0.00    +0.011 C 
ATOM      5  C5  UNL     1       6.590   6.992   7.273+12.88 +0.00    +0.090 C 
ATOM      6  C6  UNL     1       5.239   7.732   7.260 +1.50 +0.00    +0.119 C 
ATOM      7  C7  UNL     1       5.196   8.884   8.243 +0.26 +0.00    +0.241 C 
ATOM      8  C8  UNL     1       6.821   6.317   5.923 +2.76 +0.00    +0.223 C 
ATOM      9  C9  UNL     1       8.487   5.127   4.501 -0.19 +0.00    +0.182 C 
ATOM     10  C10 UNL     1       9.768   4.305   4.768 -0.34 +0.00    +0.093 C 
ATOM     11  C11 UNL     1      10.982   5.136   5.034 -0.30 +0.00    +0.028 A 
ATOM     12  C12 UNL     1      11.564   5.563   6.209 -0.28 +0.00    +0.114 A 
ATOM     13  C13 UNL     1      12.766   6.384   4.650 -0.24 +0.00    +0.180 A 
ATOM     14  C14 UNL     1       8.601   5.896   3.158 -0.15 +0.00    +0.241 C 
ATOM     15  C15 UNL     1       7.764   7.849   1.850 -0.19 +0.00    +0.176 C 
ATOM     16  C16 UNL     1       8.896   8.870   2.102+30.59 +0.00    +0.035 C 
ATOM     17  C17 UNL     1       8.827   9.587   3.457+13.15 +0.00    +0.004 C 
ATOM     18  C18 UNL     1       9.740   8.927   4.488 +0.74 +0.00    +0.030 C 
ATOM     19  C19 UNL     1       9.498   9.436   5.904+39.34 +0.00    +0.267 C 
ATOM     20  C20 UNL     1       7.901   7.264   0.419 -0.29 +0.00    +0.240 C 
ATOM     21  C21 UNL     1       7.403   5.365  -1.061 +1.39 +0.00    +0.225 C 
ATOM     22  C22 UNL     1       8.800   4.773  -1.304 -0.08 +0.00    +0.235 C 
ATOM     23  C23 UNL     1      10.891   4.043  -0.223 +2.35 +0.00    +0.225 C 
ATOM     24  C24 UNL     1      11.705   5.308   0.053 +0.21 +0.00    +0.236 C 
ATOM     25  C25 UNL     1      12.385   7.499  -0.914 +3.11 +0.00    +0.176 C 
ATOM     26  C26 UNL     1      13.917   7.390  -0.953 +3.91 +0.00    +0.035 C 
ATOM     27  C27 UNL     1      14.609   8.612  -0.340+10.90 +0.00    +0.004 C 
ATOM     28  C28 UNL     1      16.130   8.487  -0.417 -0.52 +0.00    +0.020 C 
ATOM     29  C29 UNL     1      16.819   9.719   0.164 -0.40 +0.00    +0.122 C 
ATOM     30  C30 UNL     1      19.007   8.947   1.012 +9.33 +0.00    +0.217 C 
ATOM     31  C31 UNL     1      20.485   8.902   0.667+25.21 +0.00    +0.103 C 
ATOM     32  C32 UNL     1      21.314   8.255   1.776+23.77 +0.00    +0.009 C 
ATOM     33  C33 UNL     1      22.821   8.282   1.499 -0.35 +0.00    +0.002 C 
ATOM     34  C34 UNL     1      23.232   7.385   0.324 -0.46 +0.00    +0.017 C 
ATOM     35  C35 UNL     1      24.751   7.281   0.146 -0.44 +0.00    +0.072 C 
ATOM     36  C36 UNL     1      25.179   6.221  -0.869 -0.44 +0.00    +0.123 C 
ATOM     37  C37 UNL     1      26.556   6.580  -1.438 -0.31 +0.00    +0.119 C 
ATOM     38  C38 UNL     1      26.610   8.098  -1.631+30.55 +0.00    +0.101 C 
ATOM     39  C39 UNL     1      25.223   5.687  -3.119 +8.17 +0.00    +0.316 C 
ATOM     40  C40 UNL     1      11.845   8.397  -2.051+25.58 +0.00    +0.238 C 
ATOM     41  O1  UNL     1       6.142   9.248   8.937 -0.18 -0.00    -0.271 OA
ATOM     42  O2  UNL     1       3.859  10.521   9.280 +0.62 -0.00    -0.287 OA
ATOM     43  O3  UNL     1       5.924   6.114   5.108 +0.03 -0.00    -0.273 OA
ATOM     44  O4  UNL     1       9.411   5.588   2.284 -0.12 -0.00    -0.271 OA
ATOM     45  O5  UNL     1       8.446   7.869  -0.504 -0.34 -0.00    -0.271 OA
ATOM     46  O6  UNL     1       9.239   4.569  -2.434 -0.12 -0.00    -0.272 OA
ATOM     47  O7  UNL     1      12.204   5.543   1.154 +0.08 -0.00    -0.272 OA
ATOM     48  O8  UNL     1      18.528   8.435   2.018 +0.49 -0.00    -0.274 OA
ATOM     49  O9  UNL     1      24.869   5.255  -4.197+29.25 -0.00    -0.247 OA
ATOM     50  O10 UNL     1      12.498   9.265  -2.624+43.96 -0.00    -0.271 OA
ATOM     51  N1  UNL     1       3.976   9.522   8.282 -0.30 -0.00    -0.237 N 
ATOM     52  N2  UNL     1       8.115   5.951   5.659 +0.28 -0.00    -0.347 N 
ATOM     53  N3  UNL     1      12.640   6.372   5.958 -0.13 -0.00    -0.360 N 
ATOM     54  H3  UNL     1      13.219   6.861   6.640 +0.13 +0.00    +0.166 HD
ATOM     55  N4  UNL     1      11.793   5.643   4.042 +0.01 -0.00    -0.354 N 
ATOM     56  N5  UNL     1       7.622   6.826   2.892 -0.12 -0.00    -0.346 N 
ATOM     57  N6  UNL     1       9.988   8.445   6.859 +5.71 +0.00    +0.078 N 
ATOM     58  N7  UNL     1       7.283   6.046   0.219 -0.08 -0.00    -0.351 N 
ATOM     59  N8  UNL     1       9.483   4.394  -0.169 -0.02 -0.00    -0.351 N 
ATOM     60  N9  UNL     1      11.760   6.180  -1.011 -0.22 -0.00    -0.346 N 
ATOM     61  N10 UNL     1      18.261   9.617   0.066 -0.16 -0.00    -0.361 N 
ATOM     62  N11 UNL     1      26.532   5.887  -2.707 +3.61 -0.00    -0.336 N 
ATOM     63  N12 UNL     1      24.389   6.055  -2.071 -0.27 -0.00    -0.335 N 
ATOM     64  N13 UNL     1      10.513   8.256  -2.333 -0.12 -0.00    -0.368 N 
ATOM     65  S1  UNL     1      25.522   8.845  -0.393 +5.37 -0.00    -0.160 SA
ATOM     66  H53 UNL     1       4.756  10.529   9.681 +0.53 +0.00    +0.244 HD
ATOM     67  H54 UNL     1       3.116   9.047   8.030 +0.08 +0.00    +0.197 HD
ATOM     68  H55 UNL     1       8.857   6.476   6.132 +0.15 +0.00    +0.163 HD
ATOM     69  H56 UNL     1      11.688   5.528   3.035 -0.06 +0.00    +0.166 HD
ATOM     70  H57 UNL     1       6.940   6.989   3.629 +0.09 +0.00    +0.163 HD
ATOM     71  H58 UNL     1      10.971   8.225   6.649 +0.24 +0.00    +0.312 HD
ATOM     72  H59 UNL     1      10.007   8.865   7.790 +1.29 +0.00    +0.312 HD
ATOM     73  H60 UNL     1       6.984   5.531   1.038 +0.07 +0.00    +0.163 HD
ATOM     74  H61 UNL     1       9.198   4.841   0.702 +0.05 +0.00    +0.163 HD
ATOM     75  H62 UNL     1      11.228   5.964  -1.852 +0.08 +0.00    +0.163 HD
ATOM     76  H63 UNL     1      18.706   9.918  -0.791 +0.17 +0.00    +0.162 HD
ATOM     77  H64 UNL     1      27.286   5.825  -3.380 +1.50 +0.00    +0.164 HD
ATOM     78  H65 UNL     1      23.440   5.706  -2.100 +0.16 +0.00    +0.164 HD
ATOM     79  H66 UNL     1       9.870   7.951  -1.599 +0.07 +0.00    +0.159 HD
ATOM     80  H67 UNL     1      10.128   8.950  -2.960 +0.06 +0.00    +0.159 HD
ENDROOT
TORSDOF 33
TER
