USER    Run = 1
USER    DPF = ligand_370_receptor.dpf
USER  
USER    Estimated Free Energy of Binding    =  -11.64 kcal/mol  [=(1)+(2)+(3)-(4)]
USER    Estimated Inhibition Constant, Ki   =    2.96 nM (nanomolar)  [Temperature = 298.15 K]
USER    
USER    (1) Final Intermolecular Energy     =  -12.83 kcal/mol
USER        vdW + Hbond + desolv Energy     =  -12.83 kcal/mol
USER        Electrostatic Energy            =   +0.00 kcal/mol
USER    (2) Final Total Internal Energy     =   -1.84 kcal/mol
USER    (3) Torsional Free Energy           =   +1.19 kcal/mol
USER    (4) Unbound System's Energy  [=(2)] =   -1.84 kcal/mol
USER    
USER    
USER    NEWDPF move ligand_370.pdbqt
USER    NEWDPF about 0.000000 0.000000 0.000000
USER    NEWDPF tran0 14.292007 7.951680 3.076812
USER    NEWDPF quaternion0 -0.186456 -0.136920 -0.960514 -0.154598
USER    NEWDPF axisangle0 -0.188725 -0.138586 -0.972202 -162.213043
USER    NEWDPF quat0 -0.188725 -0.138586 -0.972202 -162.213043
USER    NEWDPF dihe0 -180.00 -22.26 -95.07 -12.68 -2.76 -180.00 -97.81 -146.61 
USER  keepresnum = 1 
USER  
REMARK  8 active torsions:
REMARK  status: ('A' for Active; 'I' for Inactive)
REMARK    1  A    between atoms: C2_2  and  N1_26 
REMARK    2  A    between atoms: C3_3  and  C4_4 
REMARK       I    between atoms: C3_3  and  N1_26 
REMARK    3  A    between atoms: C9_9  and  N2_27 
REMARK    4  A    between atoms: C12_12  and  C13_13 
REMARK       I    between atoms: C12_12  and  N2_27 
REMARK    5  A    between atoms: C19_19  and  C21_21 
REMARK       I    between atoms: C21_21  and  N4_29 
REMARK    6  A    between atoms: C22_22  and  N4_29 
REMARK    7  A    between atoms: C22_22  and  N5_30 
REMARK       I    between atoms: C24_24  and  N6_32 
REMARK       I    between atoms: C24_24  and  N7_33 
REMARK       I    between atoms: C25_25  and  N9_36 
REMARK       I    between atoms: C25_25  and  N10_37 
REMARK    8  A    between atoms: N1_26  and  N8_34 
USER                              x       y       z     vdW  Elec       q    Type
USER                           _______ _______ _______ _____ _____    ______ ____
ROOT
ATOM      1  C12 UNL     1      14.708   8.537   3.984 -0.31 +0.00    +0.272 C 
ATOM      2  N2  UNL     1      13.748   7.992   3.154 -0.18 -0.00    -0.322 N 
ATOM      3  O2  UNL     1      14.578   8.741   5.186 -0.09 -0.00    -0.266 OA
ATOM      4  H18 UNL     1      13.996   7.906   2.180 -0.30 +0.00    +0.169 HD
ENDROOT
BRANCH   1   5
ATOM      5  C13 UNL     1      15.953   8.883   3.317 -0.42 +0.00    +0.102 A 
ATOM      6  C14 UNL     1      17.276   8.900   3.727 -0.49 +0.00    +0.049 A 
ATOM      7  C15 UNL     1      18.082   9.331   2.634 -0.47 -0.00    -0.006 A 
ATOM      8  C16 UNL     1      17.226   9.571   1.563 -0.45 +0.00    +0.043 A 
ATOM      9  C20 UNL     1      19.463   9.536   2.460 -0.34 +0.00    +0.030 A 
ATOM     10  C17 UNL     1      17.678  10.003   0.312 -0.46 +0.00    +0.031 A 
ATOM     11  N3  UNL     1      15.954   9.296   2.000 -0.18 -0.00    -0.351 N 
ATOM     12  C18 UNL     1      19.056  10.202   0.156 -0.34 +0.00    +0.019 A 
ATOM     13  C19 UNL     1      19.941   9.984   1.218 -0.31 +0.00    +0.033 A 
ATOM     14  H19 UNL     1      15.111   9.377   1.444 -0.41 +0.00    +0.166 HD
BRANCH  13  15
ATOM     15  C21 UNL     1      21.409  10.191   1.068 -0.26 +0.00    +0.253 C 
ATOM     16  N4  UNL     1      22.218   9.437   1.886 -0.19 -0.00    -0.336 N 
ATOM     17  H20 UNL     1      21.837   8.602   2.306 +0.11 +0.00    +0.164 HD
ATOM     18  O3  UNL     1      21.844  10.964   0.218 -0.26 -0.00    -0.268 OA
BRANCH  16  19
ATOM     19  C22 UNL     1      23.650   9.427   1.729 -0.35 +0.00    +0.182 C 
ATOM     20  C23 UNL     1      24.313   9.781   3.056 -0.61 +0.00    +0.055 C 
BRANCH  19  21
ATOM     21  N5  UNL     1      24.077   8.085   1.370 -0.15 -0.00    -0.351 N 
ATOM     22  C24 UNL     1      23.622   7.544   0.305 -0.45 +0.00    +0.123 C 
ATOM     23  N6  UNL     1      22.690   7.966  -0.576 -0.27 -0.00    -0.279 NA
ATOM     24  N7  UNL     1      24.070   6.324  -0.067 -0.27 -0.00    -0.279 NA
ATOM     25  H21 UNL     1      22.325   8.908  -0.420 +0.08 +0.00    +0.126 HD
ATOM     26  H22 UNL     1      22.961   7.838  -1.543 +0.10 +0.00    +0.126 HD
ATOM     27  H23 UNL     1      23.315   5.713  -0.355 +0.07 +0.00    +0.126 HD
ATOM     28  H24 UNL     1      24.613   5.906   0.680 +0.09 +0.00    +0.126 HD
ATOM     29  H5  UNL     1      24.735   7.579   1.963 +0.13 +0.00    +0.163 HD
ENDBRANCH  19  21
ENDBRANCH  16  19
ENDBRANCH  13  15
ENDBRANCH   1   5
BRANCH   2  30
ATOM     30  C9  UNL     1      12.453   7.550   3.498 -0.39 +0.00    +0.036 A 
ATOM     31  C8  UNL     1      12.118   6.211   3.724 -0.16 +0.00    +0.049 A 
ATOM     32  C7  UNL     1      10.789   5.876   4.063 -0.27 +0.00    +0.018 A 
ATOM     33  C6  UNL     1       9.794   6.847   4.181 -0.29 -0.00    -0.018 A 
ATOM     34  S1  UNL     1      10.165   4.300   4.368 -0.42 -0.00    -0.084 SA
ATOM     35  C5  UNL     1       8.533   6.260   4.534 -0.08 +0.00    +0.037 A 
ATOM     36  C11 UNL     1      10.147   8.193   3.943 -0.45 +0.00    +0.015 A 
ATOM     37  C4  UNL     1       8.599   4.891   4.696 -0.23 +0.00    +0.076 A 
ATOM     38  C10 UNL     1      11.464   8.528   3.607 -0.17 +0.00    +0.030 A 
BRANCH  37  39
ATOM     39  C3  UNL     1       7.539   3.953   5.040 -0.19 +0.00    +0.279 C 
ATOM     40  N1  UNL     1       6.762   4.259   6.183 -0.25 -0.00    -0.255 N 
ATOM     41  O1  UNL     1       7.309   2.976   4.321 -0.20 -0.00    -0.265 OA
BRANCH  40  42
ATOM     42  C2  UNL     1       7.323   4.993   7.329 -0.44 +0.00    +0.148 C 
ATOM     43  C1  UNL     1       8.596   4.346   7.849 -0.59 +0.00    +0.028 C 
ENDBRANCH  40  42
BRANCH  40  44
ATOM     44  N8  UNL     1       5.632   3.530   6.540 -0.17 -0.00    -0.276 N 
ATOM     45  C25 UNL     1       4.537   4.095   6.934 -0.38 +0.00    +0.141 C 
ATOM     46  N9  UNL     1       4.226   5.401   7.108 -0.22 -0.00    -0.278 NA
ATOM     47  N10 UNL     1       3.502   3.303   7.313 -0.66 -0.00    -0.278 NA
ATOM     48  H25 UNL     1       4.668   5.990   6.404 +0.05 +0.00    +0.126 HD
ATOM     49  H26 UNL     1       3.239   5.604   7.159 +0.04 +0.00    +0.126 HD
ATOM     50  H27 UNL     1       2.612   3.561   6.912 +0.05 +0.00    +0.126 HD
ATOM     51  H28 UNL     1       3.716   2.333   7.099 +0.02 +0.00    +0.126 HD
ATOM     52  H8  UNL     1       5.668   2.511   6.489 -0.45 +0.00    +0.189 HD
ENDBRANCH  40  44
ENDBRANCH  37  39
ENDBRANCH   2  30
TORSDOF 8
TER
