USER    Run = 1
USER    DPF = ligand_297_receptor.dpf
USER  
USER    Estimated Free Energy of Binding    =  +1.19e+003 kcal/mol  [=(1)+(2)+(3)-(4)]
USER    
USER    (1) Final Intermolecular Energy     =  +1.19e+003 kcal/mol
USER        vdW + Hbond + desolv Energy     =  +1.19e+003 kcal/mol
USER        Electrostatic Energy            =   +0.00 kcal/mol
USER    (2) Final Total Internal Energy     =   +2.53 kcal/mol
USER    (3) Torsional Free Energy           =   +1.19 kcal/mol
USER    (4) Unbound System's Energy  [=(2)] =   +2.53 kcal/mol
USER    
USER    
USER    NEWDPF move ligand_297.pdbqt
USER    NEWDPF about 0.000000 0.000000 0.000000
USER    NEWDPF tran0 15.494541 9.231706 3.831470
USER    NEWDPF quaternion0 0.610392 0.211443 -0.167822 -0.744681
USER    NEWDPF axisangle0 0.914553 0.316807 -0.251449 -83.736616
USER    NEWDPF quat0 0.914553 0.316807 -0.251449 -83.736616
USER    NEWDPF dihe0 21.50 95.21 153.82 -180.00 -33.61 -65.55 -12.25 -87.70 180.00 154.17 151.35 137.03 33.98 28.79 -47.11 -23.86 
USER  keepresnum = 1 
USER  
REMARK  16 active torsions:
REMARK  status: ('A' for Active; 'I' for Inactive)
REMARK    1  A    between atoms: C3_3  and  C5_5 
REMARK    2  A    between atoms: C8_8  and  N2_65 
REMARK    3  A    between atoms: C11_11  and  C12_12 
REMARK       I    between atoms: C11_11  and  N2_65 
REMARK    4  A    between atoms: C14_14  and  N6_70 
REMARK    5  A    between atoms: C15_15  and  C18_18 
REMARK       I    between atoms: C18_18  and  N3_66 
REMARK    6  A    between atoms: C19_19  and  N3_66 
REMARK    7  A    between atoms: C22_22  and  C25_25 
REMARK    8  A    between atoms: C28_28  and  C29_29 
REMARK       I    between atoms: C28_28  and  N6_70 
REMARK    9  A    between atoms: C32_32  and  C35_35 
REMARK       I    between atoms: C35_35  and  N7_71 
REMARK   10  A    between atoms: C36_36  and  N7_71 
REMARK   11  A    between atoms: C37_37  and  C52_52 
REMARK   12  A    between atoms: C40_40  and  C42_42 
REMARK       I    between atoms: C42_42  and  N8_72 
REMARK   13  A    between atoms: C43_43  and  N8_72 
REMARK   14  A    between atoms: C46_46  and  C49_49 
REMARK       I    between atoms: C52_52  and  N11_76 
REMARK   15  A    between atoms: C53_53  and  N11_76 
REMARK   16  A    between atoms: C56_56  and  C59_59 
USER                              x       y       z     vdW  Elec       q    Type
USER                           _______ _______ _______ _____ _____    ______ ____
ROOT
ATOM      1  C29 UNL     1      14.801   7.966   4.065 -0.48 +0.00    +0.032 A 
ATOM      2  C30 UNL     1      15.312   9.213   3.679 -0.31 +0.00    +0.018 A 
ATOM      3  C31 UNL     1      16.651   9.337   3.286 -0.49 +0.00    +0.018 A 
ATOM      4  C32 UNL     1      17.486   8.211   3.258 -0.55 +0.00    +0.032 A 
ATOM      5  C33 UNL     1      16.973   6.965   3.642 +2.78 +0.00    +0.018 A 
ATOM      6  C34 UNL     1      15.637   6.842   4.036+13.07 +0.00    +0.018 A 
ENDROOT
BRANCH   1   7
ATOM      7  C28 UNL     1      13.381   7.780   4.491 -0.33 +0.00    +0.256 C 
ATOM      8  N6  UNL     1      13.085   8.215   5.768 -0.17 -0.00    -0.322 N 
ATOM      9  H50 UNL     1      13.866   8.513   6.356 +0.13 +0.00    +0.169 HD
ATOM     10  O3  UNL     1      12.606   7.226   3.721 -0.30 -0.00    -0.267 OA
BRANCH   8  11
ATOM     11  C14 UNL     1      11.821   8.258   6.407 -0.31 +0.00    +0.051 A 
ATOM     12  C13 UNL     1      10.756   7.438   6.013 -0.25 +0.00    +0.047 A 
ATOM     13  C12 UNL     1       9.512   7.527   6.652+37.44 +0.00    +0.034 A 
ATOM     14  C17 UNL     1       9.306   8.458   7.674+99.99 +0.00    +0.018 A 
ATOM     15  C16 UNL     1      10.354   9.286   8.075+45.28 +0.00    +0.020 A 
ATOM     16  C15 UNL     1      11.616   9.181   7.462 +0.59 +0.00    +0.059 A 
BRANCH  13  17
ATOM     17  C11 UNL     1       8.400   6.657   6.182+36.72 +0.00    +0.256 C 
ATOM     18  N2  UNL     1       8.280   6.580   4.807 +0.61 -0.00    -0.323 N 
ATOM     19  H47 UNL     1       8.880   7.183   4.259 +0.09 +0.00    +0.169 HD
ATOM     20  O1  UNL     1       7.699   6.108   7.021 +0.44 -0.00    -0.267 OA
BRANCH  18  21
ATOM     21  C8  UNL     1       7.351   5.814   4.072 -0.19 +0.00    +0.035 A 
ATOM     22  C7  UNL     1       6.918   4.542   4.448 -0.23 +0.00    +0.030 A 
ATOM     23  C6  UNL     1       5.993   3.839   3.663 -0.18 +0.00    +0.015 A 
ATOM     24  C5  UNL     1       5.498   4.402   2.485 -0.12 -0.00    -0.014 A 
ATOM     25  C10 UNL     1       5.928   5.677   2.105 -0.20 +0.00    +0.015 A 
ATOM     26  C9  UNL     1       6.849   6.377   2.893 -0.21 +0.00    +0.030 A 
BRANCH  24  27
ATOM     27  C3  UNL     1       4.519   3.689   1.629 -0.13 +0.00    +0.015 C 
ATOM     28  C2  UNL     1       3.759   2.493   2.133 -0.11 +0.00    +0.059 C 
ATOM     29  C1  UNL     1       3.309   1.912   0.813 -0.14 +0.00    +0.025 C 
ATOM     30  C4  UNL     1       3.208   3.138  -0.073 -0.09 +0.00    +0.120 C 
ATOM     31  N1  UNL     1       4.249   4.065   0.410 -0.06 -0.00    -0.392 N 
ATOM     32  H1  UNL     1       4.671   4.839  -0.103 +0.03 +0.00    +0.159 HD
ENDBRANCH  24  27
ENDBRANCH  18  21
ENDBRANCH  13  17
BRANCH  16  33
ATOM     33  C18 UNL     1      12.730  10.070   7.920 +0.07 +0.00    +0.258 C 
ATOM     34  N3  UNL     1      13.877  10.029   7.147 +0.68 -0.00    -0.323 N 
ATOM     35  H48 UNL     1      13.829   9.520   6.274 +0.14 +0.00    +0.169 HD
ATOM     36  O2  UNL     1      12.529  10.799   8.888 -0.58 -0.00    -0.267 OA
BRANCH  34  37
ATOM     37  C19 UNL     1      15.087  10.716   7.381+15.12 +0.00    +0.035 A 
ATOM     38  C20 UNL     1      16.162  10.427   6.529+99.99 +0.00    +0.030 A 
ATOM     39  C21 UNL     1      17.400  11.061   6.697+17.78 +0.00    +0.017 A 
ATOM     40  C22 UNL     1      17.575  11.990   7.724 +8.08 +0.00    +0.002 A 
ATOM     41  C23 UNL     1      16.512  12.270   8.586+99.99 +0.00    +0.017 A 
ATOM     42  C24 UNL     1      15.273  11.638   8.413+11.09 +0.00    +0.030 A 
BRANCH  40  43
ATOM     43  C25 UNL     1      18.879  12.671   7.918+20.53 +0.00    +0.086 C 
ATOM     44  N4  UNL     1      19.956  12.279   7.283+51.71 -0.00    -0.379 N 
ATOM     45  C26 UNL     1      21.022  13.212   7.737+56.87 +0.00    +0.135 C 
ATOM     46  H4  UNL     1      20.044  11.506   6.623+99.99 +0.00    +0.160 HD
ATOM     47  C27 UNL     1      20.460  13.942   8.956+17.90 +0.00    +0.113 C 
ATOM     48  N5  UNL     1      19.039  13.728   8.787+75.04 -0.00    -0.277 NA
ATOM     49  H49 UNL     1      18.496  13.689   9.641+33.33 +0.00    +0.129 HD
ENDBRANCH  40  43
ENDBRANCH  34  37
ENDBRANCH  16  33
ENDBRANCH   8  11
ENDBRANCH   1   7
BRANCH   4  50
ATOM     50  C35 UNL     1      18.921   8.291   2.852 +0.64 +0.00    +0.256 C 
ATOM     51  N7  UNL     1      19.159   8.888   1.629 +2.37 -0.00    -0.322 N 
ATOM     52  H51 UNL     1      18.350   9.101   1.041 +0.13 +0.00    +0.169 HD
ATOM     53  O4  UNL     1      19.771   7.796   3.584 +0.03 -0.00    -0.267 OA
BRANCH  51  54
ATOM     54  C36 UNL     1      20.409   9.178   1.030 +8.07 +0.00    +0.051 A 
ATOM     55  C37 UNL     1      20.473  10.114  -0.031 +0.07 +0.00    +0.059 A 
ATOM     56  C38 UNL     1      21.714  10.447  -0.596 +2.40 +0.00    +0.020 A 
ATOM     57  C39 UNL     1      22.881   9.821  -0.150 -0.41 +0.00    +0.018 A 
ATOM     58  C40 UNL     1      22.825   8.872   0.875 -0.43 +0.00    +0.034 A 
ATOM     59  C41 UNL     1      21.595   8.579   1.478 +3.86 +0.00    +0.047 A 
BRANCH  55  60
ATOM     60  C52 UNL     1      19.224  10.766  -0.542 +1.72 +0.00    +0.258 C 
ATOM     61  N11 UNL     1      18.080  10.522   0.197 -0.23 -0.00    -0.323 N 
ATOM     62  H54 UNL     1      18.190  10.033   1.076 +0.14 +0.00    +0.169 HD
ATOM     63  O6  UNL     1      19.314  11.499  -1.523 +6.34 -0.00    -0.267 OA
BRANCH  61  64
ATOM     64  C53 UNL     1      16.772  10.975  -0.079 +1.48 +0.00    +0.035 A 
ATOM     65  C54 UNL     1      16.415  12.321  -0.177+22.64 +0.00    +0.030 A 
ATOM     66  C55 UNL     1      15.093  12.692  -0.460 +5.23 +0.00    +0.015 A 
ATOM     67  C56 UNL     1      14.113  11.715  -0.650+11.79 -0.00    -0.014 A 
ATOM     68  C57 UNL     1      14.469  10.366  -0.565+38.73 +0.00    +0.015 A 
ATOM     69  C58 UNL     1      15.788   9.999  -0.281 +7.65 +0.00    +0.030 A 
BRANCH  67  70
ATOM     70  C59 UNL     1      12.705  12.069  -0.952 +8.90 +0.00    +0.015 C 
ATOM     71  C62 UNL     1      12.238  12.293  -2.365+12.36 +0.00    +0.059 C 
ATOM     72  C61 UNL     1      10.959  13.048  -2.085+22.36 +0.00    +0.025 C 
ATOM     73  C60 UNL     1      10.541  12.503  -0.734+11.83 +0.00    +0.120 C 
ATOM     74  N12 UNL     1      11.798  12.188  -0.026+47.71 -0.00    -0.392 N 
ATOM     75  H12 UNL     1      11.929  12.085   0.981 +0.83 +0.00    +0.159 HD
ENDBRANCH  67  70
ENDBRANCH  61  64
ENDBRANCH  55  60
BRANCH  58  76
ATOM     76  C42 UNL     1      24.102   8.234   1.322 -0.30 +0.00    +0.256 C 
ATOM     77  N8  UNL     1      25.172   8.369   0.456 -0.14 -0.00    -0.323 N 
ATOM     78  H52 UNL     1      25.039   8.943  -0.368 +0.15 +0.00    +0.169 HD
ATOM     79  O5  UNL     1      24.113   7.683   2.417 -0.16 -0.00    -0.267 OA
BRANCH  77  80
ATOM     80  C43 UNL     1      26.472   7.841   0.610 -0.37 +0.00    +0.035 A 
ATOM     81  C44 UNL     1      27.489   8.460   1.337 -0.38 +0.00    +0.030 A 
ATOM     82  C45 UNL     1      28.752   7.864   1.443 -0.37 +0.00    +0.017 A 
ATOM     83  C46 UNL     1      29.012   6.641   0.819 -0.26 +0.00    +0.002 A 
ATOM     84  C47 UNL     1      27.995   6.008   0.100 -0.26 +0.00    +0.017 A 
ATOM     85  C48 UNL     1      26.734   6.607  -0.002 -0.33 +0.00    +0.030 A 
BRANCH  83  86
ATOM     86  C49 UNL     1      30.357   6.025   0.934 -0.23 +0.00    +0.086 C 
ATOM     87  N9  UNL     1      30.722   5.026   0.166 -0.01 -0.00    -0.379 N 
ATOM     88  C50 UNL     1      32.116   4.718   0.585 -0.09 +0.00    +0.135 C 
ATOM     89  H9  UNL     1      30.172   4.562  -0.557 +0.06 +0.00    +0.160 HD
ATOM     90  C51 UNL     1      32.335   5.449   1.909 -0.23 +0.00    +0.113 C 
ATOM     91  N10 UNL     1      31.285   6.441   1.865 -0.19 -0.00    -0.277 NA
ATOM     92  H53 UNL     1      30.916   6.737   2.761 -0.20 +0.00    +0.129 HD
ENDBRANCH  83  86
ENDBRANCH  77  80
ENDBRANCH  58  76
ENDBRANCH  51  54
ENDBRANCH   4  50
TORSDOF 16
TER
