USER    Run = 1
USER    DPF = ligand_292_receptor.dpf
USER  
USER    Estimated Free Energy of Binding    =   -7.36 kcal/mol  [=(1)+(2)+(3)-(4)]
USER    Estimated Inhibition Constant, Ki   =    4.06 uM (micromolar)  [Temperature = 298.15 K]
USER    
USER    (1) Final Intermolecular Energy     =   -8.55 kcal/mol
USER        vdW + Hbond + desolv Energy     =   -8.55 kcal/mol
USER        Electrostatic Energy            =   +0.00 kcal/mol
USER    (2) Final Total Internal Energy     =   -2.53 kcal/mol
USER    (3) Torsional Free Energy           =   +1.19 kcal/mol
USER    (4) Unbound System's Energy  [=(2)] =   -2.53 kcal/mol
USER    
USER    
USER    NEWDPF move ligand_292.pdbqt
USER    NEWDPF about 0.000000 0.000000 0.000000
USER    NEWDPF tran0 18.933588 9.959710 3.143883
USER    NEWDPF quaternion0 0.897294 0.176004 -0.132295 -0.382603
USER    NEWDPF axisangle0 0.971188 0.190499 -0.143190 -135.010016
USER    NEWDPF quat0 0.971188 0.190499 -0.143190 -135.010016
USER    NEWDPF dihe0 5.21 60.75 -61.24 -30.36 -97.64 175.07 -166.48 140.18 180.00 103.01 -141.50 108.38 -80.77 179.96 -44.19 -59.62 
USER  keepresnum = 1 
USER  
REMARK  16 active torsions:
REMARK  status: ('A' for Active; 'I' for Inactive)
REMARK    1  A    between atoms: C3_3  and  N4_36 
REMARK    2  A    between atoms: C5_5  and  C6_6 
REMARK       I    between atoms: C6_6  and  N2_34 
REMARK    3  A    between atoms: C7_7  and  C8_8 
REMARK    4  A    between atoms: C7_7  and  N2_34 
REMARK    5  A    between atoms: C8_8  and  C9_9 
REMARK    6  A    between atoms: C9_9  and  C10_10 
REMARK    7  A    between atoms: C10_10  and  N3_35 
REMARK    8  A    between atoms: C11_11  and  C12_12 
REMARK       I    between atoms: C11_11  and  N4_36 
REMARK    9  A    between atoms: C14_14  and  N6_38 
REMARK   10  A    between atoms: C17_17  and  C18_18 
REMARK       I    between atoms: C17_17  and  N6_38 
REMARK   11  A    between atoms: C20_20  and  N8_40 
REMARK   12  A    between atoms: C23_23  and  C24_24 
REMARK       I    between atoms: C23_23  and  N8_40 
REMARK   13  A    between atoms: C25_25  and  N10_43 
REMARK   14  A    between atoms: C27_27  and  C28_28 
REMARK   15  A    between atoms: C27_27  and  N10_43 
REMARK   16  A    between atoms: C28_28  and  N11_44 
USER                              x       y       z     vdW  Elec       q    Type
USER                           _______ _______ _______ _____ _____    ______ ____
ROOT
ATOM      1  C17 UNL     1      18.740   9.382   2.058 -0.14 +0.00    +0.273 C 
ATOM      2  N6  UNL     1      19.651   8.916   2.988 -0.16 -0.00    -0.320 N 
ATOM      3  O3  UNL     1      19.056   9.924   1.001 -0.28 -0.00    -0.266 OA
ATOM      4  H40 UNL     1      19.306   8.458   3.819 +0.10 +0.00    +0.169 HD
ENDROOT
BRANCH   1   5
ATOM      5  C18 UNL     1      17.340   9.169   2.427 -0.42 +0.00    +0.105 A 
ATOM      6  C19 UNL     1      16.691   8.010   2.846 -0.47 +0.00    +0.066 A 
ATOM      7  C20 UNL     1      15.330   8.302   3.088 -0.40 +0.00    +0.053 A 
ATOM      8  C21 UNL     1      15.160   9.639   2.823 +0.02 +0.00    +0.120 A 
ATOM      9  N7  UNL     1      16.369  10.158   2.431 -0.18 -0.00    -0.354 N 
ATOM     10  C22 UNL     1      16.569  11.546   2.066 -0.47 +0.00    +0.156 C 
BRANCH   7  11
ATOM     11  N8  UNL     1      14.299   7.487   3.510 -0.23 -0.00    -0.320 N 
ATOM     12  C23 UNL     1      12.988   7.892   3.715 -0.29 +0.00    +0.275 C 
ATOM     13  O4  UNL     1      12.600   9.049   3.559 +0.06 -0.00    -0.266 OA
ATOM     14  H41 UNL     1      14.539   6.518   3.672 -0.26 +0.00    +0.169 HD
BRANCH  12  15
ATOM     15  C24 UNL     1      12.066   6.825   4.180 -0.30 +0.00    +0.132 A 
ATOM     16  C26 UNL     1      11.861   6.324   5.529 -0.28 +0.00    +0.101 A 
ATOM     17  C25 UNL     1      10.896   5.323   5.565 -0.25 +0.00    +0.111 A 
ATOM     18 CL1  UNL     1      12.747   6.896   6.890 -0.59 -0.00    -0.079 Cl
ATOM     19  S1  UNL     1      10.370   5.072   3.945 -0.38 +0.00    +0.006 SA
ATOM     20  N9  UNL     1      11.315   6.218   3.251 -0.14 -0.00    -0.319 N 
ATOM     21  H9  UNL     1      11.329   6.438   2.255 +0.08 +0.00    +0.174 HD
BRANCH  17  22
ATOM     22  N10 UNL     1      10.362   4.563   6.565 -0.12 -0.00    -0.380 N 
ATOM     23  H42 UNL     1      10.828   4.623   7.471 +0.12 +0.00    +0.160 HD
BRANCH  22  24
ATOM     24  C27 UNL     1       9.713   3.274   6.335 -0.37 +0.00    +0.150 C 
BRANCH  24  25
ATOM     25  C28 UNL     1       8.686   3.351   5.177 -0.20 +0.00    +0.292 C 
BRANCH  25  26
ATOM     26  N11 UNL     1       7.375   3.947   5.515 -0.28 +0.00    +0.093 N 
ATOM     27  C29 UNL     1       6.275   3.515   4.633 -0.08 +0.00    +0.302 C 
ATOM     28  C30 UNL     1       6.354   4.015   3.167 -0.07 +0.00    +0.299 C 
ATOM     29  N12 UNL     1       7.212   5.192   2.959 -0.14 +0.00    +0.086 N 
ATOM     30  C31 UNL     1       7.116   6.095   4.112 +0.02 +0.00    +0.299 C 
ATOM     31  H43 UNL     1       6.927   5.677   2.110 +0.13 +0.00    +0.315 HD
ATOM     32  C32 UNL     1       7.461   5.427   5.471 -0.12 +0.00    +0.302 C 
ENDBRANCH  25  26
ENDBRANCH  24  25
ENDBRANCH  22  24
ENDBRANCH  17  22
ENDBRANCH  12  15
ENDBRANCH   7  11
ENDBRANCH   1   5
BRANCH   2  33
ATOM     33  C14 UNL     1      21.026   9.000   2.876 -0.20 +0.00    +0.053 A 
ATOM     34  C13 UNL     1      21.875   8.749   1.774 +0.35 +0.00    +0.066 A 
ATOM     35  C12 UNL     1      23.195   8.979   2.153 -0.38 +0.00    +0.105 A 
ATOM     36  N5  UNL     1      23.136   9.355   3.486 -0.24 -0.00    -0.354 N 
ATOM     37  C15 UNL     1      21.834   9.374   3.921 +0.26 +0.00    +0.120 A 
ATOM     38  C16 UNL     1      24.269   9.693   4.326 -0.02 +0.00    +0.156 C 
BRANCH  35  39
ATOM     39  C11 UNL     1      24.432   8.862   1.381 -0.29 +0.00    +0.273 C 
ATOM     40  N4  UNL     1      24.841   7.558   1.156 -0.16 -0.00    -0.320 N 
ATOM     41  H39 UNL     1      24.259   6.806   1.490 +0.13 +0.00    +0.169 HD
ATOM     42  O2  UNL     1      25.032   9.848   0.962 +0.55 -0.00    -0.266 OA
BRANCH  40  43
ATOM     43  C3  UNL     1      25.983   7.184   0.475 -0.35 +0.00    +0.053 A 
ATOM     44  C2  UNL     1      27.185   7.837   0.629 -0.31 +0.00    +0.120 A 
ATOM     45  N1  UNL     1      28.110   7.232  -0.186 -0.11 -0.00    -0.354 N 
ATOM     46  C1  UNL     1      29.463   7.708  -0.374 -0.22 +0.00    +0.156 C 
ATOM     47  C5  UNL     1      27.533   6.162  -0.836 -0.25 +0.00    +0.104 A 
ATOM     48  C4  UNL     1      26.196   6.151  -0.466 -0.34 +0.00    +0.066 A 
BRANCH  47  49
ATOM     49  C6  UNL     1      28.186   5.255  -1.751 -0.14 +0.00    +0.268 C 
ATOM     50  N2  UNL     1      27.507   4.069  -1.913 -0.10 -0.00    -0.356 N 
ATOM     51  H36 UNL     1      26.637   3.939  -1.415 +0.09 +0.00    +0.162 HD
ATOM     52  O1  UNL     1      29.211   5.532  -2.362 -0.16 -0.00    -0.266 OA
BRANCH  50  53
ATOM     53  C7  UNL     1      27.955   3.020  -2.804 -0.23 +0.00    +0.123 C 
BRANCH  53  54
ATOM     54  C8  UNL     1      29.419   2.649  -2.572 -0.17 +0.00    +0.021 C 
BRANCH  54  55
ATOM     55  C9  UNL     1      29.756   2.204  -1.143 -0.22 +0.00    +0.031 C 
BRANCH  55  56
ATOM     56  C10 UNL     1      30.825   3.000  -0.395 -0.09 +0.00    +0.267 C 
BRANCH  56  57
ATOM     57  N3  UNL     1      31.281   4.164  -1.149 -0.04 +0.00    +0.078 N 
ATOM     58  H37 UNL     1      30.587   4.904  -1.055 +0.10 +0.00    +0.312 HD
ATOM     59  H38 UNL     1      32.117   4.535  -0.693 +0.07 +0.00    +0.312 HD
ENDBRANCH  56  57
ENDBRANCH  55  56
ENDBRANCH  54  55
ENDBRANCH  53  54
ENDBRANCH  50  53
ENDBRANCH  47  49
ENDBRANCH  40  43
ENDBRANCH  35  39
ENDBRANCH   2  33
TORSDOF 16
TER
