USER    Run = 1
USER    DPF = ligand_119_receptor.dpf
USER  
USER    Estimated Free Energy of Binding    =  +2.48e+003 kcal/mol  [=(1)+(2)+(3)-(4)]
USER    
USER    (1) Final Intermolecular Energy     =  +2.48e+003 kcal/mol
USER        vdW + Hbond + desolv Energy     =  +2.48e+003 kcal/mol
USER        Electrostatic Energy            =   +0.00 kcal/mol
USER    (2) Final Total Internal Energy     =   +0.00 kcal/mol
USER    (3) Torsional Free Energy           =   +1.19 kcal/mol
USER    (4) Unbound System's Energy  [=(2)] =   +0.00 kcal/mol
USER    
USER    
USER    NEWDPF move ligand_119.pdbqt
USER    NEWDPF about 0.000000 0.000000 0.000000
USER    NEWDPF tran0 19.260156 6.059761 2.871187
USER    NEWDPF quaternion0 0.089630 -0.421003 0.902090 0.030916
USER    NEWDPF axisangle0 0.089673 -0.421205 0.902522 176.456747
USER    NEWDPF quat0 0.089673 -0.421205 0.902522 176.456747
USER  keepresnum = 1 
USER  
REMARK  0 active torsions:
REMARK  status: ('A' for Active; 'I' for Inactive)
REMARK       I    between atoms: C2_2  and  C3_3 
REMARK       I    between atoms: C3_3  and  C5_5 
REMARK       I    between atoms: C5_5  and  C6_6 
REMARK       I    between atoms: C5_5  and  N6_69 
REMARK       I    between atoms: C6_6  and  N1_64 
REMARK       I    between atoms: C7_7  and  C8_8 
REMARK       I    between atoms: C7_7  and  C10_10 
REMARK       I    between atoms: C7_7  and  N1_64 
REMARK       I    between atoms: C8_8  and  O2_50 
REMARK       I    between atoms: C10_10  and  N2_65 
REMARK       I    between atoms: C11_11  and  C12_12 
REMARK       I    between atoms: C11_11  and  C15_15 
REMARK       I    between atoms: C11_11  and  N2_65 
REMARK       I    between atoms: C12_12  and  C13_13 
REMARK       I    between atoms: C13_13  and  C14_14 
REMARK       I    between atoms: C14_14  and  N3_66 
REMARK       I    between atoms: C15_15  and  N4_67 
REMARK       I    between atoms: C16_16  and  C17_17 
REMARK       I    between atoms: C16_16  and  C19_19 
REMARK       I    between atoms: C16_16  and  N4_67 
REMARK       I    between atoms: C17_17  and  O6_54 
REMARK       I    between atoms: C19_19  and  N5_68 
REMARK       I    between atoms: C20_20  and  C21_21 
REMARK       I    between atoms: C20_20  and  C28_28 
REMARK       I    between atoms: C20_20  and  N5_68 
REMARK       I    between atoms: C21_21  and  C22_22 
REMARK       I    between atoms: C28_28  and  O9_57 
REMARK       I    between atoms: C29_29  and  C30_30 
REMARK       I    between atoms: C29_29  and  N6_69 
REMARK       I    between atoms: C30_30  and  C31_31 
REMARK       I    between atoms: C30_30  and  N7_70 
REMARK       I    between atoms: C31_31  and  C32_32 
REMARK       I    between atoms: C35_35  and  C36_36 
REMARK       I    between atoms: C35_35  and  N7_70 
REMARK       I    between atoms: C36_36  and  C37_37 
REMARK       I    between atoms: C36_36  and  N9_72 
REMARK       I    between atoms: C37_37  and  C38_38 
REMARK       I    between atoms: C38_38  and  C39_39 
REMARK       I    between atoms: C39_39  and  C40_40 
REMARK       I    between atoms: C40_40  and  N8_71 
REMARK       I    between atoms: C41_41  and  C42_42 
REMARK       I    between atoms: C41_41  and  N9_72 
REMARK       I    between atoms: C42_42  and  C43_43 
REMARK       I    between atoms: C42_42  and  N10_73 
REMARK       I    between atoms: C43_43  and  C44_44 
REMARK       I    between atoms: C44_44  and  C45_45 
REMARK       I    between atoms: C45_45  and  O14_62 
REMARK       I    between atoms: C46_46  and  C47_47 
REMARK       I    between atoms: C46_46  and  N10_73 
REMARK       I    between atoms: C47_47  and  N11_74 
USER                              x       y       z     vdW  Elec       q    Type
USER                           _______ _______ _______ _____ _____    ______ ____
ROOT
ATOM      1  C1  UNL     1      20.599   5.636   7.827 +4.04 +0.00    +0.005 C 
ATOM      2  C2  UNL     1      19.154   5.373   7.425+16.08 +0.00    +0.002 C 
ATOM      3  C3  UNL     1      18.338   6.639   7.065+99.99 +0.00    +0.013 C 
ATOM      4  C4  UNL     1      16.847   6.298   7.250+31.96 +0.00    +0.012 C 
ATOM      5  C5  UNL     1      18.583   7.143   5.620+99.99 +0.00    +0.180 C 
ATOM      6  C6  UNL     1      17.886   8.500   5.333+26.25 +0.00    +0.241 C 
ATOM      7  C7  UNL     1      17.199  10.057   3.507 -0.38 +0.00    +0.205 C 
ATOM      8  C8  UNL     1      17.846  10.613   2.216 -0.43 +0.00    +0.146 C 
ATOM      9  C9  UNL     1      18.019   9.616   1.071 -0.46 +0.00    +0.042 C 
ATOM     10  C10 UNL     1      15.698   9.729   3.328 -0.11 +0.00    +0.243 C 
ATOM     11  C11 UNL     1      13.767   8.753   4.577 +0.09 +0.00    +0.177 C 
ATOM     12  C12 UNL     1      12.677   9.389   3.684 +8.87 +0.00    +0.044 C 
ATOM     13  C13 UNL     1      11.356   9.663   4.410+43.27 +0.00    +0.105 C 
ATOM     14  C14 UNL     1      10.659   8.375   4.746 -0.30 +0.00    +0.215 C 
ATOM     15  C15 UNL     1      14.077   7.249   4.278 -0.35 +0.00    +0.241 C 
ATOM     16  C16 UNL     1      13.094   4.977   4.012+99.99 +0.00    +0.205 C 
ATOM     17  C17 UNL     1      13.736   4.142   5.143+13.89 +0.00    +0.146 C 
ATOM     18  C18 UNL     1      12.928   4.144   6.438 -0.52 +0.00    +0.042 C 
ATOM     19  C19 UNL     1      11.686   4.457   3.629+12.01 +0.00    +0.243 C 
ATOM     20  C20 UNL     1      10.406   2.455   2.924+14.64 +0.00    +0.186 C 
ATOM     21  C21 UNL     1      10.590   1.313   1.917 +2.14 +0.00    +0.074 C 
ATOM     22  C22 UNL     1      10.879   1.807   0.519 +7.75 -0.00    -0.056 A 
ATOM     23  C23 UNL     1       9.827   2.169  -0.335 -0.17 +0.00    +0.007 A 
ATOM     24  C24 UNL     1      10.093   2.642  -1.620 -0.22 +0.00    +0.001 A 
ATOM     25  C25 UNL     1      11.408   2.761  -2.063+14.36 +0.00    +0.000 A 
ATOM     26  C26 UNL     1      12.461   2.409  -1.220+33.48 +0.00    +0.001 A 
ATOM     27  C27 UNL     1      12.198   1.934   0.066+88.33 +0.00    +0.007 A 
ATOM     28  C28 UNL     1       9.884   1.863   4.231+99.99 +0.00    +0.163 C 
ATOM     29  C29 UNL     1      20.524   7.235   4.080+75.42 +0.00    +0.241 C 
ATOM     30  C30 UNL     1      21.996   7.654   3.927+99.99 +0.00    +0.177 C 
ATOM     31  C31 UNL     1      22.115   9.136   3.533 -0.26 +0.00    +0.038 C 
ATOM     32  C32 UNL     1      21.747  10.158   4.628+21.79 -0.00    -0.020 C 
ATOM     33  C33 UNL     1      21.837  11.576   4.058+19.52 +0.00    +0.009 C 
ATOM     34  C34 UNL     1      22.650  10.045   5.858 +0.37 +0.00    +0.009 C 
ATOM     35  C35 UNL     1      23.902   6.572   2.760+99.99 +0.00    +0.241 C 
ATOM     36  C36 UNL     1      24.296   5.682   1.564 +0.20 +0.00    +0.176 C 
ATOM     37  C37 UNL     1      23.996   4.215   1.895 +0.80 +0.00    +0.035 C 
ATOM     38  C38 UNL     1      24.503   3.200   0.861+22.55 +0.00    +0.004 C 
ATOM     39  C39 UNL     1      23.921   3.410  -0.540 +9.69 +0.00    +0.030 C 
ATOM     40  C40 UNL     1      24.476   2.433  -1.580+61.62 +0.00    +0.267 C 
ATOM     41  C41 UNL     1      26.153   6.776   0.342 -0.26 +0.00    +0.241 C 
ATOM     42  C42 UNL     1      27.674   7.064   0.406 -0.28 +0.00    +0.177 C 
ATOM     43  C43 UNL     1      28.229   7.568  -0.940 -0.30 +0.00    +0.045 C 
ATOM     44  C44 UNL     1      29.587   8.265  -0.824 -0.16 +0.00    +0.112 C 
ATOM     45  C45 UNL     1      30.685   7.314  -0.441 -0.13 +0.00    +0.139 C 
ATOM     46  C46 UNL     1      28.581   4.748   0.322 -0.12 +0.00    +0.251 C 
ATOM     47  C47 UNL     1      29.772   3.896   0.819 -0.16 +0.00    +0.304 C 
ATOM     48  C48 UNL     1      29.291   2.507   1.217 -0.50 +0.00    +0.053 C 
ATOM     49  O1  UNL     1      17.375   9.207   6.198+99.99 -0.00    -0.271 OA
ATOM     50  O2  UNL     1      17.129  11.753   1.734 -0.27 -0.00    -0.393 OA
ATOM     51  O3  UNL     1      15.143   9.709   2.233 +0.22 -0.00    -0.271 OA
ATOM     52  O4  UNL     1      10.938   7.726   5.749 -0.27 -0.00    -0.274 OA
ATOM     53  O5  UNL     1      15.213   6.830   4.048 -0.01 -0.00    -0.271 OA
ATOM     54  O6  UNL     1      13.927   2.785   4.711+17.41 -0.00    -0.393 OA
ATOM     55  O7  UNL     1      10.671   5.154   3.679 -0.17 -0.00    -0.271 OA
ATOM     56  O8  UNL     1      10.550   1.522   5.198+11.53 -0.00    -0.648 OA
ATOM     57  O9  UNL     1       8.546   1.688   4.233+99.99 -0.00    -0.775 OA
ATOM     58  O10 UNL     1      19.853   6.832   3.128+91.39 -0.00    -0.271 OA
ATOM     59  O11 UNL     1      24.719   6.990   3.581+11.32 -0.00    -0.271 OA
ATOM     60  O12 UNL     1      25.384   7.385  -0.399 -0.26 -0.00    -0.271 OA
ATOM     61  O13 UNL     1      31.252   6.524  -1.175 +0.07 -0.00    -0.650 OA
ATOM     62  O14 UNL     1      30.944   7.343   0.882 +0.07 -0.00    -0.776 OA
ATOM     63  O15 UNL     1      27.836   4.382  -0.580 -0.25 -0.00    -0.271 OA
ATOM     64  N1  UNL     1      17.896   8.867   4.006 -0.25 -0.00    -0.344 N 
ATOM     65  N2  UNL     1      15.038   9.480   4.523 +1.14 -0.00    -0.346 N 
ATOM     66  N3  UNL     1       9.811   7.891   3.801 -0.20 -0.00    -0.370 N 
ATOM     67  N4  UNL     1      13.004   6.397   4.339 -0.15 -0.00    -0.344 N 
ATOM     68  N5  UNL     1      11.667   3.149   3.195+99.99 -0.00    -0.344 N 
ATOM     69  N6  UNL     1      20.000   7.377   5.346+43.94 -0.00    -0.346 N 
ATOM     70  N7  UNL     1      22.552   6.806   2.877+29.33 -0.00    -0.346 N 
ATOM     71  N8  UNL     1      24.103   1.050  -1.299+99.99 +0.00    +0.078 N 
ATOM     72  N9  UNL     1      25.711   5.890   1.303 -0.14 -0.00    -0.346 N 
ATOM     73  N10 UNL     1      28.442   5.957   0.980 +0.12 -0.00    -0.346 N 
ATOM     74  N11 UNL     1      30.475   4.555   1.956 -0.06 +0.00    +0.091 N 
ATOM     75  H62 UNL     1      16.267  11.424   1.406 +0.17 +0.00    +0.210 HD
ATOM     76  H63 UNL     1      14.378   2.318   5.439+39.75 +0.00    +0.210 HD
ATOM     77  H64 UNL     1       8.351   1.332   5.124 +0.39 +0.00    +0.167 HD
ATOM     78  H65 UNL     1      31.540   6.573   1.032 +0.06 +0.00    +0.167 HD
ATOM     79  H66 UNL     1      18.069   8.109   3.345 +0.11 +0.00    +0.163 HD
ATOM     80  H67 UNL     1      15.641   9.385   5.340 +0.21 +0.00    +0.163 HD
ATOM     81  H68 UNL     1       9.589   6.900   3.904 +0.09 +0.00    +0.159 HD
ATOM     82  H69 UNL     1       9.888   8.201   2.841 +0.08 +0.00    +0.159 HD
ATOM     83  H70 UNL     1      12.172   6.678   4.856 +0.11 +0.00    +0.163 HD
ATOM     84  H71 UNL     1      12.451   2.581   3.525 +2.21 +0.00    +0.163 HD
ATOM     85  H72 UNL     1      20.508   7.942   6.016 +5.97 +0.00    +0.163 HD
ATOM     86  H73 UNL     1      21.918   6.518   2.136 +4.85 +0.00    +0.163 HD
ATOM     87  H74 UNL     1      24.457   0.458  -2.050 -0.02 +0.00    +0.312 HD
ATOM     88  H75 UNL     1      24.579   0.738  -0.455 +0.83 +0.00    +0.312 HD
ATOM     89  H76 UNL     1      26.363   5.686   2.051 +0.20 +0.00    +0.163 HD
ATOM     90  H77 UNL     1      29.267   6.207   1.525 +0.08 +0.00    +0.163 HD
ATOM     91  H78 UNL     1      31.273   3.962   2.200 +0.11 +0.00    +0.313 HD
ATOM     92  H79 UNL     1      29.862   4.494   2.774 +0.30 +0.00    +0.313 HD
ENDROOT
TORSDOF 41
TER
