USER    Run = 1
USER    DPF = ligand_352_receptor.dpf
USER  
USER    Estimated Free Energy of Binding    = +824.34 kcal/mol  [=(1)+(2)+(3)-(4)]
USER    
USER    (1) Final Intermolecular Energy     = +823.15 kcal/mol
USER        vdW + Hbond + desolv Energy     = +823.15 kcal/mol
USER        Electrostatic Energy            =   +0.00 kcal/mol
USER    (2) Final Total Internal Energy     =  +33.30 kcal/mol
USER    (3) Torsional Free Energy           =   +1.19 kcal/mol
USER    (4) Unbound System's Energy  [=(2)] =  +33.30 kcal/mol
USER    
USER    
USER    NEWDPF move ligand_352.pdbqt
USER    NEWDPF about 0.000000 0.000000 0.000000
USER    NEWDPF tran0 20.648493 7.856106 0.929363
USER    NEWDPF quaternion0 0.374904 -0.404043 -0.462011 0.694796
USER    NEWDPF axisangle0 0.521274 -0.561790 -0.642390 91.978068
USER    NEWDPF quat0 0.521274 -0.561790 -0.642390 91.978068
USER    NEWDPF dihe0 -14.03 -71.80 -6.88 -150.88 5.31 -54.86 145.11 -46.94 -12.88 89.58 24.83 -132.43 26.31 63.87 -149.48 -179.96 20.48 -20.59 -180.00 -175.21 23.86 -180.00 -18.65 5.76 
USER  keepresnum = 1 
USER  
REMARK  24 active torsions:
REMARK  status: ('A' for Active; 'I' for Inactive)
REMARK    1  A    between atoms: C5_5  and  C13_13 
REMARK    2  A    between atoms: C7_7  and  C9_9 
REMARK       I    between atoms: C13_13  and  N1_93 
REMARK    3  A    between atoms: C14_14  and  N1_93 
REMARK    4  A    between atoms: C15_15  and  O8_83 
REMARK    5  A    between atoms: C17_17  and  C20_20 
REMARK       I    between atoms: C20_20  and  N2_94 
REMARK    6  A    between atoms: C21_21  and  N2_94 
REMARK    7  A    between atoms: C22_22  and  O7_82 
REMARK    8  A    between atoms: C24_24  and  C27_27 
REMARK       I    between atoms: C27_27  and  N3_95 
REMARK    9  A    between atoms: C28_28  and  N3_95 
REMARK   10  A    between atoms: C29_29  and  O6_81 
REMARK   11  A    between atoms: C31_31  and  C34_34 
REMARK   12  A    between atoms: C34_34  and  O5_80 
REMARK   13  A    between atoms: C42_42  and  C71_71 
REMARK   14  A    between atoms: C44_44  and  C45_45 
REMARK       I    between atoms: C45_45  and  N4_96 
REMARK   15  A    between atoms: C46_46  and  N4_96 
REMARK   16  A    between atoms: C47_47  and  O17_92 
REMARK   17  A    between atoms: C49_49  and  C52_52 
REMARK       I    between atoms: C52_52  and  N5_97 
REMARK   18  A    between atoms: C53_53  and  N5_97 
REMARK   19  A    between atoms: C54_54  and  O16_91 
REMARK   20  A    between atoms: C56_56  and  C59_59 
REMARK       I    between atoms: C59_59  and  N6_98 
REMARK   21  A    between atoms: C60_60  and  N6_98 
REMARK   22  A    between atoms: C61_61  and  O15_90 
REMARK   23  A    between atoms: C63_63  and  C66_66 
REMARK   24  A    between atoms: C66_66  and  O14_89 
USER                              x       y       z     vdW  Elec       q    Type
USER                           _______ _______ _______ _____ _____    ______ ____
ROOT
ATOM      1  C1  UNL     1      30.991   6.148  -1.452 -0.08 +0.00    +0.025 C 
ATOM      2  C2  UNL     1      30.375   6.444  -0.062 -0.14 +0.00    +0.012 A 
ATOM      3  C3  UNL     1      29.767   7.845  -0.090 -0.25 -0.00    -0.010 A 
ATOM      4  C4  UNL     1      28.405   8.038   0.140 -0.26 +0.00    +0.099 A 
ATOM      5  C5  UNL     1      27.861   9.333   0.066 +5.58 +0.00    +0.067 A 
ATOM      6  C6  UNL     1      28.687  10.442  -0.183+83.30 +0.00    +0.027 A 
ATOM      7  C7  UNL     1      30.061  10.292  -0.399 +1.98 -0.00    -0.049 A 
ATOM      8  C8  UNL     1      30.570   8.980  -0.356 -0.25 +0.00    +0.019 A 
ATOM      9  C39 UNL     1      28.007   5.722   0.532 -0.10 +0.00    +0.099 A 
ATOM     10  C40 UNL     1      29.332   5.374   0.257 -0.20 -0.00    -0.010 A 
ATOM     11  C41 UNL     1      29.691   4.005   0.293 -0.24 +0.00    +0.019 A 
ATOM     12  C42 UNL     1      28.774   2.979   0.586 -0.34 -0.00    -0.049 A 
ATOM     13  C43 UNL     1      27.462   3.368   0.870+19.96 +0.00    +0.027 A 
ATOM     14  C44 UNL     1      27.076   4.721   0.862 +0.95 +0.00    +0.067 A 
ATOM     15  C75 UNL     1      31.478   6.398   1.023 -0.22 +0.00    +0.025 C 
ATOM     16  O9  UNL     1      27.553   7.014   0.469 -0.18 -0.00    -0.308 OA
ENDROOT
BRANCH   5  17
ATOM     17  C13 UNL     1      26.408   9.615   0.245+17.00 +0.00    +0.259 C 
ATOM     18  O1  UNL     1      26.073  10.397   1.128 +2.42 -0.00    -0.267 OA
ATOM     19  N1  UNL     1      25.584   8.991  -0.663 +9.24 -0.00    -0.320 N 
ATOM     20  H71 UNL     1      26.011   8.394  -1.366 +0.75 +0.00    +0.169 HD
BRANCH  19  21
ATOM     21  C14 UNL     1      24.174   8.969  -0.699 +0.94 +0.00    +0.068 A 
ATOM     22  C15 UNL     1      23.576   7.835  -1.295 -0.23 +0.00    +0.096 A 
ATOM     23  C16 UNL     1      22.186   7.707  -1.306 +0.86 +0.00    +0.056 A 
ATOM     24  C17 UNL     1      21.399   8.697  -0.708 +2.27 +0.00    +0.035 A 
ATOM     25  C18 UNL     1      21.987   9.820  -0.122 -0.34 +0.00    +0.019 A 
ATOM     26  C19 UNL     1      23.375   9.962  -0.131 +0.15 +0.00    +0.033 A 
BRANCH  22  27
ATOM     27  O8  UNL     1      24.453   6.916  -1.827 -0.35 -0.00    -0.354 OA
ATOM     28  C38 UNL     1      24.004   5.568  -1.901 +0.90 +0.00    +0.210 C 
ENDBRANCH  22  27
BRANCH  24  29
ATOM     29  C20 UNL     1      19.928   8.552  -0.638+31.60 +0.00    +0.256 C 
ATOM     30  O2  UNL     1      19.328   8.294  -1.674 +7.95 -0.00    -0.267 OA
ATOM     31  N2  UNL     1      19.407   8.726   0.624+53.77 -0.00    -0.321 N 
ATOM     32  H72 UNL     1      20.046   8.934   1.385 +0.25 +0.00    +0.169 HD
BRANCH  31  33
ATOM     33  C21 UNL     1      18.062   8.610   1.035 +2.12 +0.00    +0.068 A 
ATOM     34  C22 UNL     1      17.697   9.282   2.224 -0.40 +0.00    +0.096 A 
ATOM     35  C23 UNL     1      16.382   9.206   2.693 -0.45 +0.00    +0.056 A 
ATOM     36  C24 UNL     1      15.433   8.456   1.987 +0.20 +0.00    +0.035 A 
ATOM     37  C25 UNL     1      15.792   7.801   0.807 +2.94 +0.00    +0.019 A 
ATOM     38  C26 UNL     1      17.105   7.873   0.336 +1.67 +0.00    +0.033 A 
BRANCH  34  39
ATOM     39  O7  UNL     1      18.712   9.984   2.835 -0.22 -0.00    -0.354 OA
ATOM     40  C37 UNL     1      18.670  11.404   2.741 -0.19 +0.00    +0.210 C 
ENDBRANCH  34  39
BRANCH  36  41
ATOM     41  C27 UNL     1      14.021   8.363   2.449 +7.64 +0.00    +0.256 C 
ATOM     42  O3  UNL     1      13.740   8.821   3.549 -0.24 -0.00    -0.267 OA
ATOM     43  N3  UNL     1      13.160   7.776   1.546 +9.25 -0.00    -0.321 N 
ATOM     44  H73 UNL     1      13.505   7.559   0.617 -0.17 +0.00    +0.169 HD
BRANCH  43  45
ATOM     45  C28 UNL     1      11.780   7.515   1.702 +1.29 +0.00    +0.068 A 
ATOM     46  C29 UNL     1      11.228   6.500   0.889 -0.29 +0.00    +0.096 A 
ATOM     47  C30 UNL     1       9.870   6.184   0.992 -0.23 +0.00    +0.056 A 
ATOM     48  C31 UNL     1       9.053   6.872   1.901 -0.28 +0.00    +0.042 A 
ATOM     49  C32 UNL     1       9.606   7.874   2.706 -0.25 +0.00    +0.020 A 
ATOM     50  C33 UNL     1      10.964   8.193   2.607 +2.64 +0.00    +0.033 A 
BRANCH  46  51
ATOM     51  O6  UNL     1      12.117   5.883   0.036 -0.33 -0.00    -0.354 OA
ATOM     52  C36 UNL     1      11.612   4.827  -0.774 +0.17 +0.00    +0.210 C 
ENDBRANCH  46  51
BRANCH  48  53
ATOM     53  C34 UNL     1       7.602   6.575   2.054 -0.17 +0.00    +0.293 C 
ATOM     54  O4  UNL     1       6.928   6.960   2.997 -0.17 -0.00    -0.259 OA
BRANCH  53  55
ATOM     55  O5  UNL     1       7.152   5.830   1.012 -0.09 -0.00    -0.323 OA
ATOM     56  C35 UNL     1       8.149   4.984   0.435 -0.09 +0.00    +0.213 C 
ENDBRANCH  53  55
ENDBRANCH  48  53
ENDBRANCH  43  45
ENDBRANCH  36  41
ENDBRANCH  31  33
ENDBRANCH  24  29
ENDBRANCH  19  21
ENDBRANCH   5  17
BRANCH   7  57
ATOM     57  C9  UNL     1      30.996  11.481  -0.680 +4.92 -0.00    -0.024 C 
ATOM     58  C10 UNL     1      31.616  12.104   0.591+29.80 +0.00    +0.019 C 
ATOM     59  C11 UNL     1      32.166  11.020  -1.577 +1.78 +0.00    +0.019 C 
ATOM     60  C12 UNL     1      30.213  12.599  -1.401+99.99 +0.00    +0.019 C 
ENDBRANCH   7  57
BRANCH  14  61
ATOM     61  C45 UNL     1      25.655   4.995   1.232 +0.13 +0.00    +0.259 C 
ATOM     62  O10 UNL     1      24.812   4.151   0.942 -0.42 -0.00    -0.267 OA
ATOM     63  N4  UNL     1      25.442   6.160   1.930 -0.10 -0.00    -0.320 N 
ATOM     64  H74 UNL     1      26.226   6.792   2.067 +0.12 +0.00    +0.169 HD
BRANCH  63  65
ATOM     65  C46 UNL     1      24.241   6.636   2.503+16.27 +0.00    +0.068 A 
ATOM     66  C47 UNL     1      23.108   5.808   2.378+80.50 +0.00    +0.096 A 
ATOM     67  C48 UNL     1      21.882   6.217   2.912+83.56 +0.00    +0.056 A 
ATOM     68  C49 UNL     1      21.771   7.444   3.585+31.25 +0.00    +0.035 A 
ATOM     69  C50 UNL     1      22.898   8.266   3.700 +2.91 +0.00    +0.019 A 
ATOM     70  C51 UNL     1      24.128   7.861   3.164 +1.41 +0.00    +0.033 A 
BRANCH  66  71
ATOM     71  O17 UNL     1      23.311   4.630   1.695 -0.22 -0.00    -0.354 OA
ATOM     72  C70 UNL     1      22.238   3.694   1.706 +2.83 +0.00    +0.210 C 
ENDBRANCH  66  71
BRANCH  68  73
ATOM     73  C52 UNL     1      20.418   7.856   4.078+17.04 +0.00    +0.256 C 
ATOM     74  O11 UNL     1      20.363   8.763   4.905 +3.61 -0.00    -0.267 OA
ATOM     75  N5  UNL     1      19.342   7.158   3.568 +1.54 -0.00    -0.321 N 
ATOM     76  H75 UNL     1      19.486   6.559   2.755+11.44 +0.00    +0.169 HD
BRANCH  75  77
ATOM     77  C53 UNL     1      17.989   7.223   3.980 +2.88 +0.00    +0.068 A 
ATOM     78  C54 UNL     1      17.024   6.653   3.121 +5.11 +0.00    +0.096 A 
ATOM     79  C55 UNL     1      15.669   6.707   3.461+30.30 +0.00    +0.056 A 
ATOM     80  C56 UNL     1      15.268   7.309   4.660 -0.30 +0.00    +0.035 A 
ATOM     81  C57 UNL     1      16.225   7.828   5.534+19.56 +0.00    +0.019 A 
ATOM     82  C58 UNL     1      17.580   7.787   5.192 +8.36 +0.00    +0.033 A 
BRANCH  78  83
ATOM     83  O16 UNL     1      17.512   6.059   1.981 +1.19 -0.00    -0.354 OA
ATOM     84  C69 UNL     1      17.483   4.637   1.939+51.59 +0.00    +0.210 C 
ENDBRANCH  78  83
BRANCH  80  85
ATOM     85  C59 UNL     1      13.814   7.341   4.972 -0.35 +0.00    +0.256 C 
ATOM     86  O12 UNL     1      13.359   8.375   5.444 -0.27 -0.00    -0.267 OA
ATOM     87  N6  UNL     1      13.122   6.190   4.639 -0.15 -0.00    -0.321 N 
ATOM     88  H76 UNL     1      13.598   5.523   4.050 +0.19 +0.00    +0.169 HD
BRANCH  87  89
ATOM     89  C60 UNL     1      11.762   5.907   4.907 -0.29 +0.00    +0.068 A 
ATOM     90  C61 UNL     1      10.722   6.850   4.919 -0.27 +0.00    +0.096 A 
ATOM     91  C62 UNL     1       9.407   6.446   5.199 +0.15 +0.00    +0.056 A 
ATOM     92  C63 UNL     1       9.115   5.103   5.466 -0.27 +0.00    +0.042 A 
ATOM     93  C64 UNL     1      10.153   4.167   5.484 -0.39 +0.00    +0.020 A 
ATOM     94  C65 UNL     1      11.466   4.572   5.222 -0.33 +0.00    +0.033 A 
BRANCH  90  95
ATOM     95  O15 UNL     1      11.009   8.189   4.851 -0.26 -0.00    -0.354 OA
ATOM     96  C68 UNL     1      11.294   8.759   6.128 +0.89 +0.00    +0.210 C 
ENDBRANCH  90  95
BRANCH  92  97
ATOM     97  C66 UNL     1       7.700   4.735   5.749 -0.22 +0.00    +0.293 C 
ATOM     98  O13 UNL     1       6.742   5.370   5.339 -0.18 -0.00    -0.259 OA
BRANCH  97  99
ATOM     99  O14 UNL     1       7.642   3.614   6.511 -0.23 -0.00    -0.323 OA
ATOM    100  C67 UNL     1       6.743   3.714   7.618 +0.41 +0.00    +0.213 C 
ENDBRANCH  97  99
ENDBRANCH  92  97
ENDBRANCH  87  89
ENDBRANCH  80  85
ENDBRANCH  75  77
ENDBRANCH  68  73
ENDBRANCH  63  65
ENDBRANCH  14  61
BRANCH  12 101
ATOM    101  C71 UNL     1      29.230   1.509   0.597 +1.72 -0.00    -0.024 C 
ATOM    102  C72 UNL     1      30.527   1.261   1.399 +0.22 +0.00    +0.019 C 
ATOM    103  C73 UNL     1      29.490   1.036  -0.850 +7.22 +0.00    +0.019 C 
ATOM    104  C74 UNL     1      28.128   0.629   1.229+20.58 +0.00    +0.019 C 
ENDBRANCH  12 101
TORSDOF 24
TER
