USER    Run = 1
USER    DPF = ligand_294_receptor.dpf
USER  
USER    Estimated Free Energy of Binding    =  +4.55e+003 kcal/mol  [=(1)+(2)+(3)-(4)]
USER    
USER    (1) Final Intermolecular Energy     =  +4.55e+003 kcal/mol
USER        vdW + Hbond + desolv Energy     =  +4.55e+003 kcal/mol
USER        Electrostatic Energy            =   +0.00 kcal/mol
USER    (2) Final Total Internal Energy     =   +0.00 kcal/mol
USER    (3) Torsional Free Energy           =   +1.19 kcal/mol
USER    (4) Unbound System's Energy  [=(2)] =   +0.00 kcal/mol
USER    
USER    
USER    NEWDPF move ligand_294.pdbqt
USER    NEWDPF about 0.000000 0.000000 0.000000
USER    NEWDPF tran0 10.001754 5.584919 3.528465
USER    NEWDPF quaternion0 -0.087344 0.028358 -0.092660 -0.991454
USER    NEWDPF axisangle0 -0.669523 0.217372 -0.710273 -14.991972
USER    NEWDPF quat0 -0.669523 0.217372 -0.710273 -14.991972
USER  keepresnum = 1 
USER  
REMARK  0 active torsions:
REMARK  status: ('A' for Active; 'I' for Inactive)
REMARK       I    between atoms: C2_2  and  C3_3 
REMARK       I    between atoms: C3_3  and  C5_5 
REMARK       I    between atoms: C5_5  and  C6_6 
REMARK       I    between atoms: C5_5  and  N9_80 
REMARK       I    between atoms: C6_6  and  N1_72 
REMARK       I    between atoms: C7_7  and  C8_8 
REMARK       I    between atoms: C7_7  and  C12_12 
REMARK       I    between atoms: C7_7  and  N1_72 
REMARK       I    between atoms: C8_8  and  C10_10 
REMARK       I    between atoms: C12_12  and  N2_73 
REMARK       I    between atoms: C13_13  and  C16_16 
REMARK       I    between atoms: C13_13  and  N2_73 
REMARK       I    between atoms: C16_16  and  N3_74 
REMARK       I    between atoms: C20_20  and  C21_21 
REMARK       I    between atoms: C21_21  and  N4_75 
REMARK       I    between atoms: C22_22  and  C23_23 
REMARK       I    between atoms: C22_22  and  C27_27 
REMARK       I    between atoms: C22_22  and  N4_75 
REMARK       I    between atoms: C23_23  and  C24_24 
REMARK       I    between atoms: C27_27  and  N5_76 
REMARK       I    between atoms: C28_28  and  C29_29 
REMARK       I    between atoms: C28_28  and  C33_33 
REMARK       I    between atoms: C28_28  and  N5_76 
REMARK       I    between atoms: C29_29  and  C30_30 
REMARK       I    between atoms: C33_33  and  N6_77 
REMARK       I    between atoms: C34_34  and  C37_37 
REMARK       I    between atoms: C34_34  and  N6_77 
REMARK       I    between atoms: C37_37  and  N7_78 
REMARK       I    between atoms: C41_41  and  C42_42 
REMARK       I    between atoms: C42_42  and  N8_79 
REMARK       I    between atoms: C43_43  and  C44_44 
REMARK       I    between atoms: C43_43  and  C48_48 
REMARK       I    between atoms: C43_43  and  N8_79 
REMARK       I    between atoms: C44_44  and  C45_45 
REMARK       I    between atoms: C48_48  and  O9_67 
REMARK       I    between atoms: C49_49  and  C50_50 
REMARK       I    between atoms: C49_49  and  N9_80 
REMARK       I    between atoms: C50_50  and  C51_51 
REMARK       I    between atoms: C50_50  and  N11_82 
REMARK       I    between atoms: C51_51  and  C52_52 
REMARK       I    between atoms: C52_52  and  N10_81 
REMARK       I    between atoms: C53_53  and  C54_54 
REMARK       I    between atoms: C53_53  and  N11_82 
REMARK       I    between atoms: C54_54  and  N12_83 
REMARK       I    between atoms: C57_57  and  N12_83 
USER                              x       y       z     vdW  Elec       q    Type
USER                           _______ _______ _______ _____ _____    ______ ____
ROOT
ATOM      1  C1  UNL     1       3.983   0.943   6.857+62.07 +0.00    +0.005 C 
ATOM      2  C2  UNL     1       4.391  -0.065   5.792+99.99 +0.00    +0.002 C 
ATOM      3  C3  UNL     1       4.799   0.543   4.427 -0.13 +0.00    +0.013 C 
ATOM      4  C4  UNL     1       4.847  -0.603   3.402 +3.46 +0.00    +0.012 C 
ATOM      5  C5  UNL     1       6.148   1.306   4.479+26.14 +0.00    +0.180 C 
ATOM      6  C6  UNL     1       6.608   1.752   3.061 -0.23 +0.00    +0.241 C 
ATOM      7  C7  UNL     1       6.449   3.550   1.351 -0.07 +0.00    +0.180 C 
ATOM      8  C8  UNL     1       5.327   3.615   0.284 -0.13 +0.00    +0.013 C 
ATOM      9  C9  UNL     1       5.005   2.218  -0.258 -0.12 +0.00    +0.012 C 
ATOM     10  C10 UNL     1       4.061   4.387   0.722 -0.11 +0.00    +0.002 C 
ATOM     11  C11 UNL     1       3.030   3.611   1.530 -0.09 +0.00    +0.005 C 
ATOM     12  C12 UNL     1       7.001   4.958   1.696 -0.07 +0.00    +0.241 C 
ATOM     13  C13 UNL     1       8.326   6.889   0.835 -0.30 +0.00    +0.101 C 
ATOM     14  C14 UNL     1       7.400   7.989   1.374 -0.22 +0.00    +0.048 C 
ATOM     15  C15 UNL     1       8.843   7.362  -0.538 -0.40 +0.00    +0.048 C 
ATOM     16  C16 UNL     1       9.593   6.564   1.687 -0.20 +0.00    +0.228 C 
ATOM     17  C17 UNL     1       9.585   7.731   3.759 -0.36 +0.00    +0.099 C 
ATOM     18  C18 UNL     1      10.523   6.916   4.654 -0.37 +0.00    +0.017 C 
ATOM     19  C19 UNL     1      11.796   6.705   3.832 -0.40 +0.00    +0.031 C 
ATOM     20  C20 UNL     1      11.595   7.585   2.613 -0.08 +0.00    +0.158 C 
ATOM     21  C21 UNL     1      12.405   7.336   1.321 +1.58 +0.00    +0.236 C 
ATOM     22  C22 UNL     1      14.261   6.037   0.226+99.99 +0.00    +0.177 C 
ATOM     23  C23 UNL     1      13.614   5.901  -1.160 +6.29 +0.00    +0.038 C 
ATOM     24  C24 UNL     1      12.442   4.904  -1.242+12.88 -0.00    -0.020 C 
ATOM     25  C25 UNL     1      11.858   4.906  -2.657+21.61 +0.00    +0.009 C 
ATOM     26  C26 UNL     1      12.848   3.483  -0.852+99.99 +0.00    +0.009 C 
ATOM     27  C27 UNL     1      15.423   7.048   0.222+34.45 +0.00    +0.241 C 
ATOM     28  C28 UNL     1      15.969   9.464   0.357 -0.15 +0.00    +0.177 C 
ATOM     29  C29 UNL     1      15.799  10.700  -0.547+49.78 +0.00    +0.038 C 
ATOM     30  C30 UNL     1      14.397  11.301  -0.800+96.48 -0.00    -0.020 C 
ATOM     31  C31 UNL     1      13.535  11.463   0.448+33.70 +0.00    +0.009 C 
ATOM     32  C32 UNL     1      13.628  10.573  -1.907+99.99 +0.00    +0.009 C 
ATOM     33  C33 UNL     1      15.937   9.803   1.884 -0.24 +0.00    +0.241 C 
ATOM     34  C34 UNL     1      15.978   8.659   4.178 -0.43 +0.00    +0.106 C 
ATOM     35  C35 UNL     1      14.906   9.550   4.812 +5.36 +0.00    +0.048 C 
ATOM     36  C36 UNL     1      17.393   9.081   4.584 -0.16 +0.00    +0.048 C 
ATOM     37  C37 UNL     1      15.657   7.153   4.524 +0.49 +0.00    +0.248 C 
ATOM     38  C38 UNL     1      16.541   7.224   6.928+99.99 +0.00    +0.127 C 
ATOM     39  C39 UNL     1      16.351   6.222   8.058+99.99 +0.00    +0.022 C 
ATOM     40  C40 UNL     1      16.292   4.887   7.324+99.99 +0.00    +0.037 C 
ATOM     41  C41 UNL     1      15.523   5.235   6.050+99.99 +0.00    +0.179 C 
ATOM     42  C42 UNL     1      14.007   5.058   6.283 +0.08 +0.00    +0.241 C 
ATOM     43  C43 UNL     1      12.127   3.390   6.180 +0.40 +0.00    +0.108 C 
ATOM     44  C44 UNL     1      11.920   1.976   5.592+98.87 +0.00    +0.031 C 
ATOM     45  C45 UNL     1      11.908   1.854   4.050+22.80 -0.00    -0.021 C 
ATOM     46  C46 UNL     1      10.670   2.505   3.431 +5.05 +0.00    +0.009 C 
ATOM     47  C47 UNL     1      13.174   2.369   3.369+99.99 +0.00    +0.009 C 
ATOM     48  C48 UNL     1      11.627   3.439   7.647 -0.16 +0.00    +0.189 C 
ATOM     49  C49 UNL     1       7.126   3.124   5.850+15.06 +0.00    +0.241 C 
ATOM     50  C50 UNL     1       6.957   4.625   6.228 -0.34 +0.00    +0.185 C 
ATOM     51  C51 UNL     1       7.881   4.891   7.426 -0.45 +0.00    +0.137 C 
ATOM     52  C52 UNL     1       8.158   6.359   7.628 +2.62 +0.00    +0.217 C 
ATOM     53  C53 UNL     1       4.645   5.282   5.511 -0.18 +0.00    +0.246 C 
ATOM     54  C54 UNL     1       3.709   6.514   5.687 -0.17 +0.00    +0.106 C 
ATOM     55  C55 UNL     1       2.373   6.285   4.970 -0.15 +0.00    +0.048 C 
ATOM     56  C56 UNL     1       4.433   7.697   5.016+94.84 +0.00    +0.048 C 
ATOM     57  C57 UNL     1       2.875   6.001   7.990 +0.62 +0.00    +0.214 C 
ATOM     58  C58 UNL     1       2.629   6.598   9.349+99.99 +0.00    +0.117 C 
ATOM     59  O1  UNL     1       7.333   1.047   2.358 +0.02 -0.00    -0.271 OA
ATOM     60  O2  UNL     1       6.900   5.454   2.817 -0.09 -0.00    -0.271 OA
ATOM     61  O3  UNL     1      10.160   5.471   1.591 -0.12 -0.00    -0.277 OA
ATOM     62  O4  UNL     1      12.212   8.023   0.315+32.55 -0.00    -0.272 OA
ATOM     63  O5  UNL     1      16.574   6.717   0.509 +7.51 -0.00    -0.271 OA
ATOM     64  O6  UNL     1      16.078  10.939   2.325 -0.33 -0.00    -0.271 OA
ATOM     65  O7  UNL     1      15.142   6.425   3.656 +8.06 -0.00    -0.271 OA
ATOM     66  O8  UNL     1      13.273   5.963   6.680 -0.30 -0.00    -0.271 OA
ATOM     67  O9  UNL     1      11.387   4.781   8.090 -0.19 -0.00    -0.399 OA
ATOM     68  O10 UNL     1       8.215   2.553   5.925 +4.61 -0.00    -0.271 OA
ATOM     69  O11 UNL     1       7.411   7.259   7.256+99.99 -0.00    -0.274 OA
ATOM     70  O12 UNL     1       4.631   4.572   4.505 -0.09 -0.00    -0.271 OA
ATOM     71  O13 UNL     1       2.525   4.862   7.707 -0.21 -0.00    -0.274 OA
ATOM     72  N1  UNL     1       6.020   2.906   2.584 -0.05 -0.00    -0.346 N 
ATOM     73  N2  UNL     1       7.613   5.609   0.639 -0.04 -0.00    -0.342 N 
ATOM     74  N3  UNL     1      10.142   7.630   2.417 -0.18 -0.00    -0.238 NA
ATOM     75  N4  UNL     1      13.371   6.361   1.351 +6.32 -0.00    -0.346 N 
ATOM     76  N5  UNL     1      15.071   8.364   0.011 +0.51 -0.00    -0.346 N 
ATOM     77  N6  UNL     1      15.881   8.694   2.702 -0.23 -0.00    -0.342 N 
ATOM     78  N7  UNL     1      15.865   6.635   5.782 +1.40 -0.00    -0.337 N 
ATOM     79  N8  UNL     1      13.548   3.771   6.105 +0.09 -0.00    -0.353 N 
ATOM     80  N9  UNL     1       6.032   2.513   5.294+11.60 -0.00    -0.346 N 
ATOM     81  N10 UNL     1       9.285   6.627   8.348+52.30 -0.00    -0.370 N 
ATOM     82  N11 UNL     1       5.602   5.136   6.501 -0.21 -0.00    -0.345 N 
ATOM     83  N12 UNL     1       3.524   6.846   7.114 -0.15 -0.00    -0.344 N 
ATOM     84  H91 UNL     1      12.097   5.333   7.692 +0.17 +0.00    +0.209 HD
ATOM     85  H92 UNL     1       5.597   3.534   3.270 +0.07 +0.00    +0.163 HD
ATOM     86  H93 UNL     1       8.067   4.978  -0.013 +0.07 +0.00    +0.163 HD
ATOM     87  H94 UNL     1      13.737   6.101   2.267 -0.15 +0.00    +0.163 HD
ATOM     88  H95 UNL     1      14.069   8.551   0.029 +1.10 +0.00    +0.163 HD
ATOM     89  H96 UNL     1      16.077   7.803   2.251 -0.26 +0.00    +0.163 HD
ATOM     90  H97 UNL     1      14.200   3.076   5.760 +0.17 +0.00    +0.163 HD
ATOM     91  H98 UNL     1       5.222   3.104   5.128 -0.06 +0.00    +0.163 HD
ATOM     92  H99 UNL     1      10.029   5.928   8.419 +0.21 +0.00    +0.159 HD
ATOM     93  HA0 UNL     1       9.567   7.594   8.436+99.99 +0.00    +0.159 HD
ATOM     94  HA1 UNL     1       5.589   5.931   7.136 +0.07 +0.00    +0.163 HD
ATOM     95  HA2 UNL     1       3.559   7.827   7.364 +0.06 +0.00    +0.163 HD
ENDROOT
TORSDOF 33
TER
