USER    Run = 1
USER    DPF = ligand_136_receptor.dpf
USER  
USER    Estimated Free Energy of Binding    =  +21.77 kcal/mol  [=(1)+(2)+(3)-(4)]
USER    
USER    (1) Final Intermolecular Energy     =  +20.58 kcal/mol
USER        vdW + Hbond + desolv Energy     =  +20.58 kcal/mol
USER        Electrostatic Energy            =   +0.00 kcal/mol
USER    (2) Final Total Internal Energy     =   +4.21 kcal/mol
USER    (3) Torsional Free Energy           =   +1.19 kcal/mol
USER    (4) Unbound System's Energy  [=(2)] =   +4.21 kcal/mol
USER    
USER    
USER    NEWDPF move ligand_136.pdbqt
USER    NEWDPF about 0.000000 0.000000 0.000000
USER    NEWDPF tran0 11.093808 8.522944 2.632877
USER    NEWDPF quaternion0 0.268910 -0.337370 0.894501 -0.117208
USER    NEWDPF axisangle0 0.270776 -0.339711 0.900709 -166.538021
USER    NEWDPF quat0 0.270776 -0.339711 0.900709 -166.538021
USER    NEWDPF dihe0 -171.89 79.34 157.98 96.53 10.61 110.15 99.82 139.60 -180.00 36.85 21.19 9.90 -97.03 20.47 -90.95 146.57 137.16 -180.00 -23.03 -180.00 150.67 97.97 -59.20 -138.18 
USER  keepresnum = 1 
USER  
REMARK  24 active torsions:
REMARK  status: ('A' for Active; 'I' for Inactive)
REMARK    1  A    between atoms: C4_4  and  N6_41 
REMARK    2  A    between atoms: C5_5  and  S1_57 
REMARK    3  A    between atoms: C6_6  and  N1_35 
REMARK    4  A    between atoms: C7_7  and  C8_8 
REMARK       I    between atoms: C7_7  and  N1_35 
REMARK    5  A    between atoms: C8_8  and  C9_9 
REMARK    6  A    between atoms: C9_9  and  C10_10 
REMARK    7  A    between atoms: C10_10  and  C11_11 
REMARK    8  A    between atoms: C11_11  and  N2_36 
REMARK    9  A    between atoms: C12_12  and  C13_13 
REMARK   10  A    between atoms: C12_12  and  S1_57 
REMARK   11  A    between atoms: C13_13  and  N3_37 
REMARK       I    between atoms: C14_14  and  N4_39 
REMARK       I    between atoms: C14_14  and  N5_40 
REMARK   12  A    between atoms: C15_15  and  C16_16 
REMARK       I    between atoms: C15_15  and  N6_41 
REMARK   13  A    between atoms: C18_18  and  C20_20 
REMARK       I    between atoms: C20_20  and  N9_46 
REMARK   14  A    between atoms: C21_21  and  N9_46 
REMARK   15  A    between atoms: C25_25  and  N13_51 
REMARK   16  A    between atoms: C26_26  and  S2_58 
REMARK   17  A    between atoms: C27_27  and  C28_28 
REMARK   18  A    between atoms: C27_27  and  S2_58 
REMARK   19  A    between atoms: C28_28  and  N10_47 
REMARK       I    between atoms: C29_29  and  N11_49 
REMARK       I    between atoms: C29_29  and  N12_50 
REMARK   20  A    between atoms: C30_30  and  C31_31 
REMARK       I    between atoms: C30_30  and  N13_51 
REMARK   21  A    between atoms: C31_31  and  C32_32 
REMARK   22  A    between atoms: C32_32  and  C33_33 
REMARK   23  A    between atoms: C33_33  and  C34_34 
REMARK   24  A    between atoms: C34_34  and  N14_52 
USER                              x       y       z     vdW  Elec       q    Type
USER                           _______ _______ _______ _____ _____    ______ ____
ROOT
ATOM      1  C16 UNL     1      12.178   6.523   2.577 -0.23 +0.00    +0.104 A 
ATOM      2  C17 UNL     1      10.846   6.607   2.259 -0.29 +0.00    +0.070 A 
ATOM      3  C18 UNL     1       9.997   6.465   3.329 -0.24 +0.00    +0.104 A 
ATOM      4  C19 UNL     1      11.730   6.182   4.786 -0.22 +0.00    +0.181 A 
ATOM      5  N7  UNL     1      10.408   6.256   4.607 -0.09 -0.00    -0.348 N 
ATOM      6  H7  UNL     1       9.749   6.161   5.381 +0.10 +0.00    +0.167 HD
ATOM      7  N8  UNL     1      12.657   6.306   3.830 -0.07 -0.00    -0.348 N 
ATOM      8  H8  UNL     1      13.655   6.241   4.029 +0.05 +0.00    +0.167 HD
ENDROOT
BRANCH   1   9
ATOM      9  C15 UNL     1      13.209   6.670   1.499 +2.18 +0.00    +0.272 C 
ATOM     10  N6  UNL     1      14.038   7.764   1.680 +2.86 -0.00    -0.320 N 
ATOM     11  H38 UNL     1      14.030   8.117   2.634 -0.27 +0.00    +0.169 HD
ATOM     12  O2  UNL     1      13.289   5.821   0.620 +0.82 -0.00    -0.266 OA
BRANCH  10  13
ATOM     13  C4  UNL     1      15.140   8.101   0.863 +2.28 +0.00    +0.057 A 
ATOM     14  C3  UNL     1      15.200   7.438  -0.368 +0.70 +0.00    +0.073 A 
ATOM     15  C2  UNL     1      16.201   7.748  -1.279 +0.42 +0.00    +0.120 A 
ATOM     16  C1  UNL     1      17.172   8.694  -0.991 -0.26 +0.00    +0.073 A 
ATOM     17  F2  UNL     1      16.214   7.129  -2.467 +0.20 -0.00    -0.206 F 
ATOM     18  C6  UNL     1      17.178   9.320   0.256 -0.47 +0.00    +0.056 A 
ATOM     19  C5  UNL     1      16.169   9.010   1.211 -0.40 +0.00    +0.054 A 
BRANCH  18  20
ATOM     20  N1  UNL     1      18.176  10.260   0.615 -0.21 -0.00    -0.326 N 
ATOM     21  C7  UNL     1      19.170  10.108   1.562 -0.32 +0.00    +0.222 C 
ATOM     22  O1  UNL     1      19.339   9.123   2.275 -0.12 -0.00    -0.273 OA
ATOM     23  H31 UNL     1      17.973  11.207   0.301 +0.14 +0.00    +0.169 HD
BRANCH  21  24
ATOM     24  C8  UNL     1      20.045  11.350   1.656 -0.53 +0.00    +0.103 C 
BRANCH  24  25
ATOM     25  C9  UNL     1      19.675  12.401   0.611 -0.69 +0.00    +0.011 C 
BRANCH  25  26
ATOM     26  C10 UNL     1      20.144  12.042  -0.804 +0.49 +0.00    +0.030 C 
BRANCH  26  27
ATOM     27  C11 UNL     1      21.617  11.647  -0.935 +2.30 +0.00    +0.267 C 
BRANCH  27  28
ATOM     28  N2  UNL     1      21.805  10.203  -0.901 +3.57 +0.00    +0.078 N 
ATOM     29  H32 UNL     1      22.227   9.919  -0.018 +0.25 +0.00    +0.312 HD
ATOM     30  H33 UNL     1      20.898   9.739  -0.943 +0.39 +0.00    +0.312 HD
ENDBRANCH  27  28
ENDBRANCH  26  27
ENDBRANCH  25  26
ENDBRANCH  24  25
ENDBRANCH  21  24
ENDBRANCH  18  20
BRANCH  19  31
ATOM     31  S1  UNL     1      16.400   9.641   2.898 -0.57 -0.00    -0.124 SA
BRANCH  31  32
ATOM     32  C12 UNL     1      16.153   8.093   3.857 -0.52 +0.00    +0.099 C 
BRANCH  32  33
ATOM     33  C13 UNL     1      15.112   8.240   4.973 +0.31 +0.00    +0.132 C 
BRANCH  33  34
ATOM     34  N3  UNL     1      15.078   7.027   5.786 +0.10 -0.00    -0.371 N 
ATOM     35  C14 UNL     1      14.447   7.029   6.896 +0.88 +0.00    +0.121 C 
ATOM     36  N4  UNL     1      14.479   5.939   7.694 -0.41 -0.00    -0.279 NA
ATOM     37  N5  UNL     1      13.706   7.999   7.476 +0.20 -0.00    -0.279 NA
ATOM     38  H34 UNL     1      15.131   5.262   7.307 -0.09 +0.00    +0.126 HD
ATOM     39  H35 UNL     1      14.814   6.173   8.632 -0.04 +0.00    +0.126 HD
ATOM     40  H36 UNL     1      12.979   7.602   8.062 +0.09 +0.00    +0.126 HD
ATOM     41  H37 UNL     1      13.314   8.662   6.820 +0.09 +0.00    +0.126 HD
ATOM     42  H3  UNL     1      15.554   6.183   5.467 +0.17 +0.00    +0.161 HD
ENDBRANCH  33  34
ENDBRANCH  32  33
ENDBRANCH  31  32
ENDBRANCH  19  31
ENDBRANCH  10  13
ENDBRANCH   1   9
BRANCH   3  43
ATOM     43  C20 UNL     1       8.515   6.558   3.120 -0.17 +0.00    +0.272 C 
ATOM     44  N9  UNL     1       8.078   5.855   2.016 -0.05 -0.00    -0.320 N 
ATOM     45  H39 UNL     1       8.781   5.263   1.576 +0.08 +0.00    +0.169 HD
ATOM     46  O3  UNL     1       7.817   7.166   3.925 +0.09 -0.00    -0.266 OA
BRANCH  44  47
ATOM     47  C21 UNL     1       6.752   5.662   1.574 -0.17 +0.00    +0.057 A 
ATOM     48  C22 UNL     1       6.298   6.151   0.351 -0.23 +0.00    +0.073 A 
ATOM     49  C23 UNL     1       4.985   5.917  -0.039 +0.22 +0.00    +0.120 A 
ATOM     50  C24 UNL     1       4.104   5.191   0.757 +0.40 +0.00    +0.073 A 
ATOM     51  F1  UNL     1       4.561   6.392  -1.218 +1.05 -0.00    -0.206 F 
ATOM     52  C25 UNL     1       4.532   4.685   1.984 -0.13 +0.00    +0.056 A 
ATOM     53  C26 UNL     1       5.861   4.942   2.408 -0.13 +0.00    +0.054 A 
BRANCH  52  54
ATOM     54  N13 UNL     1       3.701   3.907   2.827 -0.03 -0.00    -0.326 N 
ATOM     55  C30 UNL     1       4.014   2.743   3.506 -0.10 +0.00    +0.222 C 
ATOM     56  O4  UNL     1       5.095   2.168   3.499 -0.16 -0.00    -0.273 OA
ATOM     57  H44 UNL     1       2.764   4.278   2.944 +0.04 +0.00    +0.169 HD
BRANCH  55  58
ATOM     58  C31 UNL     1       2.827   2.240   4.317 -0.15 +0.00    +0.103 C 
BRANCH  58  59
ATOM     59  C32 UNL     1       3.227   1.456   5.567 -0.27 +0.00    +0.011 C 
BRANCH  59  60
ATOM     60  C33 UNL     1       3.961   2.334   6.589 +0.76 +0.00    +0.030 C 
BRANCH  60  61
ATOM     61  C34 UNL     1       5.399   2.664   6.186 +6.32 +0.00    +0.267 C 
BRANCH  61  62
ATOM     62  N14 UNL     1       5.923   3.820   6.905 -0.40 +0.00    +0.078 N 
ATOM     63  H45 UNL     1       5.292   4.062   7.667 +0.16 +0.00    +0.312 HD
ATOM     64  H46 UNL     1       5.922   4.626   6.281 +0.16 +0.00    +0.312 HD
ENDBRANCH  61  62
ENDBRANCH  60  61
ENDBRANCH  59  60
ENDBRANCH  58  59
ENDBRANCH  55  58
ENDBRANCH  52  54
BRANCH  53  65
ATOM     65  S2  UNL     1       6.425   4.365   4.034 -0.25 -0.00    -0.124 SA
BRANCH  65  66
ATOM     66  C27 UNL     1       7.364   2.859   3.535 -0.27 +0.00    +0.099 C 
BRANCH  66  67
ATOM     67  C28 UNL     1       8.883   3.057   3.484 -0.10 +0.00    +0.132 C 
BRANCH  67  68
ATOM     68  N10 UNL     1       9.487   2.520   4.699 +1.03 -0.00    -0.371 N 
ATOM     69  C29 UNL     1      10.532   3.076   5.179 -0.39 +0.00    +0.121 C 
ATOM     70  N11 UNL     1      11.048   2.645   6.351 +0.59 -0.00    -0.279 NA
ATOM     71  N12 UNL     1      11.264   4.109   4.705 -0.18 -0.00    -0.279 NA
ATOM     72  H40 UNL     1      10.429   1.941   6.748 +0.30 +0.00    +0.126 HD
ATOM     73  H41 UNL     1      11.118   3.402   7.031 +0.08 +0.00    +0.126 HD
ATOM     74  H42 UNL     1      11.173   4.241   3.706 -0.34 +0.00    +0.126 HD
ATOM     75  H43 UNL     1      12.241   4.005   4.962 +0.08 +0.00    +0.126 HD
ATOM     76  H10 UNL     1       9.079   1.708   5.161 +0.21 +0.00    +0.161 HD
ENDBRANCH  67  68
ENDBRANCH  66  67
ENDBRANCH  65  66
ENDBRANCH  53  65
ENDBRANCH  44  47
ENDBRANCH   3  43
TORSDOF 24
TER
