USER    Run = 1
USER    DPF = ligand_353_receptor.dpf
USER  
USER    Estimated Free Energy of Binding    = +183.60 kcal/mol  [=(1)+(2)+(3)-(4)]
USER    
USER    (1) Final Intermolecular Energy     = +182.41 kcal/mol
USER        vdW + Hbond + desolv Energy     = +182.41 kcal/mol
USER        Electrostatic Energy            =   +0.00 kcal/mol
USER    (2) Final Total Internal Energy     =   +5.35 kcal/mol
USER    (3) Torsional Free Energy           =   +1.19 kcal/mol
USER    (4) Unbound System's Energy  [=(2)] =   +5.35 kcal/mol
USER    
USER    
USER    NEWDPF move ligand_353.pdbqt
USER    NEWDPF about 0.000000 0.000000 0.000000
USER    NEWDPF tran0 18.997203 6.473419 1.331901
USER    NEWDPF quaternion0 -0.561624 0.027949 0.398129 0.724769
USER    NEWDPF axisangle0 -0.815139 0.040565 0.577844 87.100655
USER    NEWDPF quat0 -0.815139 0.040565 0.577844 87.100655
USER    NEWDPF dihe0 180.00 52.82 155.24 180.00 -0.33 180.00 77.93 150.01 -180.00 -86.49 11.11 -130.76 -13.23 22.23 180.00 -126.84 -173.37 -24.67 -25.81 -77.53 
USER  keepresnum = 1 
USER  
REMARK  20 active torsions:
REMARK  status: ('A' for Active; 'I' for Inactive)
REMARK    1  A    between atoms: C3_3  and  N5_47 
REMARK    2  A    between atoms: C5_5  and  C6_6 
REMARK       I    between atoms: C6_6  and  N2_43 
REMARK    3  A    between atoms: C7_7  and  C8_8 
REMARK    4  A    between atoms: C7_7  and  N2_43 
REMARK    5  A    between atoms: C8_8  and  C9_9 
REMARK    6  A    between atoms: C9_9  and  N3_44 
REMARK    7  A    between atoms: C10_10  and  C11_11 
REMARK       I    between atoms: C10_10  and  N5_47 
REMARK    8  A    between atoms: C13_13  and  N7_49 
REMARK    9  A    between atoms: C16_16  and  C17_17 
REMARK       I    between atoms: C16_16  and  N7_49 
REMARK   10  A    between atoms: C19_19  and  N9_51 
REMARK   11  A    between atoms: C22_22  and  C23_23 
REMARK   12  A    between atoms: C22_22  and  O5_61 
REMARK   13  A    between atoms: C29_29  and  N11_54 
REMARK   14  A    between atoms: C31_31  and  C32_32 
REMARK   15  A    between atoms: C31_31  and  O4_60 
REMARK   16  A    between atoms: C35_35  and  N12_56 
REMARK   17  A    between atoms: C38_38  and  C39_39 
REMARK   18  A    between atoms: C38_38  and  N12_56 
REMARK   19  A    between atoms: C40_40  and  C41_41 
REMARK   20  A    between atoms: C40_40  and  N12_56 
USER                              x       y       z     vdW  Elec       q    Type
USER                           _______ _______ _______ _____ _____    ______ ____
ROOT
ATOM      1  C17 UNL     1      21.475  11.412  -0.162 -0.18 +0.00    +0.105 A 
ATOM      2  C18 UNL     1      22.317  10.892   0.819 +8.39 +0.00    +0.066 A 
ATOM      3  C19 UNL     1      23.643  11.133   0.417 +9.74 +0.00    +0.052 A 
ATOM      4  C20 UNL     1      23.624  11.831  -0.756+12.97 +0.00    +0.120 A 
ATOM      5  C21 UNL     1      21.878  12.693  -2.306+47.46 +0.00    +0.156 C 
ATOM      6  N8  UNL     1      22.308  11.987  -1.115 +0.04 -0.00    -0.354 N 
ENDROOT
BRANCH   1   7
ATOM      7  C16 UNL     1      20.014  11.394  -0.253 -0.11 +0.00    +0.273 C 
ATOM      8  N7  UNL     1      19.405  10.561   0.668 -0.24 -0.00    -0.320 N 
ATOM      9  H41 UNL     1      19.986  10.088   1.343 +0.13 +0.00    +0.169 HD
ATOM     10  O3  UNL     1      19.416  12.077  -1.077 +0.42 -0.00    -0.266 OA
BRANCH   8  11
ATOM     11  C13 UNL     1      18.045  10.335   0.787 -0.45 +0.00    +0.053 A 
ATOM     12  C12 UNL     1      17.461   9.183   1.372 -0.41 +0.00    +0.066 A 
ATOM     13  C11 UNL     1      16.074   9.299   1.314 -0.27 +0.00    +0.105 A 
ATOM     14  N6  UNL     1      15.828  10.505   0.680 -0.14 -0.00    -0.354 N 
ATOM     15  C14 UNL     1      17.008  11.131   0.373 -0.08 +0.00    +0.120 A 
ATOM     16  C15 UNL     1      14.523  11.062   0.382+11.02 +0.00    +0.156 C 
BRANCH  13  17
ATOM     17  C10 UNL     1      15.031   8.382   1.776 +3.58 +0.00    +0.273 C 
ATOM     18  N5  UNL     1      14.304   7.797   0.754 +4.39 -0.00    -0.320 N 
ATOM     19  H40 UNL     1      14.572   7.984  -0.199 -0.30 +0.00    +0.169 HD
ATOM     20  O2  UNL     1      14.847   8.153   2.968 -0.37 -0.00    -0.266 OA
BRANCH  18  21
ATOM     21  C3  UNL     1      13.253   6.917   0.924 +1.16 +0.00    +0.053 A 
ATOM     22  C2  UNL     1      12.781   6.552   2.161 +0.09 +0.00    +0.120 A 
ATOM     23  N1  UNL     1      11.743   5.671   1.983 +0.47 -0.00    -0.354 N 
ATOM     24  C1  UNL     1      10.999   5.071   3.072 +1.43 +0.00    +0.156 C 
ATOM     25  C5  UNL     1      11.524   5.451   0.633 +0.78 +0.00    +0.104 A 
ATOM     26  C4  UNL     1      12.471   6.225  -0.030 -0.42 +0.00    +0.066 A 
BRANCH  25  27
ATOM     27  C6  UNL     1      10.495   4.571   0.099 +1.05 +0.00    +0.268 C 
ATOM     28  N2  UNL     1       9.243   4.721   0.654 -0.01 -0.00    -0.355 N 
ATOM     29  H36 UNL     1       9.115   5.370   1.417 +0.07 +0.00    +0.162 HD
ATOM     30  O1  UNL     1      10.705   3.736  -0.779 -0.16 -0.00    -0.266 OA
BRANCH  28  31
ATOM     31  C7  UNL     1       8.123   3.893   0.254 -0.10 +0.00    +0.130 C 
BRANCH  31  32
ATOM     32  C8  UNL     1       8.003   2.639   1.109 -0.18 +0.00    +0.095 C 
BRANCH  32  33
ATOM     33  C9  UNL     1       7.043   2.885   2.248 -0.21 +0.00    +0.069 C 
ATOM     34  N4  UNL     1       5.803   3.376   1.993 +0.01 -0.00    -0.389 N 
ATOM     35  H38 UNL     1       5.377   3.175   1.097 +0.05 +0.00    +0.157 HD
ATOM     36  H39 UNL     1       5.176   3.282   2.786 +0.06 +0.00    +0.157 HD
BRANCH  33  37
ATOM     37  N3  UNL     1       7.360   2.618   3.471 -0.12 -0.00    -0.389 N 
ATOM     38  H37 UNL     1       8.321   2.257   3.523 -0.33 +0.00    +0.157 HD
ATOM     39  H3  UNL     1       6.743   2.747   4.274 -0.22 +0.00    +0.157 HD
ENDBRANCH  33  37
ENDBRANCH  32  33
ENDBRANCH  31  32
ENDBRANCH  28  31
ENDBRANCH  25  27
ENDBRANCH  18  21
ENDBRANCH  13  17
ENDBRANCH   8  11
ENDBRANCH   1   7
BRANCH   3  40
ATOM     40  N9  UNL     1      24.787  10.804   1.127 +3.40 -0.00    -0.334 N 
ATOM     41  C22 UNL     1      24.638  10.258   2.287 -0.22 +0.00    +0.168 C 
ATOM     42  H9  UNL     1      25.714  10.988   0.746 +2.24 +0.00    +0.168 HD
BRANCH  41  43
ATOM     43  C23 UNL     1      23.489   9.826   3.045 -0.39 +0.00    +0.085 A 
ATOM     44  C24 UNL     1      22.233   9.468   2.572 -0.42 +0.00    +0.047 A 
ATOM     45  C25 UNL     1      21.411   9.102   3.670 +0.29 -0.00    -0.005 A 
ATOM     46  C26 UNL     1      22.179   9.261   4.819 +2.87 +0.00    +0.043 A 
ATOM     47  C30 UNL     1      20.085   8.648   3.796 +0.31 +0.00    +0.043 A 
ATOM     48  C27 UNL     1      21.693   8.983   6.099+23.24 +0.00    +0.033 A 
ATOM     49  N10 UNL     1      23.414   9.714   4.416 -0.33 -0.00    -0.352 N 
ATOM     50  C28 UNL     1      20.372   8.531   6.200+30.48 +0.00    +0.032 A 
ATOM     51  C29 UNL     1      19.567   8.377   5.070 +5.81 +0.00    +0.035 A 
ATOM     52  H42 UNL     1      24.165   9.931   5.055 +0.08 +0.00    +0.166 HD
BRANCH  51  53
ATOM     53  N11 UNL     1      18.247   7.935   5.208+13.05 -0.00    -0.336 N 
ATOM     54  C31 UNL     1      17.258   8.713   4.907 +1.55 +0.00    +0.150 C 
ATOM     55  H11 UNL     1      18.063   6.990   5.549 +1.02 +0.00    +0.168 HD
BRANCH  54  56
ATOM     56  C32 UNL     1      15.835   8.314   5.026 +2.18 +0.00    +0.015 A 
ATOM     57  C33 UNL     1      15.518   6.965   5.201 +0.28 +0.00    +0.018 A 
ATOM     58  C34 UNL     1      14.182   6.556   5.317 -0.38 +0.00    +0.030 A 
ATOM     59  C35 UNL     1      13.123   7.474   5.256 -0.41 +0.00    +0.030 A 
ATOM     60  C36 UNL     1      13.467   8.826   5.089 +0.30 +0.00    +0.030 A 
ATOM     61  C37 UNL     1      14.798   9.246   4.973 +1.39 +0.00    +0.018 A 
BRANCH  59  62
ATOM     62  N12 UNL     1      11.782   7.101   5.375 -0.10 -0.00    -0.379 N 
BRANCH  62  63
ATOM     63  C38 UNL     1      11.415   6.291   6.561 -0.30 +0.00    +0.138 C 
BRANCH  63  64
ATOM     64  C39 UNL     1      11.365   4.781   6.297 -0.36 +0.00    +0.134 C 
ATOM     65 CL1  UNL     1      12.805   3.922   6.898 -0.44 -0.00    -0.129 Cl
ENDBRANCH  63  64
ENDBRANCH  62  63
BRANCH  62  66
ATOM     66  C40 UNL     1      10.717   7.959   4.817 -0.38 +0.00    +0.138 C 
BRANCH  66  67
ATOM     67  C41 UNL     1       9.545   7.131   4.284 -0.19 +0.00    +0.134 C 
ATOM     68 CL2  UNL     1       9.103   7.667   2.641 -0.46 -0.00    -0.129 Cl
ENDBRANCH  66  67
ENDBRANCH  62  66
ENDBRANCH  59  62
ENDBRANCH  54  56
BRANCH  54  69
ATOM     69  O4  UNL     1      17.396   9.974   4.452 -0.27 -0.00    -0.345 OA
ATOM     70  H43 UNL     1      16.616  10.245   3.944 +0.16 +0.00    +0.219 HD
ENDBRANCH  54  69
ENDBRANCH  51  53
ENDBRANCH  41  43
BRANCH  41  71
ATOM     71  O5  UNL     1      25.779  10.025   2.967 -0.77 -0.00    -0.344 OA
ATOM     72  H44 UNL     1      25.519   9.625   3.812 +0.14 +0.00    +0.219 HD
ENDBRANCH  41  71
ENDBRANCH   3  40
TORSDOF 20
TER
