USER    Run = 1
USER    DPF = ligand_263_receptor.dpf
USER  
USER    Estimated Free Energy of Binding    =  +1.11e+005 kcal/mol  [=(1)+(2)+(3)-(4)]
USER    
USER    (1) Final Intermolecular Energy     =  +1.11e+005 kcal/mol
USER        vdW + Hbond + desolv Energy     =  +1.11e+005 kcal/mol
USER        Electrostatic Energy            =   +0.00 kcal/mol
USER    (2) Final Total Internal Energy     =   +0.00 kcal/mol
USER    (3) Torsional Free Energy           =   +1.19 kcal/mol
USER    (4) Unbound System's Energy  [=(2)] =   +0.00 kcal/mol
USER    
USER    
USER    NEWDPF move ligand_263.pdbqt
USER    NEWDPF about 0.000000 0.000000 0.000000
USER    NEWDPF tran0 17.533813 7.012391 3.943595
USER    NEWDPF quaternion0 0.174734 -0.432038 0.881107 0.080387
USER    NEWDPF axisangle0 0.175301 -0.433441 0.883968 170.778426
USER    NEWDPF quat0 0.175301 -0.433441 0.883968 170.778426
USER  keepresnum = 1 
USER  
REMARK  0 active torsions:
REMARK  status: ('A' for Active; 'I' for Inactive)
REMARK       I    between atoms: C2_2  and  C3_3 
REMARK       I    between atoms: C3_3  and  C5_5 
REMARK       I    between atoms: C5_5  and  C6_6 
REMARK       I    between atoms: C5_5  and  N9_74 
REMARK       I    between atoms: C6_6  and  N1_66 
REMARK       I    between atoms: C7_7  and  C8_8 
REMARK       I    between atoms: C7_7  and  C12_12 
REMARK       I    between atoms: C7_7  and  N1_66 
REMARK       I    between atoms: C8_8  and  C9_9 
REMARK       I    between atoms: C12_12  and  N2_67 
REMARK       I    between atoms: C13_13  and  C14_14 
REMARK       I    between atoms: C13_13  and  C18_18 
REMARK       I    between atoms: C13_13  and  N2_67 
REMARK       I    between atoms: C14_14  and  C15_15 
REMARK       I    between atoms: C15_15  and  C16_16 
REMARK       I    between atoms: C16_16  and  C17_17 
REMARK       I    between atoms: C17_17  and  N3_68 
REMARK       I    between atoms: C18_18  and  N4_69 
REMARK       I    between atoms: C19_19  and  C20_20 
REMARK       I    between atoms: C19_19  and  C24_24 
REMARK       I    between atoms: C19_19  and  N4_69 
REMARK       I    between atoms: C20_20  and  C21_21 
REMARK       I    between atoms: C24_24  and  N5_70 
REMARK       I    between atoms: C28_28  and  C29_29 
REMARK       I    between atoms: C29_29  and  N6_71 
REMARK       I    between atoms: C30_30  and  C31_31 
REMARK       I    between atoms: C30_30  and  C33_33 
REMARK       I    between atoms: C30_30  and  N6_71 
REMARK       I    between atoms: C31_31  and  O6_56 
REMARK       I    between atoms: C33_33  and  N7_72 
REMARK       I    between atoms: C34_34  and  C35_35 
REMARK       I    between atoms: C34_34  and  C39_39 
REMARK       I    between atoms: C34_34  and  N7_72 
REMARK       I    between atoms: C35_35  and  C36_36 
REMARK       I    between atoms: C36_36  and  C37_37 
REMARK       I    between atoms: C37_37  and  C38_38 
REMARK       I    between atoms: C38_38  and  N8_73 
REMARK       I    between atoms: C39_39  and  O9_59 
REMARK       I    between atoms: C40_40  and  C41_41 
REMARK       I    between atoms: C40_40  and  N9_74 
REMARK       I    between atoms: C41_41  and  C42_42 
REMARK       I    between atoms: C41_41  and  N10_75 
REMARK       I    between atoms: C42_42  and  O11_61 
REMARK       I    between atoms: C43_43  and  C44_44 
REMARK       I    between atoms: C43_43  and  N10_75 
REMARK       I    between atoms: C44_44  and  C45_45 
REMARK       I    between atoms: C44_44  and  N11_76 
REMARK       I    between atoms: C45_45  and  O13_63 
REMARK       I    between atoms: C47_47  and  C48_48 
REMARK       I    between atoms: C47_47  and  N11_76 
REMARK       I    between atoms: C48_48  and  C49_49 
REMARK       I    between atoms: C48_48  and  N12_77 
REMARK       I    between atoms: C49_49  and  O15_65 
USER                              x       y       z     vdW  Elec       q    Type
USER                           _______ _______ _______ _____ _____    ______ ____
ROOT
ATOM      1  C1  UNL     1      12.522   5.108   8.370 -0.60 +0.00    +0.005 C 
ATOM      2  C2  UNL     1      13.112   3.929   7.609 -0.57 +0.00    +0.002 C 
ATOM      3  C3  UNL     1      13.652   4.296   6.208 -0.16 +0.00    +0.013 C 
ATOM      4  C4  UNL     1      14.334   3.062   5.597+99.99 +0.00    +0.012 C 
ATOM      5  C5  UNL     1      12.565   4.893   5.284 +0.18 +0.00    +0.180 C 
ATOM      6  C6  UNL     1      13.137   5.317   3.911+61.39 +0.00    +0.241 C 
ATOM      7  C7  UNL     1      14.686   6.895   2.775+49.71 +0.00    +0.177 C 
ATOM      8  C8  UNL     1      13.765   7.659   1.805 +6.78 +0.00    +0.038 C 
ATOM      9  C9  UNL     1      12.808   8.704   2.421+53.36 -0.00    -0.020 C 
ATOM     10  C10 UNL     1      11.885   9.253   1.326+99.99 +0.00    +0.009 C 
ATOM     11  C11 UNL     1      13.533   9.864   3.100+25.76 +0.00    +0.009 C 
ATOM     12  C12 UNL     1      15.904   7.713   3.260 -0.12 +0.00    +0.241 C 
ATOM     13  C13 UNL     1      18.066   8.733   2.456 -0.34 +0.00    +0.176 C 
ATOM     14  C14 UNL     1      18.195   9.771   3.587 -0.34 +0.00    +0.035 C 
ATOM     15  C15 UNL     1      18.757   9.252   4.921 +9.68 +0.00    +0.004 C 
ATOM     16  C16 UNL     1      18.497  10.208   6.093+99.99 +0.00    +0.030 C 
ATOM     17  C17 UNL     1      19.217  11.549   5.941+99.99 +0.00    +0.267 C 
ATOM     18  C18 UNL     1      19.116   7.595   2.456+38.05 +0.00    +0.241 C 
ATOM     19  C19 UNL     1      21.580   7.181   2.182+99.99 +0.00    +0.177 C 
ATOM     20  C20 UNL     1      21.595   5.811   2.882+99.99 +0.00    +0.038 C 
ATOM     21  C21 UNL     1      21.472   5.870   4.419+99.99 -0.00    -0.020 C 
ATOM     22  C22 UNL     1      21.417   4.449   4.986+99.99 +0.00    +0.009 C 
ATOM     23  C23 UNL     1      22.624   6.640   5.066+99.99 +0.00    +0.009 C 
ATOM     24  C24 UNL     1      21.746   7.046   0.644+99.99 +0.00    +0.243 C 
ATOM     25  C25 UNL     1      23.213   6.672  -1.293 -0.46 +0.00    +0.127 C 
ATOM     26  C26 UNL     1      24.719   6.734  -1.494 -0.56 +0.00    +0.022 C 
ATOM     27  C27 UNL     1      25.269   6.238  -0.160 -0.46 +0.00    +0.037 C 
ATOM     28  C28 UNL     1      24.292   6.832   0.856 -0.37 +0.00    +0.179 C 
ATOM     29  C29 UNL     1      24.725   8.253   1.288 -0.31 +0.00    +0.241 C 
ATOM     30  C30 UNL     1      26.479   9.562   2.507 +0.10 +0.00    +0.205 C 
ATOM     31  C31 UNL     1      25.670  10.088   3.716 +7.92 +0.00    +0.146 C 
ATOM     32  C32 UNL     1      26.420  11.065   4.614+99.99 +0.00    +0.042 C 
ATOM     33  C33 UNL     1      27.933   9.216   2.864 +4.91 +0.00    +0.243 C 
ATOM     34  C34 UNL     1      30.257  10.090   3.007+99.99 +0.00    +0.182 C 
ATOM     35  C35 UNL     1      30.997   9.283   1.928 +6.90 +0.00    +0.036 C 
ATOM     36  C36 UNL     1      31.186   9.948   0.555 +0.66 +0.00    +0.004 C 
ATOM     37  C37 UNL     1      29.884  10.219  -0.204 +2.44 +0.00    +0.030 C 
ATOM     38  C38 UNL     1      30.103  10.676  -1.650+20.10 +0.00    +0.267 C 
ATOM     39  C39 UNL     1      30.866  11.477   3.200+99.99 +0.00    +0.163 C 
ATOM     40  C40 UNL     1      10.173   4.398   4.931 -0.25 +0.00    +0.243 C 
ATOM     41  C41 UNL     1       9.180   3.371   4.354 -0.26 +0.00    +0.200 C 
ATOM     42  C42 UNL     1       9.334   3.301   2.833 +0.12 +0.00    +0.199 C 
ATOM     43  C43 UNL     1       7.313   3.474   5.951 +1.63 +0.00    +0.243 C 
ATOM     44  C44 UNL     1       6.147   4.366   6.418 -0.36 +0.00    +0.205 C 
ATOM     45  C45 UNL     1       6.637   5.807   6.703 -0.16 +0.00    +0.146 C 
ATOM     46  C46 UNL     1       7.617   5.907   7.872 -0.21 +0.00    +0.042 C 
ATOM     47  C47 UNL     1       4.276   4.042   8.024 +1.35 +0.00    +0.254 C 
ATOM     48  C48 UNL     1       3.805   3.225   9.248+99.99 +0.00    +0.336 C 
ATOM     49  C49 UNL     1       3.662   1.723   8.917+99.99 +0.00    +0.156 C 
ATOM     50  C50 UNL     1       2.485   1.401   7.999 +0.16 +0.00    +0.042 C 
ATOM     51  O1  UNL     1      12.861   4.717   2.872+99.99 -0.00    -0.271 OA
ATOM     52  O2  UNL     1      16.085   7.929   4.456 -0.54 -0.00    -0.271 OA
ATOM     53  O3  UNL     1      18.788   6.411   2.414+30.24 -0.00    -0.271 OA
ATOM     54  O4  UNL     1      20.771   7.121  -0.114+99.99 -0.00    -0.271 OA
ATOM     55  O5  UNL     1      24.040   9.260   1.109 -0.27 -0.00    -0.271 OA
ATOM     56  O6  UNL     1      24.497  10.791   3.272 -0.48 -0.00    -0.393 OA
ATOM     57  O7  UNL     1      28.255   8.086   3.230 +0.51 -0.00    -0.271 OA
ATOM     58  O8  UNL     1      30.317  12.537   2.938+99.99 -0.00    -0.648 OA
ATOM     59  O9  UNL     1      32.114  11.452   3.703 +2.07 -0.00    -0.775 OA
ATOM     60  O10 UNL     1       9.822   5.530   5.267 -0.16 -0.00    -0.271 OA
ATOM     61  O11 UNL     1       8.462   2.308   2.292 -0.13 -0.00    -0.398 OA
ATOM     62  O12 UNL     1       7.759   2.560   6.645+19.99 -0.00    -0.271 OA
ATOM     63  O13 UNL     1       7.221   6.380   5.521 +1.17 -0.00    -0.393 OA
ATOM     64  O14 UNL     1       3.622   4.944   7.506 -0.25 -0.00    -0.271 OA
ATOM     65  O15 UNL     1       3.518   0.993  10.147+24.42 -0.00    -0.393 OA
ATOM     66  N1  UNL     1      13.982   6.396   3.950 +0.14 -0.00    -0.346 N 
ATOM     67  N2  UNL     1      16.728   8.165   2.253 -0.26 -0.00    -0.346 N 
ATOM     68  N3  UNL     1      18.988  12.383   7.116+99.99 +0.00    +0.078 N 
ATOM     69  N4  UNL     1      20.425   8.037   2.464+25.97 -0.00    -0.346 N 
ATOM     70  N5  UNL     1      23.015   6.846   0.137 -0.19 -0.00    -0.337 N 
ATOM     71  N6  UNL     1      25.909   8.312   1.976 -0.21 -0.00    -0.344 N 
ATOM     72  N7  UNL     1      28.829  10.246   2.735+99.99 -0.00    -0.345 N 
ATOM     73  N8  UNL     1      30.622   9.606  -2.491 -0.14 +0.00    +0.078 N 
ATOM     74  N9  UNL     1      11.474   3.953   5.030 -0.17 -0.00    -0.346 N 
ATOM     75  N10 UNL     1       7.825   3.804   4.711 -0.13 -0.00    -0.344 N 
ATOM     76  N11 UNL     1       5.534   3.716   7.573 +0.33 -0.00    -0.343 N 
ATOM     77  N12 UNL     1       2.555   3.782   9.809+12.52 +0.00    +0.094 N 
ATOM     78  H74 UNL     1      24.154  10.338   2.472 +0.19 +0.00    +0.210 HD
ATOM     79  H75 UNL     1      32.372  12.394   3.784 +0.06 +0.00    +0.167 HD
ATOM     80  H76 UNL     1       7.585   2.457   2.696 +0.06 +0.00    +0.209 HD
ATOM     81  H77 UNL     1       8.198   6.409   5.639 +0.17 +0.00    +0.210 HD
ATOM     82  H78 UNL     1       3.283   0.077   9.917 +0.14 +0.00    +0.210 HD
ATOM     83  H79 UNL     1      14.257   6.812   4.836 +0.10 +0.00    +0.163 HD
ATOM     84  H80 UNL     1      16.650   7.645   1.385 -0.22 +0.00    +0.163 HD
ATOM     85  H81 UNL     1      19.533  13.240   7.033+99.99 +0.00    +0.312 HD
ATOM     86  H82 UNL     1      19.328  11.905   7.949 +0.25 +0.00    +0.312 HD
ATOM     87  H83 UNL     1      20.560   9.008   2.212 +0.11 +0.00    +0.163 HD
ATOM     88  H84 UNL     1      26.421   7.461   2.202 +0.11 +0.00    +0.163 HD
ATOM     89  H85 UNL     1      28.513  11.175   2.465+99.99 +0.00    +0.163 HD
ATOM     90  H86 UNL     1      30.698   9.940  -3.452 +0.15 +0.00    +0.312 HD
ATOM     91  H87 UNL     1      31.570   9.366  -2.208 +0.11 +0.00    +0.312 HD
ATOM     92  H88 UNL     1      11.728   3.154   4.457 +0.03 +0.00    +0.163 HD
ATOM     93  H89 UNL     1       7.583   4.751   4.411 +0.09 +0.00    +0.163 HD
ATOM     94  H90 UNL     1       6.091   3.002   8.036 +0.10 +0.00    +0.163 HD
ATOM     95  H91 UNL     1       2.375   3.316  10.698+99.99 +0.00    +0.314 HD
ATOM     96  H92 UNL     1       2.687   4.775   9.994 +1.18 +0.00    +0.314 HD
ENDROOT
TORSDOF 44
TER
