USER    Run = 1
USER    DPF = ligand_51_receptor.dpf
USER  
USER    Estimated Free Energy of Binding    =  +1.22e+004 kcal/mol  [=(1)+(2)+(3)-(4)]
USER    
USER    (1) Final Intermolecular Energy     =  +1.22e+004 kcal/mol
USER        vdW + Hbond + desolv Energy     =  +1.22e+004 kcal/mol
USER        Electrostatic Energy            =   +0.00 kcal/mol
USER    (2) Final Total Internal Energy     =   +0.00 kcal/mol
USER    (3) Torsional Free Energy           =   +1.19 kcal/mol
USER    (4) Unbound System's Energy  [=(2)] =   +0.00 kcal/mol
USER    
USER    
USER    NEWDPF move ligand_51.pdbqt
USER    NEWDPF about 0.000000 0.000000 0.000000
USER    NEWDPF tran0 15.503143 7.986348 1.563900
USER    NEWDPF quaternion0 -0.024124 0.209107 -0.977542 -0.010185
USER    NEWDPF axisangle0 -0.024126 0.209118 -0.977593 -178.832864
USER    NEWDPF quat0 -0.024126 0.209118 -0.977593 -178.832864
USER  keepresnum = 1 
USER  
REMARK  0 active torsions:
REMARK  status: ('A' for Active; 'I' for Inactive)
REMARK       I    between atoms: C2_2  and  C3_3 
REMARK       I    between atoms: C3_3  and  N1_65 
REMARK       I    between atoms: C4_4  and  C5_5 
REMARK       I    between atoms: C4_4  and  C49_49 
REMARK       I    between atoms: C4_4  and  N1_65 
REMARK       I    between atoms: C5_5  and  C6_6 
REMARK       I    between atoms: C6_6  and  C7_7 
REMARK       I    between atoms: C6_6  and  O12_90 
REMARK       I    between atoms: C8_8  and  C10_10 
REMARK       I    between atoms: C10_10  and  N3_68 
REMARK       I    between atoms: C11_11  and  C12_12 
REMARK       I    between atoms: C11_11  and  C43_43 
REMARK       I    between atoms: C11_11  and  N3_68 
REMARK       I    between atoms: C12_12  and  C13_13 
REMARK       I    between atoms: C15_15  and  N4_69 
REMARK       I    between atoms: C20_20  and  C21_21 
REMARK       I    between atoms: C20_20  and  N4_69 
REMARK       I    between atoms: C21_21  and  C22_22 
REMARK       I    between atoms: C22_22  and  C23_23 
REMARK       I    between atoms: C23_23  and  N5_70 
REMARK       I    between atoms: C24_24  and  C25_25 
REMARK       I    between atoms: C24_24  and  N5_70 
REMARK       I    between atoms: C25_25  and  C26_26 
REMARK       I    between atoms: C25_25  and  N7_72 
REMARK       I    between atoms: C26_26  and  C27_27 
REMARK       I    between atoms: C27_27  and  C28_28 
REMARK       I    between atoms: C28_28  and  C29_29 
REMARK       I    between atoms: C29_29  and  N6_71 
REMARK       I    between atoms: C30_30  and  C31_31 
REMARK       I    between atoms: C30_30  and  N6_71 
REMARK       I    between atoms: C31_31  and  C32_32 
REMARK       I    between atoms: C32_32  and  O5_83 
REMARK       I    between atoms: C33_33  and  C34_34 
REMARK       I    between atoms: C33_33  and  O5_83 
REMARK       I    between atoms: C34_34  and  O6_84 
REMARK       I    between atoms: C35_35  and  C36_36 
REMARK       I    between atoms: C35_35  and  N7_72 
REMARK       I    between atoms: C36_36  and  C37_37 
REMARK       I    between atoms: C37_37  and  N8_73 
REMARK       I    between atoms: C40_40  and  S2_78 
REMARK       I    between atoms: C43_43  and  C44_44 
REMARK       I    between atoms: C44_44  and  C46_46 
REMARK       I    between atoms: C46_46  and  O11_89 
REMARK       I    between atoms: C47_47  and  N9_74 
REMARK       I    between atoms: C47_47  and  O12_90 
REMARK       I    between atoms: C52_52  and  C53_53 
REMARK       I    between atoms: C52_52  and  N1_65 
REMARK       I    between atoms: C53_53  and  C54_54 
REMARK       I    between atoms: C53_53  and  N10_75 
REMARK       I    between atoms: C54_54  and  C56_56 
REMARK       I    between atoms: C58_58  and  C59_59 
REMARK       I    between atoms: C58_58  and  N10_75 
USER                              x       y       z     vdW  Elec       q    Type
USER                           _______ _______ _______ _____ _____    ______ ____
ROOT
ATOM      1  C1  UNL     1      20.325   5.018  -0.939+99.99 +0.00    +0.006 C 
ATOM      2  C2  UNL     1      21.766   5.453  -1.129+99.99 +0.00    +0.015 C 
ATOM      3  C3  UNL     1      22.037   6.925  -0.798 +2.17 +0.00    +0.126 C 
ATOM      4  C4  UNL     1      20.871   8.667   0.639+59.09 +0.00    +0.093 C 
ATOM      5  C5  UNL     1      19.441   8.514   0.075+99.99 +0.00    +0.065 C 
ATOM      6  C6  UNL     1      18.559   7.625   0.970+99.99 +0.00    +0.192 C 
ATOM      7  C7  UNL     1      17.176   7.497   0.380 +7.17 +0.00    +0.081 A 
ATOM      8  C8  UNL     1      15.172   8.062  -0.412 +0.23 +0.00    +0.108 A 
ATOM      9  C9  UNL     1      15.069   6.688  -0.509+10.08 +0.00    +0.086 A 
ATOM     10  C10 UNL     1      14.100   9.004  -0.741+51.85 +0.00    +0.269 C 
ATOM     11  C11 UNL     1      13.484  11.372  -0.303+32.79 +0.00    +0.089 C 
ATOM     12  C12 UNL     1      14.130  12.553   0.474+11.74 +0.00    +0.063 C 
ATOM     13  C13 UNL     1      14.731  12.277   1.841+37.19 -0.00    -0.054 A 
ATOM     14  C14 UNL     1      14.544  11.080   2.543+10.56 +0.00    +0.037 A 
ATOM     15  C15 UNL     1      15.122  10.830   3.805+99.99 +0.00    +0.041 A 
ATOM     16  C16 UNL     1      15.946  11.813   4.374+99.99 -0.00    -0.035 A 
ATOM     17  C17 UNL     1      16.094  13.039   3.696 +6.04 +0.00    +0.009 A 
ATOM     18  C18 UNL     1      15.501  13.268   2.451+99.99 +0.00    +0.008 A 
ATOM     19  C19 UNL     1      16.719  11.657   5.652+83.78 +0.00    +0.050 C 
ATOM     20  C20 UNL     1      14.730   9.197   5.669 +7.43 +0.00    +0.222 C 
ATOM     21  C21 UNL     1      14.638   7.698   5.949 +3.10 +0.00    +0.105 C 
ATOM     22  C22 UNL     1      13.750   6.869   5.029 -0.51 +0.00    +0.029 C 
ATOM     23  C23 UNL     1      12.301   7.356   5.014 -0.37 +0.00    +0.123 C 
ATOM     24  C24 UNL     1      11.898   7.601   2.606 +0.00 +0.00    +0.240 C 
ATOM     25  C25 UNL     1      10.914   7.368   1.439 +0.14 +0.00    +0.176 C 
ATOM     26  C26 UNL     1      11.021   5.943   0.874 -0.29 +0.00    +0.035 C 
ATOM     27  C27 UNL     1      10.808   5.882  -0.652 -0.34 +0.00    +0.004 C 
ATOM     28  C28 UNL     1       9.662   4.961  -1.086 -0.21 +0.00    +0.020 C 
ATOM     29  C29 UNL     1       8.267   5.529  -0.840 -0.11 +0.00    +0.122 C 
ATOM     30  C30 UNL     1       7.987   7.861  -1.702 +0.59 +0.00    +0.219 C 
ATOM     31  C31 UNL     1       7.370   8.658  -2.832+86.51 +0.00    +0.129 C 
ATOM     32  C32 UNL     1       5.850   8.652  -2.745+99.99 +0.00    +0.177 C 
ATOM     33  C33 UNL     1       5.291  10.792  -1.798+99.99 +0.00    +0.193 C 
ATOM     34  C34 UNL     1       3.908  11.140  -2.346+99.99 +0.00    +0.190 C 
ATOM     35  C35 UNL     1       8.681   7.182   2.608 -0.27 +0.00    +0.219 C 
ATOM     36  C36 UNL     1       7.256   7.690   2.502 -0.25 +0.00    +0.123 C 
ATOM     37  C37 UNL     1       6.333   7.139   3.586 +8.38 +0.00    +0.144 C 
ATOM     38  C38 UNL     1       5.984   4.863   2.620 -0.07 +0.00    +0.228 A 
ATOM     39  C39 UNL     1       5.995   3.437   3.083 -0.12 +0.00    +0.128 A 
ATOM     40  C40 UNL     1       6.267   3.532   4.575 -0.13 +0.00    +0.148 A 
ATOM     41  C41 UNL     1       6.366   5.012   4.856 -0.13 +0.00    +0.240 A 
ATOM     42  C42 UNL     1       3.582   3.792   5.369 -0.21 +0.00    +0.090 C 
ATOM     43  C43 UNL     1      12.930  11.845  -1.671 +3.07 +0.00    +0.040 C 
ATOM     44  C44 UNL     1      11.433  12.197  -1.713 +1.04 +0.00    +0.081 C 
ATOM     45  C45 UNL     1      10.965  13.176  -0.642+99.99 +0.00    +0.021 C 
ATOM     46  C46 UNL     1      10.583  10.942  -1.761 +8.01 +0.00    +0.143 C 
ATOM     47  C47 UNL     1      18.428   7.457   3.323 +0.27 +0.00    +0.360 C 
ATOM     48  C48 UNL     1      18.589   7.675   5.758+99.99 +0.00    +0.151 C 
ATOM     49  C49 UNL     1      21.587   9.960   0.115 -0.48 +0.00    +0.000 C 
ATOM     50  C50 UNL     1      22.964  10.179   0.752 +0.05 +0.00    +0.011 C 
ATOM     51  C51 UNL     1      21.695  10.107  -1.405+99.99 +0.00    +0.011 C 
ATOM     52  C52 UNL     1      22.417   7.086   1.696+19.63 +0.00    +0.243 C 
ATOM     53  C53 UNL     1      23.449   5.931   1.678 +1.60 +0.00    +0.180 C 
ATOM     54  C54 UNL     1      22.856   4.608   2.236 +9.33 +0.00    +0.013 C 
ATOM     55  C55 UNL     1      22.270   4.747   3.651+99.99 +0.00    +0.012 C 
ATOM     56  C56 UNL     1      23.884   3.453   2.247+22.04 +0.00    +0.002 C 
ATOM     57  C57 UNL     1      24.437   3.089   0.877+38.20 +0.00    +0.005 C 
ATOM     58  C58 UNL     1      25.602   7.117   1.887 -0.29 +0.00    +0.252 C 
ATOM     59  C59 UNL     1      26.537   7.815   2.903 -0.28 +0.00    +0.313 C 
ATOM     60  C60 UNL     1      25.916   9.160   3.300 -0.57 +0.00    +0.046 C 
ATOM     61  C61 UNL     1      26.742   9.858   4.380+75.59 +0.00    +0.004 C 
ATOM     62  C62 UNL     1      28.223   9.487   4.313+99.99 +0.00    +0.030 C 
ATOM     63  C63 UNL     1      28.642   9.115   2.893+21.05 +0.00    +0.273 C 
ATOM     64  C64 UNL     1      28.659   6.731   2.422 +8.85 +0.00    +0.310 C 
ATOM     65  N1  UNL     1      21.676   7.411   0.546+78.07 -0.00    -0.345 N 
ATOM     66  N2  UNL     1      16.400   8.518   0.076 -0.31 -0.00    -0.347 N 
ATOM     67  H2  UNL     1      16.657   9.499   0.182 +0.11 +0.00    +0.166 HD
ATOM     68  N3  UNL     1      14.471  10.313  -0.510+14.61 -0.00    -0.351 N 
ATOM     69  N4  UNL     1      14.854   9.542   4.340 +1.41 -0.00    -0.327 N 
ATOM     70  N5  UNL     1      11.603   6.984   3.802 -0.14 -0.00    -0.359 N 
ATOM     71  N6  UNL     1       7.865   6.499  -1.844 +9.89 -0.00    -0.361 N 
ATOM     72  N7  UNL     1       9.535   7.785   1.716 -0.01 -0.00    -0.348 N 
ATOM     73  N8  UNL     1       6.264   5.688   3.668 -0.08 -0.00    -0.287 N 
ATOM     74  N9  UNL     1      18.337   8.215   4.450 +0.00 -0.00    -0.341 N 
ATOM     75  N10 UNL     1      24.576   6.403   2.490 +4.74 -0.00    -0.346 N 
ATOM     76  N11 UNL     1      27.900   7.977   2.341 -0.45 +0.00    +0.098 N 
ATOM     77  S1  UNL     1      16.508   5.946   0.050+99.99 -0.00    -0.084 SA
ATOM     78  S2  UNL     1       5.003   2.687   5.591 +0.25 -0.00    -0.159 SA
ATOM     79  O1  UNL     1      12.992   8.656  -1.135+99.99 -0.00    -0.266 OA
ATOM     80  O2  UNL     1      14.720   9.981   6.616 +9.01 -0.00    -0.273 OA
ATOM     81  O3  UNL     1      12.946   8.231   2.450 +1.97 -0.00    -0.271 OA
ATOM     82  O4  UNL     1       8.546   8.410  -0.750 -0.24 -0.00    -0.274 OA
ATOM     83  O5  UNL     1       5.387   9.374  -1.601+17.55 -0.00    -0.389 OA
ATOM     84  O6  UNL     1       2.901  10.669  -1.453 +9.75 -0.00    -0.399 OA
ATOM     85  O7  UNL     1       9.041   6.318   3.401 -0.16 -0.00    -0.274 OA
ATOM     86  O8  UNL     1       5.752   5.196   1.468 -0.11 -0.00    -0.273 OA
ATOM     87  O9  UNL     1       6.487   5.518   5.963 -0.22 -0.00    -0.272 OA
ATOM     88  O10 UNL     1      10.264  10.353  -2.782 -0.02 -0.00    -0.650 OA
ATOM     89  O11 UNL     1      10.190  10.504  -0.552+99.99 -0.00    -0.776 OA
ATOM     90  O12 UNL     1      18.402   8.274   2.246 +0.15 -0.00    -0.292 OA
ATOM     91  O13 UNL     1      18.536   6.242   3.292 +2.85 -0.00    -0.239 OA
ATOM     92  O14 UNL     1      22.263   7.706   2.761 +0.33 -0.00    -0.271 OA
ATOM     93  O15 UNL     1      25.720   7.190   0.667 -0.22 -0.00    -0.271 OA
ATOM     94  H93 UNL     1      15.377  10.393  -0.048 -0.11 +0.00    +0.163 HD
ATOM     95  H94 UNL     1      14.406   8.906   3.677 +0.05 +0.00    +0.169 HD
ATOM     96  H95 UNL     1      10.659   6.603   3.893 +0.10 +0.00    +0.162 HD
ATOM     97  H96 UNL     1       7.447   6.132  -2.689+29.21 +0.00    +0.162 HD
ATOM     98  H97 UNL     1       9.081   8.251   0.929 +0.13 +0.00    +0.163 HD
ATOM     99  H98 UNL     1      18.358   9.214   4.302 +0.11 +0.00    +0.164 HD
ATOM    100  H99 UNL     1      24.313   6.715   3.418 +5.17 +0.00    +0.163 HD
ATOM    101  HA0 UNL     1       3.207   9.790  -1.152 +4.46 +0.00    +0.209 HD
ATOM    102  HA1 UNL     1       9.672   9.681  -0.735 +8.52 +0.00    +0.167 HD
ENDROOT
TORSDOF 44
TER
