USER    Run = 1
USER    DPF = ligand_419_receptor.dpf
USER  
USER    Estimated Free Energy of Binding    =  -11.37 kcal/mol  [=(1)+(2)+(3)-(4)]
USER    Estimated Inhibition Constant, Ki   =    4.63 nM (nanomolar)  [Temperature = 298.15 K]
USER    
USER    (1) Final Intermolecular Energy     =  -12.56 kcal/mol
USER        vdW + Hbond + desolv Energy     =  -12.56 kcal/mol
USER        Electrostatic Energy            =   +0.00 kcal/mol
USER    (2) Final Total Internal Energy     =   -1.85 kcal/mol
USER    (3) Torsional Free Energy           =   +1.19 kcal/mol
USER    (4) Unbound System's Energy  [=(2)] =   -1.85 kcal/mol
USER    
USER    
USER    NEWDPF move ligand_419.pdbqt
USER    NEWDPF about 0.000000 0.000000 0.000000
USER    NEWDPF tran0 13.655014 6.511827 6.558763
USER    NEWDPF quaternion0 -0.934658 -0.202512 0.215984 -0.196863
USER    NEWDPF axisangle0 -0.953313 -0.206554 0.220294 -157.292835
USER    NEWDPF quat0 -0.953313 -0.206554 0.220294 -157.292835
USER    NEWDPF dihe0 -55.59 -145.49 122.59 -71.75 -105.86 -41.74 161.01 38.35 46.06 
USER  keepresnum = 1 
USER  
REMARK  9 active torsions:
REMARK  status: ('A' for Active; 'I' for Inactive)
REMARK    1  A    between atoms: C2_2  and  N1_35 
REMARK    2  A    between atoms: C4_4  and  N3_38 
REMARK    3  A    between atoms: C8_8  and  C11_11 
REMARK    4  A    between atoms: C9_9  and  C10_10 
REMARK    5  A    between atoms: C13_13  and  C15_15 
REMARK       I    between atoms: C15_15  and  N7_44 
REMARK    6  A    between atoms: C16_16  and  N7_44 
REMARK    7  A    between atoms: C19_19  and  C22_22 
REMARK       I    between atoms: C22_22  and  N8_45 
REMARK    8  A    between atoms: C27_27  and  C28_28 
REMARK       I    between atoms: C27_27  and  N9_46 
REMARK    9  A    between atoms: C28_28  and  O4_54 
USER                              x       y       z     vdW  Elec       q    Type
USER                           _______ _______ _______ _____ _____    ______ ____
ROOT
ATOM      1  C15 UNL     1      14.903   7.714   4.110 -0.34 +0.00    +0.290 C 
ATOM      2  N7  UNL     1      13.621   7.970   3.655 -0.25 -0.00    -0.320 N 
ATOM      3  O1  UNL     1      15.204   6.853   4.931 -0.38 -0.00    -0.264 OA
ATOM      4  H38 UNL     1      13.583   8.753   3.001 -0.35 +0.00    +0.169 HD
ENDROOT
BRANCH   1   5
ATOM      5  C13 UNL     1      15.869   8.628   3.502 -0.38 +0.00    +0.177 A 
ATOM      6  N5  UNL     1      15.611   9.920   3.379 +0.02 -0.00    -0.345 N 
ATOM      7  C12 UNL     1      16.745  10.476   2.850 -0.37 +0.00    +0.120 A 
ATOM      8  H5  UNL     1      14.746  10.402   3.625 +0.19 +0.00    +0.167 HD
ATOM      9  C11 UNL     1      17.724   9.526   2.644 -0.43 +0.00    +0.065 A 
ATOM     10  N6  UNL     1      17.117   8.335   2.991 -0.29 -0.00    -0.331 N 
ATOM     11  C14 UNL     1      17.638   7.004   2.785 -0.15 +0.00    +0.158 C 
BRANCH   9  12
ATOM     12  C8  UNL     1      19.184   9.780   2.141 -0.36 +0.00    +0.043 A 
ATOM     13  C7  UNL     1      20.321   9.275   2.724 -0.19 +0.00    +0.134 A 
ATOM     14  N3  UNL     1      21.401   9.729   2.000 -0.26 -0.00    -0.250 N 
ATOM     15  N4  UNL     1      21.010  10.525   0.976 -0.25 -0.00    -0.288 N 
ATOM     16  C9  UNL     1      19.663  10.569   1.051 -0.39 +0.00    +0.146 A 
ATOM     17  H4  UNL     1      21.608  10.991   0.293 +0.15 +0.00    +0.187 HD
BRANCH  14  18
ATOM     18  C4  UNL     1      22.771   9.429   2.264 -0.34 +0.00    +0.126 A 
ATOM     19  C5  UNL     1      23.454   8.564   1.415 -0.41 +0.00    +0.052 A 
ATOM     20  C6  UNL     1      24.794   8.280   1.687 -0.42 +0.00    +0.034 A 
ATOM     21  C2  UNL     1      25.447   8.869   2.772 -0.56 +0.00    +0.043 A 
ATOM     22  C3  UNL     1      24.657   9.689   3.580 -0.44 +0.00    +0.119 A 
ATOM     23  N2  UNL     1      23.353   9.999   3.352 -0.24 -0.00    -0.349 N 
ATOM     24  H2  UNL     1      22.838  10.628   3.967 +0.11 +0.00    +0.167 HD
BRANCH  21  25
ATOM     25  N1  UNL     1      26.764   8.499   3.050 -0.21 -0.00    -0.393 N 
ATOM     26  C1  UNL     1      27.563   7.865   2.015 -0.40 +0.00    +0.146 C 
ATOM     27  H37 UNL     1      26.852   8.038   3.953 -0.50 +0.00    +0.159 HD
ENDBRANCH  21  25
ENDBRANCH  14  18
BRANCH  16  28
ATOM     28  C10 UNL     1      18.860  11.367   0.060 -0.16 +0.00    +0.434 C 
ATOM     29  F1  UNL     1      18.227  12.418   0.649 -0.24 -0.00    -0.165 F 
ATOM     30  F2  UNL     1      17.894  10.642  -0.567 -0.08 -0.00    -0.165 F 
ATOM     31  F3  UNL     1      19.644  11.890  -0.921 -0.17 -0.00    -0.165 F 
ENDBRANCH  16  28
ENDBRANCH   9  12
ENDBRANCH   1   5
BRANCH   2  32
ATOM     32  C16 UNL     1      12.421   7.321   3.981 -0.40 +0.00    +0.036 A 
ATOM     33  C17 UNL     1      12.057   6.960   5.283 -0.33 +0.00    +0.054 A 
ATOM     34  C18 UNL     1      10.839   6.314   5.525 -0.28 +0.00    +0.051 A 
ATOM     35  C19 UNL     1       9.974   6.043   4.463 -0.24 +0.00    +0.054 A 
ATOM     36 CL1  UNL     1      10.455   5.887   7.158 -0.18 -0.00    -0.083 Cl
ATOM     37  C20 UNL     1      10.336   6.378   3.156 -0.29 +0.00    +0.021 A 
ATOM     38  C21 UNL     1      11.554   7.018   2.921 -0.36 +0.00    +0.030 A 
BRANCH  35  39
ATOM     39  C22 UNL     1       8.689   5.356   4.663 -0.16 +0.00    +0.255 C 
ATOM     40  N8  UNL     1       8.451   4.163   3.992 -0.09 -0.00    -0.345 N 
ATOM     41  C23 UNL     1       9.396   3.440   3.136 -0.07 +0.00    +0.146 C 
ATOM     42  C26 UNL     1       7.136   3.541   4.166 -0.22 +0.00    +0.146 C 
ATOM     43  C24 UNL     1       8.754   3.127   1.773 -0.15 +0.00    +0.145 C 
ATOM     44  N9  UNL     1       7.371   2.633   1.867 -0.07 -0.00    -0.346 N 
ATOM     45  C25 UNL     1       6.907   2.340   3.235 -0.26 +0.00    +0.145 C 
ATOM     46  C27 UNL     1       6.552   2.312   0.799 -0.08 +0.00    +0.254 C 
ATOM     47  O3  UNL     1       5.435   1.815   0.993 -0.11 -0.00    -0.270 OA
ATOM     48  O2  UNL     1       7.880   5.872   5.428 -0.11 -0.00    -0.267 OA
BRANCH  46  49
ATOM     49  C28 UNL     1       6.936   2.747  -0.665 -0.07 +0.00    +0.141 C 
ATOM     50  C29 UNL     1       8.395   2.315  -0.951 -0.12 +0.00    +0.075 C 
ATOM     51  C30 UNL     1       8.524   1.456  -2.197 -0.06 +0.00    +0.240 C 
ATOM     52  N10 UNL     1       7.619   0.220  -2.147 -0.16 -0.00    -0.074 N 
ATOM     53  C31 UNL     1       6.192   0.541  -1.676 -0.09 +0.00    +0.240 C 
ATOM     54  C33 UNL     1       8.233  -0.838  -1.218 -0.14 +0.00    +0.272 C 
ATOM     55  C34 UNL     1       7.566  -0.381  -3.556 -0.08 +0.00    +0.272 C 
ATOM     56  C32 UNL     1       5.947   2.042  -1.613 -0.09 +0.00    +0.075 C 
BRANCH  49  57
ATOM     57  O4  UNL     1       6.908   4.143  -0.947 -0.04 -0.00    -0.380 OA
ATOM     58  H39 UNL     1       6.615   4.299  -1.860 -0.20 +0.00    +0.211 HD
ENDBRANCH  49  57
ENDBRANCH  46  49
ENDBRANCH  35  39
ENDBRANCH   2  32
TORSDOF 9
TER
