USER    Run = 1
USER    DPF = ligand_83_receptor.dpf
USER  
USER    Estimated Free Energy of Binding    = +236.33 kcal/mol  [=(1)+(2)+(3)-(4)]
USER    
USER    (1) Final Intermolecular Energy     = +235.13 kcal/mol
USER        vdW + Hbond + desolv Energy     = +235.13 kcal/mol
USER        Electrostatic Energy            =   +0.00 kcal/mol
USER    (2) Final Total Internal Energy     =  +34.19 kcal/mol
USER    (3) Torsional Free Energy           =   +1.19 kcal/mol
USER    (4) Unbound System's Energy  [=(2)] =  +34.19 kcal/mol
USER    
USER    
USER    NEWDPF move ligand_83.pdbqt
USER    NEWDPF about 0.000000 0.000000 0.000000
USER    NEWDPF tran0 18.049239 10.492463 -3.735068
USER    NEWDPF quaternion0 -0.804646 -0.404895 0.110455 -0.420004
USER    NEWDPF axisangle0 -0.886641 -0.446155 0.121711 -130.330287
USER    NEWDPF quat0 -0.886641 -0.446155 0.121711 -130.330287
USER    NEWDPF dihe0 -180.00 -116.57 -8.97 24.99 87.05 51.58 -44.17 -157.60 180.00 -3.64 -3.64 -173.73 -171.18 -135.22 -83.23 -12.04 20.60 -103.35 84.12 -156.57 -176.65 91.96 
USER  keepresnum = 1 
USER  
REMARK  22 active torsions:
REMARK  status: ('A' for Active; 'I' for Inactive)
REMARK    1  A    between atoms: C5_5  and  C6_6 
REMARK       I    between atoms: C6_6  and  N2_48 
REMARK    2  A    between atoms: C7_7  and  N2_48 
REMARK    3  A    between atoms: C9_9  and  C11_11 
REMARK       I    between atoms: C11_11  and  N4_50 
REMARK    4  A    between atoms: C12_12  and  N4_50 
REMARK    5  A    between atoms: C14_14  and  C16_16 
REMARK       I    between atoms: C16_16  and  N6_52 
REMARK    6  A    between atoms: C17_17  and  C18_18 
REMARK    7  A    between atoms: C17_17  and  N6_52 
REMARK    8  A    between atoms: C18_18  and  C19_19 
REMARK    9  A    between atoms: C19_19  and  C20_20 
REMARK       I    between atoms: C20_20  and  N7_53 
REMARK   10  A    between atoms: C21_21  and  N7_53 
REMARK   11  A    between atoms: C23_23  and  C24_24 
REMARK       I    between atoms: C24_24  and  N10_57 
REMARK   12  A    between atoms: C25_25  and  N10_57 
REMARK   13  A    between atoms: C27_27  and  C28_28 
REMARK       I    between atoms: C28_28  and  N13_61 
REMARK   14  A    between atoms: C29_29  and  N13_61 
REMARK   15  A    between atoms: C31_31  and  C33_33 
REMARK       I    between atoms: C33_33  and  N15_63 
REMARK   16  A    between atoms: C34_34  and  C35_35 
REMARK   17  A    between atoms: C34_34  and  N15_63 
REMARK   18  A    between atoms: C35_35  and  C36_36 
REMARK       I    between atoms: C36_36  and  N16_64 
REMARK   19  A    between atoms: C37_37  and  C38_38 
REMARK   20  A    between atoms: C37_37  and  N16_64 
REMARK   21  A    between atoms: C38_38  and  C39_39 
REMARK   22  A    between atoms: C39_39  and  N17_65 
USER                              x       y       z     vdW  Elec       q    Type
USER                           _______ _______ _______ _____ _____    ______ ____
ROOT
ATOM      1  C21 UNL     1      18.437  11.078  -1.561+20.60 +0.00    +0.125 A 
ATOM      2  C22 UNL     1      18.111  11.043  -2.891+45.97 +0.00    +0.140 A 
ATOM      3  C23 UNL     1      17.205   9.334  -1.807 +2.59 +0.00    +0.178 A 
ATOM      4  C44 UNL     1      16.760   9.471  -4.281 +1.39 +0.00    +0.157 C 
ATOM      5  N8  UNL     1      17.333   9.931  -3.040 +4.36 -0.00    -0.339 N 
ATOM      6  N9  UNL     1      17.877  10.024  -0.890 +0.15 -0.00    -0.323 N 
ATOM      7  H9  UNL     1      17.958   9.814   0.105 +0.13 +0.00    +0.169 HD
ENDROOT
BRANCH   3   8
ATOM      8  C24 UNL     1      16.459   8.119  -1.495 +0.68 +0.00    +0.291 C 
ATOM      9  N10 UNL     1      15.148   8.412  -1.188+12.78 -0.00    -0.305 N 
ATOM     10  H56 UNL     1      14.891   9.392  -1.227 +0.98 +0.00    +0.170 HD
ATOM     11  O5  UNL     1      16.969   7.002  -1.517 +0.65 -0.00    -0.264 OA
BRANCH   9  12
ATOM     12  C25 UNL     1      14.192   7.502  -0.835 +3.87 +0.00    +0.125 A 
ATOM     13  C26 UNL     1      14.447   6.268  -0.287+14.87 +0.00    +0.140 A 
ATOM     14  N11 UNL     1      13.215   5.701  -0.099 +0.08 -0.00    -0.339 N 
ATOM     15  C27 UNL     1      12.270   6.597  -0.536 -0.33 +0.00    +0.178 A 
ATOM     16  C43 UNL     1      12.961   4.393   0.455+60.73 +0.00    +0.157 C 
ATOM     17  N12 UNL     1      12.854   7.699  -0.984 +3.98 -0.00    -0.323 N 
ATOM     18  H12 UNL     1      12.395   8.526  -1.364 +2.96 +0.00    +0.169 HD
BRANCH  15  19
ATOM     19  C28 UNL     1      10.823   6.432  -0.544 -0.21 +0.00    +0.290 C 
ATOM     20  N13 UNL     1      10.252   7.052   0.552 -0.14 -0.00    -0.319 N 
ATOM     21  H57 UNL     1      10.918   7.514   1.168 +0.10 +0.00    +0.169 HD
ATOM     22  O6  UNL     1      10.219   5.819  -1.420 -0.14 -0.00    -0.264 OA
BRANCH  20  23
ATOM     23  C29 UNL     1       8.915   7.107   0.868 -0.28 +0.00    +0.053 A 
ATOM     24  C30 UNL     1       8.301   7.854   1.843 +0.03 +0.00    +0.120 A 
ATOM     25  N14 UNL     1       6.951   7.614   1.791 -0.23 -0.00    -0.354 N 
ATOM     26  C31 UNL     1       6.678   6.669   0.819 -0.28 +0.00    +0.104 A 
ATOM     27  C42 UNL     1       5.992   8.341   2.597 +3.48 +0.00    +0.156 C 
ATOM     28  C32 UNL     1       7.895   6.379   0.215 -0.22 +0.00    +0.066 A 
BRANCH  26  29
ATOM     29  C33 UNL     1       5.398   6.114   0.441 -0.01 +0.00    +0.268 C 
ATOM     30  N15 UNL     1       4.564   5.790   1.486 -0.05 -0.00    -0.355 N 
ATOM     31  H58 UNL     1       4.984   5.748   2.408 +0.05 +0.00    +0.162 HD
ATOM     32  O7  UNL     1       5.087   5.915  -0.732 +0.11 -0.00    -0.266 OA
BRANCH  30  33
ATOM     33  C34 UNL     1       3.302   5.081   1.312+13.07 +0.00    +0.132 C 
BRANCH  33  34
ATOM     34  C35 UNL     1       3.466   3.565   1.289 -0.09 +0.00    +0.122 C 
BRANCH  34  35
ATOM     35  C36 UNL     1       4.368   3.118   0.159 -0.07 +0.00    +0.219 C 
ATOM     36  N16 UNL     1       3.784   2.241  -0.722 -0.02 -0.00    -0.361 N 
ATOM     37  H59 UNL     1       2.921   1.807  -0.414 +0.03 +0.00    +0.162 HD
ATOM     38  O8  UNL     1       5.503   3.557   0.014 -0.06 -0.00    -0.274 OA
BRANCH  36  39
ATOM     39  C37 UNL     1       4.500   1.565  -1.780 -0.09 +0.00    +0.124 C 
BRANCH  39  40
ATOM     40  C38 UNL     1       5.938   1.137  -1.488 -0.14 +0.00    +0.047 C 
BRANCH  40  41
ATOM     41  C39 UNL     1       6.880   2.148  -0.839 -0.04 +0.00    +0.235 C 
BRANCH  41  42
ATOM     42  N17 UNL     1       8.335   1.765  -0.859 -0.11 -0.00    -0.079 N 
ATOM     43  C40 UNL     1       9.251   2.758  -1.497 -0.08 +0.00    +0.269 C 
ATOM     44  C41 UNL     1       8.521   0.397  -1.460 -0.10 +0.00    +0.269 C 
ATOM     45  H60 UNL     1       8.629   1.635   0.135 +0.13 +0.00    +0.278 HD
ENDBRANCH  41  42
ENDBRANCH  40  41
ENDBRANCH  39  40
ENDBRANCH  36  39
ENDBRANCH  34  35
ENDBRANCH  33  34
ENDBRANCH  30  33
ENDBRANCH  26  29
ENDBRANCH  20  23
ENDBRANCH  15  19
ENDBRANCH   9  12
ENDBRANCH   3   8
BRANCH   1  46
ATOM     46  N7  UNL     1      19.214  11.966  -0.868 +0.57 -0.00    -0.312 N 
ATOM     47  C20 UNL     1      19.558  11.848   0.460 -0.53 +0.00    +0.223 C 
ATOM     48  O4  UNL     1      19.297  10.900   1.196 -0.33 -0.00    -0.273 OA
ATOM     49  H55 UNL     1      19.546  12.743  -1.419 +0.73 +0.00    +0.170 HD
BRANCH  47  50
ATOM     50  C19 UNL     1      20.356  13.030   0.978 +4.12 +0.00    +0.105 C 
BRANCH  50  51
ATOM     51  C18 UNL     1      20.074  13.380   2.439 +3.90 +0.00    +0.029 C 
BRANCH  51  52
ATOM     52  C17 UNL     1      18.590  13.488   2.784 +0.47 +0.00    +0.123 C 
BRANCH  52  53
ATOM     53  N6  UNL     1      17.966  12.197   2.968 -0.04 -0.00    -0.356 N 
ATOM     54  C16 UNL     1      16.621  12.108   3.268 +0.48 +0.00    +0.268 C 
ATOM     55  O3  UNL     1      15.903  13.102   3.323 +4.29 -0.00    -0.266 OA
ATOM     56  H54 UNL     1      18.542  11.414   3.241 +0.13 +0.00    +0.162 HD
BRANCH  54  57
ATOM     57  C14 UNL     1      16.154  10.760   3.542 +1.36 +0.00    +0.104 A 
ATOM     58  C15 UNL     1      14.881  10.216   3.406 +8.26 +0.00    +0.066 A 
ATOM     59  C12 UNL     1      14.915   8.858   3.810 -0.35 +0.00    +0.053 A 
ATOM     60  C13 UNL     1      16.206   8.596   4.195 -0.35 +0.00    +0.120 A 
ATOM     61  N5  UNL     1      16.944   9.742   4.047 -0.21 -0.00    -0.354 N 
ATOM     62  C45 UNL     1      18.355   9.840   4.363 +4.13 +0.00    +0.156 C 
BRANCH  59  63
ATOM     63  N4  UNL     1      13.830   8.004   3.820 -0.26 -0.00    -0.320 N 
ATOM     64  C11 UNL     1      12.552   8.309   3.393 -0.05 +0.00    +0.273 C 
ATOM     65  O2  UNL     1      12.162   9.417   3.040 +3.54 -0.00    -0.266 OA
ATOM     66  H53 UNL     1      13.977   7.099   4.244 +0.09 +0.00    +0.169 HD
BRANCH  64  67
ATOM     67  C9  UNL     1      11.652   7.171   3.460 -0.32 +0.00    +0.105 A 
ATOM     68  C10 UNL     1      10.392   7.145   4.043 -0.32 +0.00    +0.066 A 
ATOM     69  C7  UNL     1       9.863   5.837   3.917 -0.23 +0.00    +0.053 A 
ATOM     70  C8  UNL     1      10.792   5.103   3.221 +0.36 +0.00    +0.120 A 
ATOM     71  N3  UNL     1      11.846   5.923   2.904 +0.02 -0.00    -0.354 N 
ATOM     72  C46 UNL     1      12.934   5.528   2.034+15.47 +0.00    +0.156 C 
BRANCH  69  73
ATOM     73  N2  UNL     1       8.635   5.432   4.405 -0.08 -0.00    -0.320 N 
ATOM     74  C6  UNL     1       8.404   4.350   5.237 -0.22 +0.00    +0.272 C 
ATOM     75  O1  UNL     1       9.287   3.628   5.693 -0.30 -0.00    -0.266 OA
ATOM     76  H52 UNL     1       7.849   6.006   4.141 +0.09 +0.00    +0.169 HD
BRANCH  74  77
ATOM     77  C5  UNL     1       6.992   4.140   5.560 -0.26 +0.00    +0.102 A 
ATOM     78  C4  UNL     1       5.860   4.277   4.761 -0.23 +0.00    +0.037 A 
ATOM     79  C3  UNL     1       4.717   3.958   5.530 -0.28 +0.00    +0.020 A 
ATOM     80  C2  UNL     1       5.158   3.622   6.785 -0.14 +0.00    +0.091 A 
ATOM     81  N1  UNL     1       6.526   3.722   6.798 -0.16 -0.00    -0.357 N 
ATOM     82  C1  UNL     1       7.343   3.438   7.962 +0.70 +0.00    +0.156 C 
ENDBRANCH  74  77
ENDBRANCH  69  73
ENDBRANCH  64  67
ENDBRANCH  59  63
ENDBRANCH  54  57
ENDBRANCH  52  53
ENDBRANCH  51  52
ENDBRANCH  50  51
ENDBRANCH  47  50
ENDBRANCH   1  46
TORSDOF 22
TER
