USER    Run = 1
USER    DPF = ligand_445_receptor.dpf
USER  
USER    Estimated Free Energy of Binding    =  -14.62 kcal/mol  [=(1)+(2)+(3)-(4)]
USER    Estimated Inhibition Constant, Ki   =   19.07 pM (picomolar)  [Temperature = 298.15 K]
USER    
USER    (1) Final Intermolecular Energy     =  -15.82 kcal/mol
USER        vdW + Hbond + desolv Energy     =  -15.82 kcal/mol
USER        Electrostatic Energy            =   +0.00 kcal/mol
USER    (2) Final Total Internal Energy     =   -1.55 kcal/mol
USER    (3) Torsional Free Energy           =   +1.19 kcal/mol
USER    (4) Unbound System's Energy  [=(2)] =   -1.55 kcal/mol
USER    
USER    
USER    NEWDPF move ligand_445.pdbqt
USER    NEWDPF about 0.000000 0.000000 0.000000
USER    NEWDPF tran0 14.332991 10.081372 3.983344
USER    NEWDPF quaternion0 0.928877 0.352070 -0.064806 0.095050
USER    NEWDPF axisangle0 0.933102 0.353671 -0.065101 169.091597
USER    NEWDPF quat0 0.933102 0.353671 -0.065101 169.091597
USER    NEWDPF dihe0 170.26 46.30 170.53 88.83 -166.36 162.65 -41.58 -123.19 -13.36 3.64 177.31 170.15 
USER  keepresnum = 1 
USER  
REMARK  12 active torsions:
REMARK  status: ('A' for Active; 'I' for Inactive)
REMARK    1  A    between atoms: C2_2  and  C3_3 
REMARK    2  A    between atoms: C3_3  and  C4_4 
REMARK    3  A    between atoms: C3_3  and  N1_40 
REMARK       I    between atoms: C6_6  and  N1_40 
REMARK       I    between atoms: C6_6  and  N2_41 
REMARK    4  A    between atoms: C7_7  and  N2_41 
REMARK    5  A    between atoms: C10_10  and  O2_48 
REMARK    6  A    between atoms: C13_13  and  O2_48 
REMARK    7  A    between atoms: C16_16  and  N3_42 
REMARK    8  A    between atoms: C19_19  and  C20_20 
REMARK       I    between atoms: C19_19  and  N3_42 
REMARK    9  A    between atoms: C22_22  and  N5_45 
REMARK   10  A    between atoms: C26_26  and  C33_33 
REMARK   11  A    between atoms: C33_33  and  N6_46 
REMARK   12  A    between atoms: C36_36  and  O4_50 
USER                              x       y       z     vdW  Elec       q    Type
USER                           _______ _______ _______ _____ _____    ______ ____
ROOT
ATOM      1  C19 UNL     1      15.074   7.708   3.940 -0.35 +0.00    +0.257 C 
ATOM      2  N3  UNL     1      15.330   8.767   3.087 -0.23 -0.00    -0.323 N 
ATOM      3  O3  UNL     1      15.881   7.119   4.648 -0.63 -0.00    -0.267 OA
ATOM      4  H43 UNL     1      14.535   9.250   2.687 -0.41 +0.00    +0.169 HD
ENDROOT
BRANCH   1   5
ATOM      5  C20 UNL     1      13.655   7.290   4.020 -0.44 +0.00    +0.047 A 
ATOM      6  C21 UNL     1      13.086   6.816   5.188 -0.35 +0.00    +0.106 A 
ATOM      7  N4  UNL     1      11.795   6.416   5.290 -0.10 -0.00    -0.351 N 
ATOM      8  C22 UNL     1      10.997   6.512   4.194 -0.25 +0.00    +0.111 A 
ATOM      9  H4  UNL     1      11.430   6.052   6.170 +0.13 +0.00    +0.166 HD
ATOM     10  C23 UNL     1      11.490   7.011   2.987 -0.35 +0.00    +0.050 A 
ATOM     11  C24 UNL     1      12.830   7.405   2.904 -0.36 +0.00    +0.022 A 
BRANCH   8  12
ATOM     12  N5  UNL     1       9.622   6.087   4.302 -0.10 -0.00    -0.307 N 
ATOM     13  C25 UNL     1       8.633   6.316   3.359 -0.20 +0.00    +0.108 A 
ATOM     14  C26 UNL     1       7.434   5.780   3.786 -0.21 -0.00    -0.002 A 
ATOM     15  C27 UNL     1       7.691   5.176   5.051 -0.27 +0.00    +0.001 A 
ATOM     16  C28 UNL     1       6.869   4.479   5.964 -0.37 +0.00    +0.014 A 
ATOM     17  C32 UNL     1       9.046   5.366   5.356 -0.25 +0.00    +0.051 A 
ATOM     18  C29 UNL     1       7.404   3.982   7.153 -0.46 +0.00    +0.001 A 
ATOM     19  C30 UNL     1       8.747   4.172   7.445 -0.53 +0.00    +0.002 A 
ATOM     20  C31 UNL     1       9.582   4.862   6.560 -0.35 +0.00    +0.031 A 
BRANCH  14  21
ATOM     21  C33 UNL     1       6.132   5.805   3.039 -0.11 +0.00    +0.313 C 
BRANCH  21  22
ATOM     22  N6  UNL     1       6.325   5.389   1.645 -0.14 +0.00    +0.092 N 
ATOM     23  C34 UNL     1       7.369   4.362   1.548 -0.04 +0.00    +0.275 C 
ATOM     24  C35 UNL     1       7.889   4.214   0.123 -0.12 +0.00    +0.062 C 
ATOM     25  C36 UNL     1       8.575   5.503  -0.331 -0.15 +0.00    +0.121 C 
ATOM     26  C37 UNL     1       7.967   6.748   0.315 -0.32 +0.00    +0.062 C 
ATOM     27  C38 UNL     1       6.510   6.511   0.710 -0.22 +0.00    +0.275 C 
BRANCH  25  28
ATOM     28  O4  UNL     1       8.487   5.616  -1.751 -0.02 -0.00    -0.395 OA
ATOM     29  H44 UNL     1       7.960   6.408  -1.952 -0.47 +0.00    +0.210 HD
ENDBRANCH  25  28
ENDBRANCH  21  22
ENDBRANCH  14  21
ENDBRANCH   8  12
ENDBRANCH   1   5
BRANCH   2  30
ATOM     30  C16 UNL     1      16.587   9.336   2.785 -0.47 +0.00    +0.035 A 
ATOM     31  C15 UNL     1      16.781  10.351   1.842 -0.46 +0.00    +0.039 A 
ATOM     32  C14 UNL     1      18.061  10.875   1.593 -0.49 -0.00    -0.026 A 
ATOM     33  C13 UNL     1      19.156  10.354   2.296 -0.38 +0.00    +0.082 A 
ATOM     34  C39 UNL     1      18.247  11.965   0.577 -0.56 +0.00    +0.051 C 
ATOM     35  C18 UNL     1      18.970   9.362   3.260 -0.28 +0.00    +0.040 A 
ATOM     36  C17 UNL     1      17.691   8.853   3.496 -0.51 +0.00    +0.032 A 
BRANCH  33  37
ATOM     37  O2  UNL     1      20.401  10.897   2.065 -0.29 -0.00    -0.310 OA
BRANCH  37  38
ATOM     38  C10 UNL     1      21.402  10.038   1.672 -0.35 +0.00    +0.076 A 
ATOM     39  C9  UNL     1      22.135   9.252   2.561 -0.43 +0.00    +0.039 A 
ATOM     40  C8  UNL     1      23.118   8.380   2.080 -0.39 +0.00    +0.032 A 
ATOM     41  C7  UNL     1      23.365   8.277   0.710 -0.44 +0.00    +0.036 A 
ATOM     42  C12 UNL     1      22.603   9.048  -0.178 -0.43 +0.00    +0.032 A 
ATOM     43  C11 UNL     1      21.622   9.922   0.301 -0.43 +0.00    +0.039 A 
BRANCH  41  44
ATOM     44  N2  UNL     1      24.329   7.414   0.152 -0.20 -0.00    -0.309 N 
ATOM     45  C6  UNL     1      25.657   7.302   0.501 -0.22 +0.00    +0.321 C 
ATOM     46  N1  UNL     1      26.253   6.267  -0.198 -0.13 -0.00    -0.338 N 
ATOM     47  O1  UNL     1      26.270   8.004   1.294 -0.29 -0.00    -0.247 OA
ATOM     48  H41 UNL     1      25.635   5.508  -0.443 +0.12 +0.00    +0.164 HD
ATOM     49  H42 UNL     1      24.069   6.936  -0.697 +0.12 +0.00    +0.170 HD
BRANCH  46  50
ATOM     50  C3  UNL     1      27.650   5.910   0.036 -0.28 +0.00    +0.085 C 
BRANCH  50  51
ATOM     51  C2  UNL     1      28.581   7.019  -0.485 -0.30 +0.00    +0.021 C 
ATOM     52  C1  UNL     1      29.320   7.733   0.640 -0.36 +0.00    +0.007 C 
ENDBRANCH  50  51
BRANCH  50  53
ATOM     53  C4  UNL     1      27.990   4.533  -0.569 -0.30 +0.00    +0.021 C 
ATOM     54  C5  UNL     1      28.605   3.539   0.407 -0.37 +0.00    +0.007 C 
ENDBRANCH  50  53
ENDBRANCH  46  50
ENDBRANCH  41  44
ENDBRANCH  37  38
ENDBRANCH  33  37
ENDBRANCH   2  30
TORSDOF 12
TER
