USER    Run = 1
USER    DPF = ligand_5_receptor.dpf
USER  
USER    Estimated Free Energy of Binding    =  +9.46e+003 kcal/mol  [=(1)+(2)+(3)-(4)]
USER    
USER    (1) Final Intermolecular Energy     =  +9.46e+003 kcal/mol
USER        vdW + Hbond + desolv Energy     =  +9.46e+003 kcal/mol
USER        Electrostatic Energy            =   +0.00 kcal/mol
USER    (2) Final Total Internal Energy     =   +0.00 kcal/mol
USER    (3) Torsional Free Energy           =   +1.19 kcal/mol
USER    (4) Unbound System's Energy  [=(2)] =   +0.00 kcal/mol
USER    
USER    
USER    NEWDPF move ligand_5.pdbqt
USER    NEWDPF about 0.000000 0.000000 0.000000
USER    NEWDPF tran0 12.388164 7.211338 2.721838
USER    NEWDPF quaternion0 -0.965079 -0.170277 0.119580 -0.159150
USER    NEWDPF axisangle0 -0.977538 -0.172476 0.121123 -161.684855
USER    NEWDPF quat0 -0.977538 -0.172476 0.121123 -161.684855
USER  keepresnum = 1 
USER  
REMARK  0 active torsions:
REMARK  status: ('A' for Active; 'I' for Inactive)
REMARK       I    between atoms: O15_15  and  C38_55 
REMARK       I    between atoms: O16_16  and  C58_75 
REMARK       I    between atoms: C1_18  and  N1_88 
REMARK       I    between atoms: C2_19  and  C3_20 
REMARK       I    between atoms: C2_19  and  N1_88 
REMARK       I    between atoms: C3_20  and  N2_89 
REMARK       I    between atoms: C4_21  and  C5_22 
REMARK       I    between atoms: C4_21  and  C65_82 
REMARK       I    between atoms: C4_21  and  N2_89 
REMARK       I    between atoms: C5_22  and  N3_90 
REMARK       I    between atoms: C6_23  and  C7_24 
REMARK       I    between atoms: C6_23  and  C61_78 
REMARK       I    between atoms: C6_23  and  N3_90 
REMARK       I    between atoms: C7_24  and  N4_91 
REMARK       I    between atoms: C8_25  and  C9_26 
REMARK       I    between atoms: C8_25  and  N4_91 
REMARK       I    between atoms: C9_26  and  N5_92 
REMARK       I    between atoms: C13_30  and  C14_31 
REMARK       I    between atoms: C14_31  and  N6_93 
REMARK       I    between atoms: C15_32  and  C16_33 
REMARK       I    between atoms: C15_32  and  C58_75 
REMARK       I    between atoms: C15_32  and  N6_93 
REMARK       I    between atoms: C16_33  and  N7_94 
REMARK       I    between atoms: C17_34  and  C18_35 
REMARK       I    between atoms: C17_34  and  C54_71 
REMARK       I    between atoms: C17_34  and  N7_94 
REMARK       I    between atoms: C18_35  and  N8_95 
REMARK       I    between atoms: C19_36  and  C20_37 
REMARK       I    between atoms: C19_36  and  N8_95 
REMARK       I    between atoms: C20_37  and  N9_96 
REMARK       I    between atoms: C24_41  and  C25_42 
REMARK       I    between atoms: C25_42  and  N10_97 
REMARK       I    between atoms: C26_43  and  C27_44 
REMARK       I    between atoms: C26_43  and  C50_67 
REMARK       I    between atoms: C26_43  and  N10_97 
REMARK       I    between atoms: C27_44  and  N11_98 
REMARK       I    between atoms: C28_45  and  C29_46 
REMARK       I    between atoms: C28_45  and  C45_62 
REMARK       I    between atoms: C28_45  and  N11_98 
REMARK       I    between atoms: C29_46  and  N12_99 
REMARK       I    between atoms: C30_47  and  C31_48 
REMARK       I    between atoms: C30_47  and  N12_99 
REMARK       I    between atoms: C31_48  and  N13_100 
REMARK       I    between atoms: C35_52  and  C36_53 
REMARK       I    between atoms: C36_53  and  N14_101 
REMARK       I    between atoms: C37_54  and  C38_55 
REMARK       I    between atoms: C37_54  and  C39_56 
REMARK       I    between atoms: C37_54  and  N14_101 
REMARK       I    between atoms: C39_56  and  C40_57 
REMARK       I    between atoms: C45_62  and  C46_63 
REMARK       I    between atoms: C54_71  and  C56_73 
REMARK       I    between atoms: C61_78  and  C62_79 
REMARK       I    between atoms: C65_82  and  C66_83 
REMARK       I    between atoms: C66_83  and  C67_84 
REMARK       I    between atoms: C67_84  and  N15_102 
USER                              x       y       z     vdW  Elec       q    Type
USER                           _______ _______ _______ _____ _____    ______ ____
ROOT
ATOM      1  O1  UNL     1      26.471  12.707   1.691+99.99 -0.00    -0.274 OA
ATOM      2  O2  UNL     1      22.789   8.823   1.699 -0.29 -0.00    -0.271 OA
ATOM      3  O3  UNL     1      20.318  12.763   3.136 +5.48 -0.00    -0.271 OA
ATOM      4  O4  UNL     1      16.237  13.771   3.218 +5.08 -0.00    -0.271 OA
ATOM      5  O5  UNL     1      16.030  10.398  -0.825+48.25 -0.00    -0.271 OA
ATOM      6  O6  UNL     1      14.019   7.266  -1.891+42.36 -0.00    -0.271 OA
ATOM      7  O7  UNL     1      10.338   9.446  -3.559 -0.42 -0.00    -0.271 OA
ATOM      8  O8  UNL     1       7.901   6.371  -1.945 +6.15 -0.00    -0.271 OA
ATOM      9  O9  UNL     1      10.821   8.859   0.966+99.99 -0.00    -0.271 OA
ATOM     10  O10 UNL     1       7.822   6.179   4.646 -0.12 -0.00    -0.271 OA
ATOM     11  O11 UNL     1      10.500   5.905   7.166 -0.18 -0.00    -0.271 OA
ATOM     12  O12 UNL     1       6.179   4.089   8.824+99.99 -0.00    -0.271 OA
ATOM     13  O13 UNL     1       2.710   4.525   6.942 -0.17 -0.00    -0.271 OA
ATOM     14  O14 UNL     1       7.461   2.537   4.887 +3.15 -0.00    -0.271 OA
ATOM     15  O15 UNL     1       4.444   4.594   1.857 -0.15 -0.00    -0.399 OA
ATOM     16  O16 UNL     1      13.557  11.812  -2.219+14.83 -0.00    -0.398 OA
ATOM     17  O17 UNL     1      17.809   9.064   2.375 -0.30 -0.00    -0.274 OA
ATOM     18  C1  UNL     1      25.367  12.881   1.189 +6.92 +0.00    +0.214 C 
ATOM     19  C2  UNL     1      24.433  10.648   1.895 +2.02 +0.00    +0.106 C 
ATOM     20  C3  UNL     1      23.009  10.021   1.862 +0.33 +0.00    +0.246 C 
ATOM     21  C4  UNL     1      20.607  10.497   2.314 -0.34 +0.00    +0.177 C 
ATOM     22  C5  UNL     1      19.883  11.614   3.092 +9.18 +0.00    +0.241 C 
ATOM     23  C6  UNL     1      17.768  12.191   4.254+99.99 +0.00    +0.177 C 
ATOM     24  C7  UNL     1      16.786  12.674   3.158 +0.68 +0.00    +0.241 C 
ATOM     25  C8  UNL     1      15.658  11.980   1.005 +0.52 +0.00    +0.106 C 
ATOM     26  C9  UNL     1      15.496  10.602   0.273 +1.22 +0.00    +0.248 C 
ATOM     27  C10 UNL     1      14.173   9.545   2.189+99.99 +0.00    +0.127 C 
ATOM     28  C11 UNL     1      14.211   8.075   2.568 +1.24 +0.00    +0.022 C 
ATOM     29  C12 UNL     1      13.989   7.367   1.243 +8.98 +0.00    +0.037 C 
ATOM     30  C13 UNL     1      14.707   8.256   0.226 +9.57 +0.00    +0.179 C 
ATOM     31  C14 UNL     1      13.954   8.221  -1.118+99.99 +0.00    +0.241 C 
ATOM     32  C15 UNL     1      12.602   9.605  -2.674+99.99 +0.00    +0.200 C 
ATOM     33  C16 UNL     1      11.279   8.889  -3.001 +0.70 +0.00    +0.243 C 
ATOM     34  C17 UNL     1      10.093   6.703  -2.955 -0.23 +0.00    +0.180 C 
ATOM     35  C18 UNL     1       9.030   6.842  -1.835 -0.18 +0.00    +0.241 C 
ATOM     36  C19 UNL     1       8.722   7.701   0.550 -0.15 +0.00    +0.106 C 
ATOM     37  C20 UNL     1       9.748   8.475   1.462+15.44 +0.00    +0.248 C 
ATOM     38  C21 UNL     1      10.213   9.896   3.403+15.62 +0.00    +0.127 C 
ATOM     39  C22 UNL     1       9.204  10.502   4.359+99.99 +0.00    +0.022 C 
ATOM     40  C23 UNL     1       8.436   9.290   4.864+99.99 +0.00    +0.037 C 
ATOM     41  C24 UNL     1       8.418   8.318   3.673 +2.76 +0.00    +0.179 C 
ATOM     42  C25 UNL     1       8.714   6.902   4.209 +0.20 +0.00    +0.241 C 
ATOM     43  C26 UNL     1      10.548   5.280   4.808 -0.28 +0.00    +0.110 C 
ATOM     44  C27 UNL     1      10.047   5.166   6.288 -0.23 +0.00    +0.246 C 
ATOM     45  C28 UNL     1       8.422   4.131   7.869 -0.48 +0.00    +0.177 C 
ATOM     46  C29 UNL     1       6.887   4.364   7.857 +1.11 +0.00    +0.241 C 
ATOM     47  C30 UNL     1       4.971   5.333   6.553 -0.37 +0.00    +0.106 C 
ATOM     48  C31 UNL     1       3.854   4.223   6.571 -0.27 +0.00    +0.248 C 
ATOM     49  C32 UNL     1       2.899   2.104   5.837 -0.27 +0.00    +0.127 C 
ATOM     50  C33 UNL     1       3.443   0.840   5.201 +0.04 +0.00    +0.022 C 
ATOM     51  C34 UNL     1       4.841   0.754   5.796+28.79 +0.00    +0.037 C 
ATOM     52  C35 UNL     1       5.290   2.221   5.914+15.37 +0.00    +0.179 C 
ATOM     53  C36 UNL     1       6.237   2.565   4.752 +5.60 +0.00    +0.241 C 
ATOM     54  C37 UNL     1       6.331   3.138   2.321 -0.15 +0.00    +0.108 C 
ATOM     55  C38 UNL     1       5.321   3.630   1.269 -0.07 +0.00    +0.189 C 
ATOM     56  C39 UNL     1       7.200   1.969   1.804 -0.27 +0.00    +0.031 C 
ATOM     57  C40 UNL     1       8.123   2.319   0.617 -0.20 -0.00    -0.021 C 
ATOM     58  C41 UNL     1       7.495   1.951  -0.730 -0.13 +0.00    +0.009 C 
ATOM     59  C42 UNL     1       9.460   1.582   0.752 -0.30 +0.00    +0.009 C 
ATOM     60  C43 UNL     1       4.819   6.017   5.176 -0.04 +0.00    +0.048 C 
ATOM     61  C44 UNL     1       4.643   6.401   7.618 +0.01 +0.00    +0.048 C 
ATOM     62  C45 UNL     1       8.714   2.726   8.426 -0.50 +0.00    +0.038 C 
ATOM     63  C46 UNL     1      10.208   2.388   8.608+17.61 -0.00    -0.020 C 
ATOM     64  C47 UNL     1      10.876   3.269   9.666+99.99 +0.00    +0.009 C 
ATOM     65  C48 UNL     1      10.359   0.915   9.000+25.47 +0.00    +0.009 C 
ATOM     66  C49 UNL     1      10.136   4.133   3.878 -0.22 +0.00    +0.049 C 
ATOM     67  C50 UNL     1      12.101   5.378   4.842 -0.14 +0.00    +0.036 C 
ATOM     68  C51 UNL     1      12.816   4.142   5.376 +1.12 +0.00    +0.008 C 
ATOM     69  C52 UNL     1       7.550   8.636   0.230 +2.92 +0.00    +0.048 C 
ATOM     70  C53 UNL     1       8.246   6.376   1.140 -0.26 +0.00    +0.048 C 
ATOM     71  C54 UNL     1      10.431   5.211  -3.203 -0.27 +0.00    +0.013 C 
ATOM     72  C55 UNL     1      11.507   5.046  -4.281 -0.02 +0.00    +0.012 C 
ATOM     73  C56 UNL     1      10.741   4.359  -1.951 +0.13 +0.00    +0.002 C 
ATOM     74  C57 UNL     1      11.966   4.747  -1.141 +3.32 +0.00    +0.005 C 
ATOM     75  C58 UNL     1      12.435  11.126  -2.792 +9.10 +0.00    +0.199 C 
ATOM     76  C59 UNL     1      16.436  12.934   0.076+10.94 +0.00    +0.048 C 
ATOM     77  C60 UNL     1      14.285  12.600   1.303+91.28 +0.00    +0.048 C 
ATOM     78  C61 UNL     1      16.954  11.561   5.394+82.66 +0.00    +0.038 C 
ATOM     79  C62 UNL     1      17.793  11.073   6.592+16.18 -0.00    -0.020 C 
ATOM     80  C63 UNL     1      18.572  12.207   7.260+81.49 +0.00    +0.009 C 
ATOM     81  C64 UNL     1      16.881  10.396   7.619+99.99 +0.00    +0.009 C 
ATOM     82  C65 UNL     1      19.928  10.266   0.947 -0.49 +0.00    +0.044 C 
ATOM     83  C66 UNL     1      19.548   8.804   0.705+88.52 +0.00    +0.105 C 
ATOM     84  C67 UNL     1      18.444   8.329   1.623 +8.68 +0.00    +0.215 C 
ATOM     85  C68 UNL     1      24.843  10.748   3.372 -0.35 +0.00    +0.048 C 
ATOM     86  C69 UNL     1      25.401   9.745   1.124 +1.64 +0.00    +0.048 C 
ATOM     87  C70 UNL     1      25.039  14.122   0.403+27.74 +0.00    +0.117 C 
ATOM     88  N1  UNL     1      24.329  11.982   1.266+99.99 -0.00    -0.344 N 
ATOM     89  N2  UNL     1      21.995  10.910   2.153 +8.87 -0.00    -0.346 N 
ATOM     90  N3  UNL     1      18.709  11.221   3.693 +3.80 -0.00    -0.346 N 
ATOM     91  N4  UNL     1      16.459  11.722   2.213 -0.21 -0.00    -0.342 N 
ATOM     92  N5  UNL     1      14.750   9.589   0.854+99.99 -0.00    -0.337 N 
ATOM     93  N6  UNL     1      13.090   9.265  -1.336+99.99 -0.00    -0.344 N 
ATOM     94  N7  UNL     1      11.264   7.542  -2.698 -0.11 -0.00    -0.346 N 
ATOM     95  N8  UNL     1       9.497   7.424  -0.678 -0.16 -0.00    -0.342 N 
ATOM     96  N9  UNL     1       9.479   8.807   2.771 +1.39 -0.00    -0.337 N 
ATOM     97  N10 UNL     1      10.048   6.574   4.294 -0.10 -0.00    -0.342 N 
ATOM     98  N11 UNL     1       9.018   4.290   6.541 -0.18 -0.00    -0.346 N 
ATOM     99  N12 UNL     1       6.368   4.888   6.691 -0.23 -0.00    -0.342 N 
ATOM    100  N13 UNL     1       4.044   2.997   5.936 -0.19 -0.00    -0.337 N 
ATOM    101  N14 UNL     1       5.607   2.750   3.537 -0.08 -0.00    -0.353 N 
ATOM    102  N15 UNL     1      18.184   6.994   1.550+28.08 -0.00    -0.370 N 
ATOM    103  H1  UNL     1       3.874   4.927   1.140 +0.04 +0.00    +0.209 HD
ATOM    104  H2  UNL     1      14.373  11.372  -2.528+99.99 +0.00    +0.209 HD
ATOM    105  HA9 UNL     1      23.550  12.120   0.632+12.33 +0.00    +0.163 HD
ATOM    106  HB0 UNL     1      22.235  11.852   2.458+24.80 +0.00    +0.163 HD
ATOM    107  HB1 UNL     1      18.366  10.279   3.507 +0.12 +0.00    +0.163 HD
ATOM    108  HB2 UNL     1      17.011  10.869   2.211 +0.14 +0.00    +0.163 HD
ATOM    109  HB3 UNL     1      13.137  10.032  -0.671+99.99 +0.00    +0.163 HD
ATOM    110  HB4 UNL     1      12.141   7.121  -2.391 +0.06 +0.00    +0.163 HD
ATOM    111  HB5 UNL     1      10.401   7.891  -0.746 +0.01 +0.00    +0.163 HD
ATOM    112  HB6 UNL     1      10.699   7.187   3.816 +0.10 +0.00    +0.163 HD
ATOM    113  HB7 UNL     1       8.591   3.751   5.786 +0.06 +0.00    +0.163 HD
ATOM    114  HB8 UNL     1       7.049   5.301   6.048 +0.09 +0.00    +0.163 HD
ATOM    115  HB9 UNL     1       4.667   3.133   3.614 +0.06 +0.00    +0.163 HD
ATOM    116  HC0 UNL     1      17.521   6.595   2.202 +0.02 +0.00    +0.159 HD
ATOM    117  HC1 UNL     1      18.808   6.357   1.070+43.85 +0.00    +0.159 HD
ENDROOT
TORSDOF 40
TER
