USER    Run = 1
USER    DPF = ligand_197_receptor.dpf
USER  
USER    Estimated Free Energy of Binding    =  +4.52e+003 kcal/mol  [=(1)+(2)+(3)-(4)]
USER    
USER    (1) Final Intermolecular Energy     =  +4.52e+003 kcal/mol
USER        vdW + Hbond + desolv Energy     =  +4.52e+003 kcal/mol
USER        Electrostatic Energy            =   +0.00 kcal/mol
USER    (2) Final Total Internal Energy     =   +0.00 kcal/mol
USER    (3) Torsional Free Energy           =   +1.19 kcal/mol
USER    (4) Unbound System's Energy  [=(2)] =   +0.00 kcal/mol
USER    
USER    
USER    NEWDPF move ligand_197.pdbqt
USER    NEWDPF about 0.000000 0.000000 0.000000
USER    NEWDPF tran0 17.282878 7.612602 2.343764
USER    NEWDPF quaternion0 0.209548 -0.494079 0.843786 -0.000260
USER    NEWDPF axisangle0 0.209548 -0.494079 0.843786 -179.970207
USER    NEWDPF quat0 0.209548 -0.494079 0.843786 -179.970207
USER  keepresnum = 1 
USER  
REMARK  0 active torsions:
REMARK  status: ('A' for Active; 'I' for Inactive)
REMARK       I    between atoms: C3_3  and  S2_69 
REMARK       I    between atoms: C6_6  and  N1_44 
REMARK       I    between atoms: C7_7  and  C8_8 
REMARK       I    between atoms: C7_7  and  N1_44 
REMARK       I    between atoms: C8_8  and  C9_9 
REMARK       I    between atoms: C9_9  and  C10_10 
REMARK       I    between atoms: C10_10  and  C11_11 
REMARK       I    between atoms: C11_11  and  C12_12 
REMARK       I    between atoms: C12_12  and  C13_13 
REMARK       I    between atoms: C13_13  and  N2_45 
REMARK       I    between atoms: C14_14  and  N2_45 
REMARK       I    between atoms: C17_17  and  S1_68 
REMARK       I    between atoms: C20_20  and  S1_68 
REMARK       I    between atoms: C21_21  and  O12_57 
REMARK       I    between atoms: C22_22  and  O11_56 
REMARK       I    between atoms: C23_23  and  O5_50 
REMARK       I    between atoms: C24_24  and  C25_25 
REMARK       I    between atoms: C25_25  and  O4_49 
REMARK       I    between atoms: C26_26  and  O5_50 
REMARK       I    between atoms: C27_27  and  O10_55 
REMARK       I    between atoms: C28_28  and  O9_54 
REMARK       I    between atoms: C29_29  and  O8_53 
REMARK       I    between atoms: C30_30  and  C31_31 
REMARK       I    between atoms: C31_31  and  O7_52 
REMARK       I    between atoms: C32_32  and  S2_69 
REMARK       I    between atoms: C33_33  and  O22_67 
REMARK       I    between atoms: C34_34  and  O21_66 
REMARK       I    between atoms: C35_35  and  O15_60 
REMARK       I    between atoms: C36_36  and  C37_37 
REMARK       I    between atoms: C37_37  and  O14_59 
REMARK       I    between atoms: C38_38  and  O15_60 
REMARK       I    between atoms: C39_39  and  O20_65 
REMARK       I    between atoms: C40_40  and  O19_64 
REMARK       I    between atoms: C41_41  and  O18_63 
REMARK       I    between atoms: C42_42  and  C43_43 
REMARK       I    between atoms: C43_43  and  O17_62 
USER                              x       y       z     vdW  Elec       q    Type
USER                           _______ _______ _______ _____ _____    ______ ____
ROOT
ATOM      1  C1  UNL     1      13.067   9.495   4.295+26.98 +0.00    +0.031 A 
ATOM      2  C2  UNL     1      12.526   8.851   5.416 +2.15 +0.00    +0.021 A 
ATOM      3  C3  UNL     1      12.973   7.584   5.791 -0.42 +0.00    +0.003 A 
ATOM      4  C4  UNL     1      13.990   6.978   5.049 -0.46 +0.00    +0.021 A 
ATOM      5  C5  UNL     1      14.531   7.622   3.931 -0.46 +0.00    +0.031 A 
ATOM      6  C6  UNL     1      14.071   8.885   3.542 -0.03 +0.00    +0.034 A 
ATOM      7  C7  UNL     1      14.377  10.691   1.825+33.83 +0.00    +0.222 C 
ATOM      8  C8  UNL     1      15.285  10.961   0.633 +0.62 +0.00    +0.103 C 
ATOM      9  C9  UNL     1      15.007  12.283  -0.080 +1.49 +0.00    +0.009 C 
ATOM     10  C10 UNL     1      15.447  13.537   0.685+99.99 +0.00    +0.001 C 
ATOM     11  C11 UNL     1      16.866  14.038   0.379+79.38 +0.00    +0.009 C 
ATOM     12  C12 UNL     1      17.988  13.270   1.079 +0.62 +0.00    +0.103 C 
ATOM     13  C13 UNL     1      18.540  12.090   0.291 -0.19 +0.00    +0.222 C 
ATOM     14  C14 UNL     1      20.162  10.213   0.662 -0.41 +0.00    +0.034 A 
ATOM     15  C15 UNL     1      19.990   9.558  -0.556 +5.15 +0.00    +0.031 A 
ATOM     16  C16 UNL     1      20.719   8.397  -0.848+15.00 +0.00    +0.021 A 
ATOM     17  C17 UNL     1      21.639   7.877   0.067+38.47 +0.00    +0.003 A 
ATOM     18  C18 UNL     1      21.797   8.522   1.294 +2.67 +0.00    +0.021 A 
ATOM     19  C19 UNL     1      21.070   9.682   1.586 -0.33 +0.00    +0.031 A 
ATOM     20  C20 UNL     1      24.183   6.667   0.328 -0.37 +0.00    +0.219 C 
ATOM     21  C21 UNL     1      25.124   5.532  -0.119 -0.41 +0.00    +0.188 C 
ATOM     22  C22 UNL     1      26.563   6.006   0.044 -0.29 +0.00    +0.181 C 
ATOM     23  C23 UNL     1      26.845   7.202  -0.873 -0.21 +0.00    +0.187 C 
ATOM     24  C24 UNL     1      25.625   8.151  -0.981 +3.68 +0.00    +0.178 C 
ATOM     25  C25 UNL     1      24.944   8.080  -2.358+50.99 +0.00    +0.198 C 
ATOM     26  C26 UNL     1      28.745   8.628  -1.243 +6.15 +0.00    +0.292 C 
ATOM     27  C27 UNL     1      29.798   7.700  -1.897 -0.20 +0.00    +0.204 C 
ATOM     28  C28 UNL     1      30.917   8.510  -2.568 -0.20 +0.00    +0.183 C 
ATOM     29  C29 UNL     1      30.525   9.979  -2.754 +3.45 +0.00    +0.180 C 
ATOM     30  C30 UNL     1      30.090  10.609  -1.418+14.99 +0.00    +0.179 C 
ATOM     31  C31 UNL     1      29.218  11.852  -1.669+99.99 +0.00    +0.198 C 
ATOM     32  C32 UNL     1      10.517   6.750   6.877 +0.42 +0.00    +0.219 C 
ATOM     33  C33 UNL     1      10.068   6.056   5.569 -0.21 +0.00    +0.188 C 
ATOM     34  C34 UNL     1       9.984   4.526   5.701 -0.30 +0.00    +0.181 C 
ATOM     35  C35 UNL     1       9.194   4.121   6.960 -0.40 +0.00    +0.187 C 
ATOM     36  C36 UNL     1       9.801   4.841   8.183 -0.32 +0.00    +0.178 C 
ATOM     37  C37 UNL     1       9.060   4.542   9.490 +9.63 +0.00    +0.198 C 
ATOM     38  C38 UNL     1       6.860   3.549   7.131 +0.43 +0.00    +0.292 C 
ATOM     39  C39 UNL     1       6.482   2.677   5.909+99.99 +0.00    +0.204 C 
ATOM     40  C40 UNL     1       5.359   3.371   5.152 -0.18 +0.00    +0.183 C 
ATOM     41  C41 UNL     1       4.108   3.407   6.037 -0.29 +0.00    +0.180 C 
ATOM     42  C42 UNL     1       4.453   3.722   7.513 +0.30 +0.00    +0.179 C 
ATOM     43  C43 UNL     1       4.284   2.514   8.451+99.99 +0.00    +0.198 C 
ATOM     44  N1  UNL     1      14.672   9.467   2.407 +4.69 -0.00    -0.327 N 
ATOM     45  N2  UNL     1      19.471  11.383   1.037 -0.30 -0.00    -0.327 N 
ATOM     46  O1  UNL     1      13.519  11.483   2.193 +8.85 -0.00    -0.273 OA
ATOM     47  O2  UNL     1      18.172  11.828  -0.848+11.41 -0.00    -0.273 OA
ATOM     48  O3  UNL     1      24.679   7.982   0.080 -0.19 -0.00    -0.362 OA
ATOM     49  O4  UNL     1      25.858   8.464  -3.382+99.99 -0.00    -0.398 OA
ATOM     50  O5  UNL     1      27.970   7.891  -0.293 -0.19 -0.00    -0.348 OA
ATOM     51  O6  UNL     1      29.402   9.690  -0.554 +2.72 -0.00    -0.348 OA
ATOM     52  O7  UNL     1      29.082  12.611  -0.469+11.54 -0.00    -0.398 OA
ATOM     53  O8  UNL     1      31.620  10.698  -3.340+14.35 -0.00    -0.390 OA
ATOM     54  O9  UNL     1      31.217   7.954  -3.860 -0.08 -0.00    -0.390 OA
ATOM     55  O10 UNL     1      30.402   6.845  -0.902 -0.02 -0.00    -0.388 OA
ATOM     56  O11 UNL     1      27.459   4.935  -0.294 -0.18 -0.00    -0.390 OA
ATOM     57  O12 UNL     1      24.934   4.341   0.662 -0.43 -0.00    -0.389 OA
ATOM     58  O13 UNL     1       9.777   6.270   8.014 +4.16 -0.00    -0.362 OA
ATOM     59  O14 UNL     1       9.047   3.148   9.778 +4.76 -0.00    -0.398 OA
ATOM     60  O15 UNL     1       7.829   4.541   6.767 -0.24 -0.00    -0.348 OA
ATOM     61  O16 UNL     1       5.754   4.293   7.664 -0.25 -0.00    -0.348 OA
ATOM     62  O17 UNL     1       2.954   2.014   8.432 +0.00 -0.00    -0.398 OA
ATOM     63  O18 UNL     1       3.223   4.413   5.513 -0.05 -0.00    -0.390 OA
ATOM     64  O19 UNL     1       5.084   2.641   3.941 -0.10 -0.00    -0.390 OA
ATOM     65  O20 UNL     1       7.582   2.392   5.037 +9.77 -0.00    -0.388 OA
ATOM     66  O21 UNL     1      11.284   3.932   5.720 -0.24 -0.00    -0.390 OA
ATOM     67  O22 UNL     1       8.775   6.568   5.183 +0.51 -0.00    -0.389 OA
ATOM     68  S1  UNL     1      22.514   6.387  -0.388 +0.58 -0.00    -0.095 SA
ATOM     69  S2  UNL     1      12.330   6.725   7.214 -0.49 -0.00    -0.095 SA
ATOM     70  H47 UNL     1      15.395   8.917   1.958 -0.22 +0.00    +0.169 HD
ATOM     71  H48 UNL     1      19.693  11.754   1.952 +0.14 +0.00    +0.169 HD
ATOM     72  H49 UNL     1      25.356   8.476  -4.218+99.99 +0.00    +0.209 HD
ATOM     73  H50 UNL     1      28.438  13.316  -0.645 +6.03 +0.00    +0.209 HD
ATOM     74  H51 UNL     1      32.356  10.697  -2.700 +0.07 +0.00    +0.210 HD
ATOM     75  H52 UNL     1      31.805   8.597  -4.301 +0.07 +0.00    +0.210 HD
ATOM     76  H53 UNL     1      29.669   6.573  -0.312 +0.09 +0.00    +0.210 HD
ATOM     77  H54 UNL     1      27.139   4.162   0.215 +0.11 +0.00    +0.210 HD
ATOM     78  H55 UNL     1      24.014   4.048   0.515 +0.15 +0.00    +0.210 HD
ATOM     79  H56 UNL     1       8.716   3.058  10.689 +0.93 +0.00    +0.209 HD
ATOM     80  H57 UNL     1       2.375   2.701   8.808 -0.45 +0.00    +0.209 HD
ATOM     81  H58 UNL     1       2.769   4.022   4.747 +0.07 +0.00    +0.210 HD
ATOM     82  H59 UNL     1       4.627   3.264   3.345 +0.08 +0.00    +0.210 HD
ATOM     83  H60 UNL     1       7.168   2.104   4.198 -0.37 +0.00    +0.210 HD
ATOM     84  H61 UNL     1      11.662   4.045   4.830 +0.11 +0.00    +0.210 HD
ATOM     85  H62 UNL     1       8.135   6.217   5.841 +0.13 +0.00    +0.210 HD
ENDROOT
TORSDOF 34
TER
