USER    Run = 1
USER    DPF = ligand_367_receptor.dpf
USER  
USER    Estimated Free Energy of Binding    =   -5.81 kcal/mol  [=(1)+(2)+(3)-(4)]
USER    Estimated Inhibition Constant, Ki   =   55.33 uM (micromolar)  [Temperature = 298.15 K]
USER    
USER    (1) Final Intermolecular Energy     =   -7.00 kcal/mol
USER        vdW + Hbond + desolv Energy     =   -7.00 kcal/mol
USER        Electrostatic Energy            =   +0.00 kcal/mol
USER    (2) Final Total Internal Energy     =   -4.17 kcal/mol
USER    (3) Torsional Free Energy           =   +1.19 kcal/mol
USER    (4) Unbound System's Energy  [=(2)] =   -4.17 kcal/mol
USER    
USER    
USER    NEWDPF move ligand_367.pdbqt
USER    NEWDPF about 0.000000 0.000000 0.000000
USER    NEWDPF tran0 17.639968 9.442509 1.812944
USER    NEWDPF quaternion0 -0.115949 -0.150567 0.953788 -0.232753
USER    NEWDPF axisangle0 -0.119223 -0.154819 0.980723 -153.081586
USER    NEWDPF quat0 -0.119223 -0.154819 0.980723 -153.081586
USER    NEWDPF dihe0 -139.54 61.80 -173.59 104.52 49.43 92.39 173.38 95.57 180.00 -128.08 -157.62 154.10 -175.30 -115.62 53.24 12.70 6.51 51.09 
USER  keepresnum = 1 
USER  
REMARK  18 active torsions:
REMARK  status: ('A' for Active; 'I' for Inactive)
REMARK    1  A    between atoms: C2_2  and  C4_4 
REMARK    2  A    between atoms: C4_4  and  C5_5 
REMARK    3  A    between atoms: C4_4  and  N10_71 
REMARK       I    between atoms: C5_5  and  N1_60 
REMARK    4  A    between atoms: C9_9  and  C11_11 
REMARK       I    between atoms: C11_11  and  N2_61 
REMARK    5  A    between atoms: C12_12  and  C13_13 
REMARK    6  A    between atoms: C12_12  and  N2_61 
REMARK    7  A    between atoms: C13_13  and  N3_62 
REMARK    8  A    between atoms: C14_14  and  N3_62 
REMARK    9  A    between atoms: C16_16  and  N5_65 
REMARK   10  A    between atoms: C19_19  and  C20_20 
REMARK       I    between atoms: C19_19  and  N5_65 
REMARK   11  A    between atoms: C23_23  and  C26_26 
REMARK   12  A    between atoms: C29_29  and  C32_32 
REMARK   13  A    between atoms: C34_34  and  C35_35 
REMARK   14  A    between atoms: C39_39  and  C40_40 
REMARK       I    between atoms: C39_39  and  N8_69 
REMARK   15  A    between atoms: C40_40  and  C41_41 
REMARK   16  A    between atoms: C40_40  and  N9_70 
REMARK   17  A    between atoms: C44_44  and  O6_55 
REMARK       I    between atoms: C44_44  and  N9_70 
REMARK   18  A    between atoms: C48_48  and  O10_59 
REMARK       I    between atoms: C48_48  and  N10_71 
USER                              x       y       z     vdW  Elec       q    Type
USER                           _______ _______ _______ _____ _____    ______ ____
ROOT
ATOM      1  C20 UNL     1      18.135   9.139   3.230 -0.48 +0.00    +0.032 A 
ATOM      2  C21 UNL     1      19.024   8.515   4.109 -0.24 +0.00    +0.018 A 
ATOM      3  C22 UNL     1      20.375   8.389   3.769 +1.21 +0.00    +0.013 A 
ATOM      4  C23 UNL     1      20.865   8.891   2.552 +0.30 -0.00    -0.026 A 
ATOM      5  C24 UNL     1      19.961   9.531   1.688 +0.31 +0.00    +0.013 A 
ATOM      6  C25 UNL     1      18.609   9.662   2.021 -0.40 +0.00    +0.018 A 
ENDROOT
BRANCH   1   7
ATOM      7  C19 UNL     1      16.703   9.254   3.629 -0.37 +0.00    +0.256 C 
ATOM      8  O3  UNL     1      16.371  10.197   4.336 +0.06 -0.00    -0.267 OA
ATOM      9  N5  UNL     1      15.889   8.231   3.177 -0.28 -0.00    -0.322 N 
ATOM     10  H59 UNL     1      16.341   7.451   2.719 -0.20 +0.00    +0.169 HD
BRANCH   9  11
ATOM     11  C16 UNL     1      14.496   8.106   3.373 -0.40 +0.00    +0.050 A 
ATOM     12  C15 UNL     1      13.898   6.864   3.168 +0.96 +0.00    +0.118 A 
ATOM     13  N4  UNL     1      12.576   6.603   3.310 -0.16 -0.00    -0.355 N 
ATOM     14  C14 UNL     1      11.783   7.627   3.676 -0.35 +0.00    +0.080 A 
ATOM     15  H4  UNL     1      12.198   5.670   3.147 +0.04 +0.00    +0.166 HD
ATOM     16  C18 UNL     1      12.286   8.900   3.910 +0.52 +0.00    +0.044 A 
ATOM     17  C17 UNL     1      13.653   9.142   3.751 +1.91 +0.00    +0.034 A 
BRANCH  14  18
ATOM     18  N3  UNL     1      10.438   7.307   3.823 -0.20 -0.00    -0.277 NA
ATOM     19  H58 UNL     1       9.957   7.872   3.123 +0.06 +0.00    +0.129 HD
BRANCH  18  20
ATOM     20  C13 UNL     1       9.873   7.475   5.163 +0.81 +0.00    +0.113 C 
BRANCH  20  21
ATOM     21  C12 UNL     1       9.528   6.135   5.839 -0.05 +0.00    +0.137 C 
BRANCH  21  22
ATOM     22  N2  UNL     1       9.004   5.157   4.907 -0.07 -0.00    -0.358 N 
ATOM     23  C11 UNL     1       7.669   5.115   4.565 -0.16 +0.00    +0.245 C 
ATOM     24  O2  UNL     1       6.869   5.952   4.979 -0.12 -0.00    -0.271 OA
ATOM     25  H57 UNL     1       9.562   4.323   4.709 +0.10 +0.00    +0.162 HD
BRANCH  23  26
ATOM     26  C9  UNL     1       7.257   3.915   3.655 -0.21 +0.00    +0.112 C 
ATOM     27  C8  UNL     1       8.476   2.997   3.389 -0.21 +0.00    +0.042 C 
ATOM     28  C7  UNL     1       9.118   3.595   2.147 -0.04 +0.00    +0.023 C 
ATOM     29  C6  UNL     1       7.914   4.010   1.323 -0.11 +0.00    +0.127 C 
ATOM     30  N1  UNL     1       6.910   4.418   2.299 -0.01 -0.00    -0.332 N 
ATOM     31  C5  UNL     1       5.730   5.069   2.005 -0.11 +0.00    +0.244 C 
ATOM     32  O1  UNL     1       4.912   5.343   2.892 -0.11 -0.00    -0.271 OA
ATOM     33  C10 UNL     1       6.159   3.072   4.319 -0.15 +0.00    +0.049 C 
BRANCH  31  34
ATOM     34  C4  UNL     1       5.443   5.476   0.537 -0.19 +0.00    +0.182 C 
BRANCH  34  35
ATOM     35  C2  UNL     1       5.223   4.261  -0.399 -0.19 +0.00    +0.009 C 
ATOM     36  C1  UNL     1       3.969   4.351  -1.274 -0.16 +0.00    +0.012 C 
ATOM     37  C3  UNL     1       6.444   3.996  -1.283 -0.10 +0.00    +0.012 C 
ENDBRANCH  34  35
BRANCH  34  38
ATOM     38  N10 UNL     1       6.586   6.271   0.099 -0.12 -0.00    -0.323 N 
ATOM     39  C48 UNL     1       7.223   7.106   0.967 -0.22 +0.00    +0.360 C 
ATOM     40  O9  UNL     1       6.796   7.445   2.062 -0.34 -0.00    -0.239 OA
ATOM     41  H62 UNL     1       7.206   5.876  -0.597 -0.22 +0.00    +0.165 HD
BRANCH  39  42
ATOM     42  O10 UNL     1       8.412   7.474   0.436 -0.25 -0.00    -0.309 OA
ATOM     43  C49 UNL     1       8.358   7.762  -0.962 -0.33 +0.00    +0.215 C 
ENDBRANCH  39  42
ENDBRANCH  34  38
ENDBRANCH  31  34
ENDBRANCH  23  26
ENDBRANCH  21  22
ENDBRANCH  20  21
ENDBRANCH  18  20
ENDBRANCH  14  18
ENDBRANCH   9  11
ENDBRANCH   1   7
BRANCH   4  44
ATOM     44  C26 UNL     1      22.288   8.761   2.198 -0.32 -0.00    -0.026 A 
ATOM     45  C27 UNL     1      23.295   9.105   3.111 -0.50 +0.00    +0.013 A 
ATOM     46  C28 UNL     1      24.649   8.985   2.773 -0.55 +0.00    +0.014 A 
ATOM     47  C29 UNL     1      25.030   8.509   1.514 -0.45 -0.00    -0.008 A 
ATOM     48  C30 UNL     1      24.033   8.169   0.597 -0.44 +0.00    +0.014 A 
ATOM     49  C31 UNL     1      22.680   8.292   0.934 -0.20 +0.00    +0.013 A 
BRANCH  47  50
ATOM     50  C32 UNL     1      26.442   8.388   1.176 -0.39 +0.00    +0.059 A 
ATOM     51  C33 UNL     1      27.577   8.543   1.942 -0.23 +0.00    +0.119 A 
ATOM     52  N6  UNL     1      28.708   8.297   1.213 -0.11 -0.00    -0.352 N 
ATOM     53  C34 UNL     1      28.292   7.941   0.011 -0.25 +0.00    +0.105 A 
ATOM     54  H6  UNL     1      29.674   8.374   1.533 +0.08 +0.00    +0.166 HD
ATOM     55  N7  UNL     1      26.924   8.046  -0.069 -0.14 -0.00    -0.342 N 
ATOM     56  H60 UNL     1      26.361   7.891  -0.898 +0.10 +0.00    +0.167 HD
BRANCH  53  57
ATOM     57  C35 UNL     1      29.195   7.488  -1.103 -0.22 +0.00    +0.160 C 
ATOM     58  C36 UNL     1      29.874   8.685  -1.781 +0.25 +0.00    +0.103 C 
ATOM     59  C37 UNL     1      31.136   8.903  -0.946 -0.19 +0.00    +0.182 C 
ATOM     60  C38 UNL     1      31.541   7.473  -0.568 -0.08 +0.00    +0.195 C 
ATOM     61  O7  UNL     1      32.143   9.553  -1.730 -0.24 -0.00    -0.351 OA
ATOM     62  O8  UNL     1      30.848   9.685   0.221 -0.11 -0.00    -0.351 OA
ATOM     63  N8  UNL     1      30.323   6.665  -0.658 -0.02 -0.00    -0.333 N 
ATOM     64  C39 UNL     1      30.436   5.292  -0.639 -0.04 +0.00    +0.243 C 
ATOM     65  O4  UNL     1      31.528   4.749  -0.435 -0.02 -0.00    -0.271 OA
ATOM     66  C46 UNL     1      32.167  10.891  -1.231 +0.11 +0.00    +0.198 C 
ATOM     67  C47 UNL     1      31.833  10.715   0.225 -0.15 +0.00    +0.198 C 
BRANCH  64  68
ATOM     68  C40 UNL     1      29.176   4.423  -0.863 -0.13 +0.00    +0.182 C 
BRANCH  68  69
ATOM     69  C41 UNL     1      29.360   2.995  -0.294 -0.32 +0.00    +0.009 C 
ATOM     70  C42 UNL     1      30.000   2.970   1.096 -0.41 +0.00    +0.012 C 
ATOM     71  C43 UNL     1      30.202   2.129  -1.240 -0.22 +0.00    +0.012 C 
ENDBRANCH  68  69
BRANCH  68  72
ATOM     72  N9  UNL     1      28.112   5.109  -0.125 -0.10 -0.00    -0.323 N 
ATOM     73  C44 UNL     1      26.806   4.800  -0.333 -0.19 +0.00    +0.360 C 
ATOM     74  O5  UNL     1      26.414   3.844  -0.985 -0.81 -0.00    -0.239 OA
ATOM     75  H61 UNL     1      28.249   6.088   0.098 +0.09 +0.00    +0.165 HD
BRANCH  73  76
ATOM     76  O6  UNL     1      26.020   5.736   0.247 -0.21 -0.00    -0.309 OA
ATOM     77  C45 UNL     1      25.137   5.218   1.241 -0.32 +0.00    +0.215 C 
ENDBRANCH  73  76
ENDBRANCH  68  72
ENDBRANCH  64  68
ENDBRANCH  53  57
ENDBRANCH  47  50
ENDBRANCH   4  44
TORSDOF 18
TER
