USER    Run = 1
USER    DPF = ligand_211_receptor.dpf
USER  
USER    Estimated Free Energy of Binding    =  +7.66e+006 kcal/mol  [=(1)+(2)+(3)-(4)]
USER    
USER    (1) Final Intermolecular Energy     =  +7.66e+006 kcal/mol
USER        vdW + Hbond + desolv Energy     =  +3.96e+006 kcal/mol
USER        Electrostatic Energy            =  +3.69e+006 kcal/mol
USER    (2) Final Total Internal Energy     =   +0.00 kcal/mol
USER    (3) Torsional Free Energy           =   +1.19 kcal/mol
USER    (4) Unbound System's Energy  [=(2)] =   +0.00 kcal/mol
USER    
USER    
USER    NEWDPF move ligand_211.pdbqt
USER    NEWDPF about 0.000000 0.000000 0.000000
USER    NEWDPF tran0 16.940441 6.533125 3.864951
USER    NEWDPF quaternion0 -0.246591 0.213768 -0.937574 -0.120209
USER    NEWDPF axisangle0 -0.248392 0.215330 -0.944423 -166.191676
USER    NEWDPF quat0 -0.248392 0.215330 -0.944423 -166.191676
USER  keepresnum = 1 
USER  
REMARK  0 active torsions:
REMARK  status: ('A' for Active; 'I' for Inactive)
REMARK       I    between atoms: C2_2  and  O1_69 
REMARK       I    between atoms: C3_3  and  C14_14 
REMARK       I    between atoms: C5_5  and  N1_84 
REMARK       I    between atoms: C8_8  and  C9_9 
REMARK       I    between atoms: C8_8  and  N1_84 
REMARK       I    between atoms: C9_9  and  C10_10 
REMARK       I    between atoms: C9_9  and  N5_89 
REMARK       I    between atoms: C10_10  and  C11_11 
REMARK       I    between atoms: C11_11  and  C12_12 
REMARK       I    between atoms: C12_12  and  N2_85 
REMARK       I    between atoms: C13_13  and  N2_85 
REMARK       I    between atoms: C13_13  and  N3_86 
REMARK       I    between atoms: C13_13  and  N4_88 
REMARK       I    between atoms: C14_14  and  N6_90 
REMARK       I    between atoms: C15_15  and  C16_16 
REMARK       I    between atoms: C15_15  and  C20_20 
REMARK       I    between atoms: C15_15  and  N6_90 
REMARK       I    between atoms: C16_16  and  C17_17 
REMARK       I    between atoms: C17_17  and  C18_18 
REMARK       I    between atoms: C18_18  and  N7_91 
REMARK       I    between atoms: C19_19  and  N7_91 
REMARK       I    between atoms: C19_19  and  N8_92 
REMARK       I    between atoms: C19_19  and  N9_94 
REMARK       I    between atoms: C20_20  and  N10_95 
REMARK       I    between atoms: C21_21  and  N10_95 
REMARK       I    between atoms: C23_23  and  C28_28 
REMARK       I    between atoms: C24_24  and  O5_73 
REMARK       I    between atoms: C28_28  and  N11_96 
REMARK       I    between atoms: C29_29  and  C30_30 
REMARK       I    between atoms: C29_29  and  C34_34 
REMARK       I    between atoms: C29_29  and  N11_96 
REMARK       I    between atoms: C30_30  and  C31_31 
REMARK       I    between atoms: C31_31  and  C32_32 
REMARK       I    between atoms: C32_32  and  N12_97 
REMARK       I    between atoms: C33_33  and  N12_97 
REMARK       I    between atoms: C33_33  and  N13_98 
REMARK       I    between atoms: C33_33  and  N14_100 
REMARK       I    between atoms: C34_34  and  N15_101 
REMARK       I    between atoms: C35_35  and  N15_101 
REMARK       I    between atoms: C37_37  and  C43_43 
REMARK       I    between atoms: C38_38  and  O8_76 
REMARK       I    between atoms: C41_41  and  C42_42 
REMARK       I    between atoms: C41_41  and  O8_76 
REMARK       I    between atoms: C42_42  and  O10_78 
REMARK       I    between atoms: C43_43  and  N16_102 
REMARK       I    between atoms: C44_44  and  C45_45 
REMARK       I    between atoms: C44_44  and  C49_49 
REMARK       I    between atoms: C44_44  and  N16_102 
REMARK       I    between atoms: C45_45  and  C46_46 
REMARK       I    between atoms: C46_46  and  C47_47 
REMARK       I    between atoms: C47_47  and  N17_103 
REMARK       I    between atoms: C48_48  and  N17_103 
REMARK       I    between atoms: C48_48  and  N19_106 
REMARK       I    between atoms: C49_49  and  N20_107 
REMARK       I    between atoms: C50_50  and  N20_107 
REMARK       I    between atoms: C52_52  and  C57_57 
REMARK       I    between atoms: C53_53  and  O13_81 
REMARK       I    between atoms: C57_57  and  N21_108 
REMARK       I    between atoms: C58_58  and  C59_59 
REMARK       I    between atoms: C58_58  and  C68_68 
REMARK       I    between atoms: C58_58  and  N21_108 
REMARK       I    between atoms: C59_59  and  C60_60 
REMARK       I    between atoms: C68_68  and  N23_110 
USER                              x       y       z     vdW  Elec       q    Type
USER                           _______ _______ _______ _____ _____    ______ ____
ROOT
ATOM      1  C1  UNL     1       5.129   3.884   4.291 -0.14 +0.00    +0.210 C 
ATOM      2  C2  UNL     1       4.831   2.486   6.218 +1.59 +0.00    +0.084 A 
ATOM      3  C3  UNL     1       5.411   1.756   7.274+99.99 +0.00    +0.067 A 
ATOM      4  C4  UNL     1       4.605   0.893   8.048+99.99 +0.00    +0.049 A 
ATOM      5  C5  UNL     1       3.240   0.755   7.795+39.51 +0.00    +0.035 A 
ATOM      6  C6  UNL     1       2.678   1.485   6.746 -0.06 +0.00    +0.032 A 
ATOM      7  C7  UNL     1       3.462   2.344   5.967 -0.31 +0.00    +0.040 A 
ATOM      8  C8  UNL     1       2.681  -0.853   9.638+63.63 +0.00    +0.255 C 
ATOM      9  C9  UNL     1       1.484  -1.703  10.158+99.99+99.99    +0.309 C 
ATOM     10  C10 UNL     1       0.802  -2.582   9.096+99.99+99.99    +0.047 C 
ATOM     11  C11 UNL     1       1.693  -3.458   8.200+99.99+99.99    +0.022 C 
ATOM     12  C12 UNL     1       2.451  -4.599   8.885+99.99+99.99    +0.122 C 
ATOM     13  C13 UNL     1       4.714  -4.738   9.914+99.99+99.99    +0.143 C 
ATOM     14  C14 UNL     1       6.866   1.814   7.645+99.99 +0.00    +0.255 C 
ATOM     15  C15 UNL     1       9.075   2.882   7.243 -0.07 +0.00    +0.177 C 
ATOM     16  C16 UNL     1       9.474   3.377   8.648 +0.30 +0.00    +0.036 C 
ATOM     17  C17 UNL     1       9.157   4.857   8.905 +0.17 +0.00    +0.022 C 
ATOM     18  C18 UNL     1       9.713   5.369  10.240+99.99 +0.00    +0.122 C 
ATOM     19  C19 UNL     1      12.012   5.958   9.563 +0.28 +0.00    +0.143 C 
ATOM     20  C20 UNL     1       9.648   3.729   6.068 -0.33 +0.00    +0.245 C 
ATOM     21  C21 UNL     1      11.727   4.962   5.437 -0.36 +0.00    +0.035 A 
ATOM     22  C22 UNL     1      12.896   5.451   6.019 -0.42 +0.00    +0.049 A 
ATOM     23  C23 UNL     1      13.641   6.485   5.428 -0.41 +0.00    +0.067 A 
ATOM     24  C24 UNL     1      13.264   6.960   4.158 -0.38 +0.00    +0.084 A 
ATOM     25  C25 UNL     1      12.119   6.423   3.549 -0.27 +0.00    +0.040 A 
ATOM     26  C26 UNL     1      11.347   5.444   4.192 -0.19 +0.00    +0.032 A 
ATOM     27  C27 UNL     1      13.778   8.284   2.231+33.87 +0.00    +0.210 C 
ATOM     28  C28 UNL     1      14.750   7.043   6.271 +0.96 +0.00    +0.255 C 
ATOM     29  C29 UNL     1      16.719   8.575   6.365+99.99 +0.00    +0.177 C 
ATOM     30  C30 UNL     1      16.341   9.926   6.988+99.99 +0.00    +0.036 C 
ATOM     31  C31 UNL     1      15.257   9.831   8.067+99.99 +0.00    +0.022 C 
ATOM     32  C32 UNL     1      15.085  11.125   8.862+99.99 +0.00    +0.122 C 
ATOM     33  C33 UNL     1      15.482  13.173   7.559+72.94 +0.00    +0.143 C 
ATOM     34  C34 UNL     1      17.845   8.780   5.319+17.37 +0.00    +0.245 C 
ATOM     35  C35 UNL     1      20.272   9.416   5.228+99.99 +0.00    +0.035 A 
ATOM     36  C36 UNL     1      20.428   9.415   3.840 +4.80 +0.00    +0.049 A 
ATOM     37  C37 UNL     1      21.664   9.732   3.242 -0.30 +0.00    +0.067 A 
ATOM     38  C38 UNL     1      22.749  10.078   4.061 -0.44 +0.00    +0.085 A 
ATOM     39  C39 UNL     1      22.606  10.054   5.451 +0.42 +0.00    +0.040 A 
ATOM     40  C40 UNL     1      21.376   9.732   6.028+99.99 +0.00    +0.032 A 
ATOM     41  C41 UNL     1      24.531  11.609   3.978 +4.77 +0.00    +0.285 C 
ATOM     42  C42 UNL     1      25.311  12.222   2.837 +9.95 +0.00    +0.164 C 
ATOM     43  C43 UNL     1      21.710   9.705   1.746 -0.28 +0.00    +0.255 C 
ATOM     44  C44 UNL     1      23.065   9.836  -0.322 -0.16 +0.00    +0.177 C 
ATOM     45  C45 UNL     1      22.402   8.697  -1.122 +5.39 +0.00    +0.036 C 
ATOM     46  C46 UNL     1      21.864   9.126  -2.495+99.99 +0.00    +0.022 C 
ATOM     47  C47 UNL     1      20.829  10.257  -2.495+99.99 +0.00    +0.122 C 
ATOM     48  C48 UNL     1      18.542  10.588  -1.623+84.02 +0.00    +0.143 C 
ATOM     49  C49 UNL     1      24.554   9.913  -0.727+99.99 +0.00    +0.245 C 
ATOM     50  C50 UNL     1      26.738   8.849  -0.093 +1.30 +0.00    +0.035 A 
ATOM     51  C51 UNL     1      27.583   9.639  -0.876+99.99 +0.00    +0.049 A 
ATOM     52  C52 UNL     1      28.974   9.420  -0.893+57.10 +0.00    +0.067 A 
ATOM     53  C53 UNL     1      29.512   8.364  -0.138 -0.21 +0.00    +0.084 A 
ATOM     54  C54 UNL     1      28.670   7.589   0.667 -0.31 +0.00    +0.040 A 
ATOM     55  C55 UNL     1      27.295   7.831   0.686 -0.37 +0.00    +0.032 A 
ATOM     56  C56 UNL     1      31.205   6.771  -0.399 -0.06 +0.00    +0.210 C 
ATOM     57  C57 UNL     1      29.792  10.332  -1.756+58.00 +0.00    +0.255 C 
ATOM     58  C58 UNL     1      32.127  10.956  -2.464+25.49 +0.00    +0.181 C 
ATOM     59  C59 UNL     1      32.059  10.380  -3.890 +3.21 +0.00    +0.075 C 
ATOM     60  C60 UNL     1      32.369   8.910  -3.948 -0.14 -0.00    -0.028 A 
ATOM     61  C61 UNL     1      33.628   8.342  -3.895+99.99+99.99    +0.096 A 
ATOM     62  C62 UNL     1      32.164   6.644  -4.089 -0.04 +0.00    +0.042 A 
ATOM     63  C63 UNL     1      31.561   5.384  -4.198 -0.04 +0.00    +0.030 A 
ATOM     64  C64 UNL     1      30.167   5.340  -4.301 -0.15 +0.00    +0.002 A 
ATOM     65  C65 UNL     1      29.411   6.508  -4.300 +2.01 +0.00    +0.001 A 
ATOM     66  C66 UNL     1      30.031   7.759  -4.195 -0.27 +0.00    +0.014 A 
ATOM     67  C67 UNL     1      31.433   7.834  -4.079 -0.16 -0.00    -0.002 A 
ATOM     68  C68 UNL     1      32.131  12.496  -2.538+99.99 +0.00    +0.238 C 
ATOM     69  O1  UNL     1       5.643   3.311   5.486 -0.18 -0.00    -0.355 OA
ATOM     70  O2  UNL     1       3.750  -0.838  10.248 +3.48 -0.00    -0.271 OA
ATOM     71  O3  UNL     1       7.346   0.993   8.422+99.99 -0.00    -0.268 OA
ATOM     72  O4  UNL     1       8.936   4.055   5.117 -0.22 -0.00    -0.271 OA
ATOM     73  O5  UNL     1      14.026   7.949   3.591 -0.30 -0.00    -0.355 OA
ATOM     74  O6  UNL     1      14.860   6.708   7.451 +0.00 -0.00    -0.268 OA
ATOM     75  O7  UNL     1      17.622   8.663   4.115 -0.38 -0.00    -0.271 OA
ATOM     76  O8  UNL     1      23.953  10.388   3.490 -0.51 -0.00    -0.340 OA
ATOM     77  O9  UNL     1      25.335  11.827   1.681 +1.51 -0.00    -0.648 OA
ATOM     78  O10 UNL     1      26.010  13.312   3.207+33.58 -0.00    -0.775 OA
ATOM     79  O11 UNL     1      20.665   9.751   1.103 -0.26 -0.00    -0.268 OA
ATOM     80  O12 UNL     1      24.909  10.586  -1.691+99.99 -0.00    -0.271 OA
ATOM     81  O13 UNL     1      30.865   8.137  -0.148 -0.09 -0.00    -0.355 OA
ATOM     82  O14 UNL     1      29.252  11.035  -2.607+99.99 -0.00    -0.268 OA
ATOM     83  O15 UNL     1      33.143  13.138  -2.821+99.99+99.99    -0.271 OA
ATOM     84  N1  UNL     1       2.374  -0.089   8.523+69.30 -0.00    -0.325 N 
ATOM     85  N2  UNL     1       3.584  -4.074   9.604+99.99+99.99    -0.367 N 
ATOM     86  N3  UNL     1       5.136  -5.863   9.472+99.99+99.99    -0.376 N 
ATOM     87  H3  UNL     1       6.014  -6.311   9.738+99.99+99.99    +0.158 HD
ATOM     88  N4  UNL     1       5.462  -4.035  10.786+99.99+99.99    -0.274 NA
ATOM     89  N5  UNL     1       1.921  -2.536  11.296+99.99+99.99    +0.092 N 
ATOM     90  N6  UNL     1       7.626   2.815   7.093 +5.56 -0.00    -0.344 N 
ATOM     91  N7  UNL     1      11.161   5.239  10.328+20.37 -0.00    -0.367 N 
ATOM     92  N8  UNL     1      11.690   6.970   8.847+20.57 -0.00    -0.376 N 
ATOM     93  H8  UNL     1      10.756   7.373   8.778+99.99 +0.00    +0.158 HD
ATOM     94  N9  UNL     1      13.263   5.457   9.605 +5.65 -0.00    -0.274 NA
ATOM     95  N10 UNL     1      10.990   4.040   6.206 -0.21 -0.00    -0.325 N 
ATOM     96  N11 UNL     1      15.596   7.946   5.688+14.56 -0.00    -0.344 N 
ATOM     97  N12 UNL     1      14.642  12.210   8.003 +0.68 -0.00    -0.367 N 
ATOM     98  N13 UNL     1      16.755  13.178   7.711+29.99 -0.00    -0.376 N 
ATOM     99  H13 UNL     1      17.298  12.447   8.172 +0.54 +0.00    +0.158 HD
ATOM    100  N14 UNL     1      14.812  14.140   6.903+99.99 -0.00    -0.274 NA
ATOM    101  N15 UNL     1      19.064   9.116   5.890+99.99 -0.00    -0.325 N 
ATOM    102  N16 UNL     1      22.947   9.622   1.131 -0.17 -0.00    -0.344 N 
ATOM    103  N17 UNL     1      19.749   9.983  -1.562+99.99 -0.00    -0.367 N 
ATOM    104  N18 UNL     1      17.897  10.964  -2.665+27.78 -0.00    -0.376 N 
ATOM    105  H18 UNL     1      16.992  11.434  -2.667+99.99 +0.00    +0.158 HD
ATOM    106  N19 UNL     1      18.002  10.770  -0.405 -0.03 -0.00    -0.274 NA
ATOM    107  N20 UNL     1      25.346   9.028  -0.009 +2.36 -0.00    -0.325 N 
ATOM    108  N21 UNL     1      31.148  10.370  -1.535 +0.60 -0.00    -0.343 N 
ATOM    109  N22 UNL     1      33.492   6.984  -3.988+99.99+99.99    -0.365 N 
ATOM    110  N23 UNL     1      30.938  13.140  -2.411+99.99 -0.00    -0.368 N 
ATOM    111  H60 UNL     1      26.453  13.609   2.382 +3.07 +0.00    +0.167 HD
ATOM    112  H61 UNL     1       1.417  -0.117   8.201+99.99+99.99    +0.169 HD
ATOM    113  H62 UNL     1       3.280  -3.484  10.387+99.99+99.99    +0.162 HD
ATOM    114  H63 UNL     1       4.458  -6.241   8.813+99.99+99.99    +0.158 HD
ATOM    115  H64 UNL     1       5.476  -3.042  10.569+99.99+99.99    +0.127 HD
ATOM    116  H65 UNL     1       6.400  -4.416  10.823+99.99+99.99    +0.127 HD
ATOM    117  H66 UNL     1       2.559  -1.973  11.872+99.99+99.99    +0.313 HD
ATOM    118  H67 UNL     1       1.124  -2.756  11.892+99.99+99.99    +0.313 HD
ATOM    119  H68 UNL     1       7.224   3.358   6.328 -0.21 +0.00    +0.163 HD
ATOM    120  H69 UNL     1      11.478   4.303  10.546 +1.39 +0.00    +0.162 HD
ATOM    121  H70 UNL     1      12.522   7.309   8.355 +0.12 +0.00    +0.158 HD
ATOM    122  H71 UNL     1      13.958   6.015   9.102 +0.09 +0.00    +0.127 HD
ATOM    123  H72 UNL     1      13.583   5.280  10.550+57.99 +0.00    +0.127 HD
ATOM    124  H73 UNL     1      11.425   3.790   7.086 +0.12 +0.00    +0.169 HD
ATOM    125  H74 UNL     1      15.469   8.171   4.701 +0.11 +0.00    +0.163 HD
ATOM    126  H75 UNL     1      13.717  12.552   8.238 +0.09 +0.00    +0.162 HD
ATOM    127  H76 UNL     1      17.140  14.028   7.298 +0.12 +0.00    +0.158 HD
ATOM    128  H77 UNL     1      15.391  14.741   6.331+99.99+99.99    +0.127 HD
ATOM    129  H78 UNL     1      14.039  13.774   6.359 +0.21 +0.00    +0.127 HD
ATOM    130  H79 UNL     1      19.086   9.173   6.902+99.99 +0.00    +0.169 HD
ATOM    131  H80 UNL     1      23.727   9.955   1.696 +0.14 +0.00    +0.163 HD
ATOM    132  H81 UNL     1      20.087   9.956  -0.593 +0.18 +0.00    +0.162 HD
ATOM    133  H82 UNL     1      18.437  10.713  -3.492 +2.13 +0.00    +0.158 HD
ATOM    134  H83 UNL     1      18.180  10.019   0.253 +0.10 +0.00    +0.127 HD
ATOM    135  H84 UNL     1      17.018  10.997  -0.478 +0.13 +0.00    +0.127 HD
ATOM    136  H85 UNL     1      24.843   8.438   0.645 +0.13 +0.00    +0.169 HD
ATOM    137  H86 UNL     1      31.512   9.647  -0.922 +0.06 +0.00    +0.163 HD
ATOM    138  H87 UNL     1      34.254   6.321  -3.992+99.99+99.99    +0.165 HD
ATOM    139  H88 UNL     1      30.078  12.604  -2.541+59.26 +0.00    +0.159 HD
ATOM    140  H89 UNL     1      30.913  14.123  -2.642+99.99 +0.00    +0.159 HD
ENDROOT
TORSDOF 43
TER
