USER    Run = 1
USER    DPF = ligand_219_receptor.dpf
USER  
USER    Estimated Free Energy of Binding    =   -7.24 kcal/mol  [=(1)+(2)+(3)-(4)]
USER    Estimated Inhibition Constant, Ki   =    4.91 uM (micromolar)  [Temperature = 298.15 K]
USER    
USER    (1) Final Intermolecular Energy     =   -8.44 kcal/mol
USER        vdW + Hbond + desolv Energy     =   -8.44 kcal/mol
USER        Electrostatic Energy            =   +0.00 kcal/mol
USER    (2) Final Total Internal Energy     =   -3.33 kcal/mol
USER    (3) Torsional Free Energy           =   +1.19 kcal/mol
USER    (4) Unbound System's Energy  [=(2)] =   -3.33 kcal/mol
USER    
USER    
USER    NEWDPF move ligand_219.pdbqt
USER    NEWDPF about 0.000000 0.000000 0.000000
USER    NEWDPF tran0 21.535299 9.090396 1.698912
USER    NEWDPF quaternion0 0.055133 0.926838 0.327735 0.174701
USER    NEWDPF axisangle0 0.055994 0.941314 0.332854 159.877432
USER    NEWDPF quat0 0.055994 0.941314 0.332854 159.877432
USER    NEWDPF dihe0 47.06 172.90 102.05 -117.50 114.30 176.53 44.49 165.71 136.45 93.60 157.73 166.57 
USER  keepresnum = 1 
USER  
REMARK  12 active torsions:
REMARK  status: ('A' for Active; 'I' for Inactive)
REMARK    1  A    between atoms: C3_3  and  C25_25 
REMARK    2  A    between atoms: C5_5  and  N2_30 
REMARK    3  A    between atoms: C6_6  and  C7_7 
REMARK       I    between atoms: C6_6  and  N2_30 
REMARK    4  A    between atoms: C9_9  and  N4_32 
REMARK    5  A    between atoms: C11_11  and  C12_12 
REMARK       I    between atoms: C11_11  and  N4_32 
REMARK    6  A    between atoms: C14_14  and  N7_36 
REMARK    7  A    between atoms: C15_15  and  C16_16 
REMARK       I    between atoms: C15_15  and  N7_36 
REMARK    8  A    between atoms: C18_18  and  N10_40 
REMARK    9  A    between atoms: C19_19  and  C20_20 
REMARK       I    between atoms: C19_19  and  N10_40 
REMARK       I    between atoms: C25_25  and  N11_41 
REMARK   10  A    between atoms: C26_26  and  C27_27 
REMARK   11  A    between atoms: C26_26  and  N11_41 
REMARK   12  A    between atoms: C27_27  and  N12_42 
REMARK       I    between atoms: C28_28  and  N12_42 
REMARK       I    between atoms: C28_28  and  N13_44 
REMARK       I    between atoms: C28_28  and  N14_45 
USER                              x       y       z     vdW  Elec       q    Type
USER                           _______ _______ _______ _____ _____    ______ ____
ROOT
ATOM      1  C7  UNL     1      23.246   9.240   0.500 -0.38 +0.00    +0.109 A 
ATOM      2  C8  UNL     1      22.330   8.737   1.428 -0.21 -0.00    -0.002 A 
ATOM      3  C9  UNL     1      21.119   9.484   1.275 +0.10 +0.00    +0.059 A 
ATOM      4  C10 UNL     1      21.352  10.434   0.303 -0.37 +0.00    +0.118 A 
ATOM      5  C24 UNL     1      22.629   7.647   2.403 +1.08 +0.00    +0.053 C 
ATOM      6  N3  UNL     1      22.612  10.250  -0.188 -0.22 -0.00    -0.359 N 
ATOM      7  H23 UNL     1      23.013  10.754  -0.968 +0.12 +0.00    +0.165 HD
ENDROOT
BRANCH   3   8
ATOM      8  N4  UNL     1      19.886   9.429   1.904 +0.09 -0.00    -0.320 N 
ATOM      9  C11 UNL     1      19.016  10.476   2.140 -0.31 +0.00    +0.274 C 
ATOM     10  O2  UNL     1      19.251  11.660   1.950 -0.39 -0.00    -0.266 OA
ATOM     11  H24 UNL     1      19.704   8.570   2.405 +0.13 +0.00    +0.169 HD
BRANCH   9  12
ATOM     12  C12 UNL     1      17.761  10.027   2.702 -0.37 +0.00    +0.126 A 
ATOM     13  C13 UNL     1      16.772   9.195   2.186 -0.48 +0.00    +0.017 A 
ATOM     14  C14 UNL     1      15.784   9.133   3.214 -0.37 +0.00    +0.131 A 
ATOM     15  C23 UNL     1      16.791   8.539   0.852 -0.53 +0.00    +0.055 C 
ATOM     16  N5  UNL     1      16.166   9.815   4.297 +0.07 -0.00    -0.284 N 
ATOM     17  N6  UNL     1      17.361  10.315   3.973 -0.24 -0.00    -0.293 N 
ATOM     18  H5  UNL     1      15.658   9.929   5.174 +0.23 +0.00    +0.188 HD
ATOM     19  H25 UNL     1      17.869  10.838   4.679 +0.16 +0.00    +0.187 HD
BRANCH  14  20
ATOM     20  N7  UNL     1      14.567   8.505   3.311 -0.24 -0.00    -0.306 N 
ATOM     21  C15 UNL     1      13.905   8.080   4.429 -0.32 +0.00    +0.275 C 
ATOM     22  O3  UNL     1      14.352   8.087   5.569 -0.13 -0.00    -0.266 OA
ATOM     23  H26 UNL     1      14.211   8.241   2.404 -0.36 +0.00    +0.170 HD
BRANCH  21  24
ATOM     24  C16 UNL     1      12.605   7.500   4.167 -0.34 +0.00    +0.126 A 
ATOM     25  C17 UNL     1      11.811   6.539   4.792 -0.33 +0.00    +0.017 A 
ATOM     26  C18 UNL     1      10.603   6.528   4.028 -0.23 +0.00    +0.131 A 
ATOM     27  C22 UNL     1      12.182   5.683   5.949 -0.41 +0.00    +0.055 C 
ATOM     28  N8  UNL     1      10.698   7.309   2.950 -0.20 -0.00    -0.284 N 
ATOM     29  N9  UNL     1      11.910   7.864   3.048 -0.17 -0.00    -0.293 N 
ATOM     30  H8  UNL     1      10.003   7.451   2.216 +0.11 +0.00    +0.188 HD
ATOM     31  H27 UNL     1      12.219   8.509   2.326 -0.17 +0.00    +0.187 HD
BRANCH  26  32
ATOM     32  N10 UNL     1       9.412   5.862   4.173 -0.09 -0.00    -0.307 N 
ATOM     33  C19 UNL     1       8.350   5.803   3.310 -0.13 +0.00    +0.263 C 
ATOM     34  O4  UNL     1       8.284   6.340   2.209 -0.14 -0.00    -0.267 OA
ATOM     35  H28 UNL     1       9.413   5.260   4.986 +0.10 +0.00    +0.170 HD
BRANCH  33  36
ATOM     36  C20 UNL     1       7.208   4.947   3.811 -0.21 +0.00    +0.069 C 
ATOM     37  C21 UNL     1       6.665   4.046   2.978 -0.17 +0.00    +0.037 C 
ATOM     38 BR1  UNL     1       6.565   5.144   5.557 -0.57 -0.00    -0.046 Br
ENDBRANCH  33  36
ENDBRANCH  26  32
ENDBRANCH  21  24
ENDBRANCH  14  20
ENDBRANCH   9  12
ENDBRANCH   3   8
BRANCH   1  39
ATOM     39  C6  UNL     1      24.605   8.796   0.217 +0.12 +0.00    +0.273 C 
ATOM     40  N2  UNL     1      25.369   8.662   1.365 -0.19 -0.00    -0.320 N 
ATOM     41  H22 UNL     1      24.896   8.713   2.253 +0.14 +0.00    +0.169 HD
ATOM     42  O1  UNL     1      24.989   8.563  -0.923 +0.64 -0.00    -0.266 OA
BRANCH  40  43
ATOM     43  C5  UNL     1      26.709   8.318   1.417 -0.41 +0.00    +0.059 A 
ATOM     44  C2  UNL     1      27.353   7.335   0.601 -0.37 -0.00    -0.002 A 
ATOM     45  C1  UNL     1      26.735   6.493  -0.464 -0.37 +0.00    +0.053 C 
ATOM     46  C3  UNL     1      28.698   7.297   0.975 -0.28 +0.00    +0.108 A 
ATOM     47  N1  UNL     1      28.859   8.240   1.965 -0.04 -0.00    -0.359 N 
ATOM     48  C4  UNL     1      27.667   8.839   2.252 +0.41 +0.00    +0.118 A 
ATOM     49  H21 UNL     1      29.744   8.477   2.393 +0.07 +0.00    +0.165 HD
BRANCH  46  50
ATOM     50  C25 UNL     1      29.770   6.483   0.431 -0.14 +0.00    +0.268 C 
ATOM     51  N11 UNL     1      30.322   5.600   1.333 -0.11 -0.00    -0.354 N 
ATOM     52  H29 UNL     1      29.751   5.301   2.114 +0.09 +0.00    +0.162 HD
ATOM     53  O5  UNL     1      30.152   6.551  -0.733 -0.07 -0.00    -0.266 OA
BRANCH  51  54
ATOM     54  C26 UNL     1      31.275   4.594   0.903 -0.16 +0.00    +0.142 C 
BRANCH  54  55
ATOM     55  C27 UNL     1      30.564   3.452   0.175 -0.17 +0.00    +0.141 C 
BRANCH  55  56
ATOM     56  N12 UNL     1      29.651   2.787   1.115 -0.20 -0.00    -0.370 N 
ATOM     57  C28 UNL     1      30.160   1.998   1.985 -0.43 +0.00    +0.121 C 
ATOM     58  N13 UNL     1      31.449   1.659   2.199 -0.28 -0.00    -0.279 NA
ATOM     59  N14 UNL     1      29.365   1.369   2.875 -0.09 -0.00    -0.279 NA
ATOM     60  H30 UNL     1      32.080   1.882   1.441 +0.04 +0.00    +0.126 HD
ATOM     61  H31 UNL     1      31.549   0.687   2.474 +0.07 +0.00    +0.126 HD
ATOM     62  H32 UNL     1      29.720   1.422   3.822 -0.38 +0.00    +0.126 HD
ATOM     63  H33 UNL     1      28.418   1.731   2.825 -0.50 +0.00    +0.126 HD
ATOM     64  H12 UNL     1      28.645   2.949   1.076 +0.06 +0.00    +0.161 HD
ENDBRANCH  55  56
ENDBRANCH  54  55
ENDBRANCH  51  54
ENDBRANCH  46  50
ENDBRANCH  40  43
ENDBRANCH   1  39
TORSDOF 12
TER
