USER    Run = 1
USER    DPF = ligand_185_receptor.dpf
USER  
USER    Estimated Free Energy of Binding    =   +7.73 kcal/mol  [=(1)+(2)+(3)-(4)]
USER    
USER    (1) Final Intermolecular Energy     =   +6.53 kcal/mol
USER        vdW + Hbond + desolv Energy     =   +6.53 kcal/mol
USER        Electrostatic Energy            =   +0.00 kcal/mol
USER    (2) Final Total Internal Energy     =   -0.72 kcal/mol
USER    (3) Torsional Free Energy           =   +1.19 kcal/mol
USER    (4) Unbound System's Energy  [=(2)] =   -0.72 kcal/mol
USER    
USER    
USER    NEWDPF move ligand_185.pdbqt
USER    NEWDPF about 0.000000 0.000000 0.000000
USER    NEWDPF tran0 15.510047 8.710642 5.060172
USER    NEWDPF quaternion0 -0.847141 0.019034 0.360588 -0.389828
USER    NEWDPF axisangle0 -0.919918 0.020670 0.391565 -134.112358
USER    NEWDPF quat0 -0.919918 0.020670 0.391565 -134.112358
USER    NEWDPF dihe0 141.02 6.76 123.90 149.11 4.52 -47.28 -173.11 79.32 -136.82 123.90 102.76 125.39 177.54 -58.29 
USER  keepresnum = 1 
USER  
REMARK  14 active torsions:
REMARK  status: ('A' for Active; 'I' for Inactive)
REMARK    1  A    between atoms: C3_3  and  C35_35 
REMARK    2  A    between atoms: C5_5  and  N2_47 
REMARK    3  A    between atoms: C6_6  and  C7_7 
REMARK       I    between atoms: C6_6  and  N2_47 
REMARK    4  A    between atoms: C9_9  and  N4_49 
REMARK       I    between atoms: C11_11  and  N4_49 
REMARK       I    between atoms: C11_11  and  N5_50 
REMARK    5  A    between atoms: C12_12  and  N5_50 
REMARK    6  A    between atoms: C14_14  and  C17_17 
REMARK       I    between atoms: C17_17  and  N7_52 
REMARK    7  A    between atoms: C18_18  and  N7_52 
REMARK    8  A    between atoms: C20_20  and  C23_23 
REMARK       I    between atoms: C23_23  and  N9_54 
REMARK    9  A    between atoms: C24_24  and  N9_54 
REMARK   10  A    between atoms: C27_27  and  S1_73 
REMARK   11  A    between atoms: C33_33  and  S2_74 
REMARK       I    between atoms: C35_35  and  N10_55 
REMARK   12  A    between atoms: C36_36  and  N10_55 
REMARK   13  A    between atoms: C39_39  and  S3_75 
REMARK   14  A    between atoms: C45_45  and  S4_76 
USER                              x       y       z     vdW  Elec       q    Type
USER                           _______ _______ _______ _____ _____    ______ ____
ROOT
ATOM      1  C11 UNL     1      15.712   9.122   4.835 +1.54 +0.00    +0.327 C 
ATOM      2  N4  UNL     1      14.758   9.511   5.770 +4.77 -0.00    -0.294 N 
ATOM      3  N5  UNL     1      16.363  10.252   4.344 +0.54 -0.00    -0.294 N 
ATOM      4  O2  UNL     1      15.938   7.969   4.495 -0.51 -0.00    -0.247 OA
ATOM      5  H32 UNL     1      15.004  10.325   6.316 +0.72 +0.00    +0.172 HD
ATOM      6  H33 UNL     1      15.954  11.143   4.579 +2.26 +0.00    +0.172 HD
ENDROOT
BRANCH   2   7
ATOM      7  C9  UNL     1      13.796   8.692   6.341 +1.04 +0.00    +0.111 A 
ATOM      8  C10 UNL     1      13.286   7.549   5.752 -0.38 +0.00    +0.067 A 
ATOM      9  C7  UNL     1      12.317   6.960   6.618 -0.36 +0.00    +0.051 A 
ATOM     10  C8  UNL     1      12.295   7.768   7.742 +0.27 +0.00    +0.109 A 
ATOM     11  N3  UNL     1      13.218   8.786   7.587 -0.24 -0.00    -0.346 N 
ATOM     12  C34 UNL     1      13.566   9.672   8.677 +0.26 +0.00    +0.157 C 
BRANCH   9  13
ATOM     13  C6  UNL     1      11.555   5.731   6.341 -0.23 +0.00    +0.258 C 
ATOM     14  N2  UNL     1      10.618   5.867   5.331 -0.10 -0.00    -0.309 N 
ATOM     15  H31 UNL     1      10.578   6.747   4.843 +0.11 +0.00    +0.170 HD
ATOM     16  O1  UNL     1      11.791   4.711   6.979 -0.27 -0.00    -0.267 OA
BRANCH  14  17
ATOM     17  C5  UNL     1       9.742   4.869   4.937 -0.24 +0.00    +0.110 A 
ATOM     18  C4  UNL     1       9.368   4.408   3.688 -0.22 +0.00    +0.067 A 
ATOM     19  C3  UNL     1       8.448   3.321   3.848 -0.27 +0.00    +0.051 A 
ATOM     20  C2  UNL     1       8.249   3.209   5.210 +0.09 +0.00    +0.109 A 
ATOM     21  N1  UNL     1       9.055   4.106   5.856 -0.16 -0.00    -0.346 N 
ATOM     22  C1  UNL     1       9.136   4.201   7.296 -0.45 +0.00    +0.157 C 
BRANCH  19  23
ATOM     23  C35 UNL     1       7.809   2.534   2.780 -0.15 +0.00    +0.257 C 
ATOM     24  N10 UNL     1       7.938   3.071   1.506 -0.06 -0.00    -0.322 N 
ATOM     25  H36 UNL     1       8.233   4.045   1.503 +0.07 +0.00    +0.169 HD
ATOM     26  O11 UNL     1       7.207   1.507   3.083 -0.24 -0.00    -0.267 OA
BRANCH  24  27
ATOM     27  C36 UNL     1       7.538   2.529   0.248 -0.10 +0.00    +0.047 A 
ATOM     28  C37 UNL     1       7.727   3.261  -1.013 -0.09 +0.00    +0.027 A 
ATOM     29  C38 UNL     1       7.115   2.677  -2.188 -0.11 +0.00    +0.002 A 
ATOM     30  C45 UNL     1       8.450   4.504  -1.273 -0.10 +0.00    +0.094 A 
ATOM     31  C39 UNL     1       6.460   1.415  -2.104 -0.08 +0.00    +0.091 A 
ATOM     32  C42 UNL     1       7.172   3.364  -3.428 -0.16 +0.00    +0.014 A 
ATOM     33  C40 UNL     1       6.390   0.715  -0.905 -0.12 +0.00    +0.029 A 
ATOM     34  C41 UNL     1       6.918   1.269   0.248 -0.14 +0.00    +0.032 A 
ATOM     35  C43 UNL     1       7.820   4.576  -3.604 +0.14 +0.00    +0.003 A 
ATOM     36  C44 UNL     1       8.470   5.137  -2.532 +0.07 +0.00    +0.027 A 
BRANCH  31  37
ATOM     37  S3  UNL     1       5.681   0.597  -3.558 -0.14 +0.00    +0.138 S 
ATOM     38  O12 UNL     1       6.821   0.002  -4.253 -0.49 -0.00    -0.591 OA
ATOM     39  O13 UNL     1       4.746  -0.347  -2.951 +0.09 -0.00    -0.591 OA
ATOM     40  O14 UNL     1       5.038   1.689  -4.291 +0.03 -0.00    -0.591 OA
ENDBRANCH  31  37
BRANCH  30  41
ATOM     41  S4  UNL     1       9.492   5.340  -0.028 -0.23 +0.00    +0.138 S 
ATOM     42  O15 UNL     1      10.595   4.404   0.163 +0.53 -0.00    -0.591 OA
ATOM     43  O16 UNL     1       9.877   6.616  -0.627 +0.00 -0.00    -0.591 OA
ATOM     44  O17 UNL     1       8.584   5.463   1.108 +0.05 -0.00    -0.591 OA
ENDBRANCH  30  41
ENDBRANCH  24  27
ENDBRANCH  19  23
ENDBRANCH  14  17
ENDBRANCH   9  13
ENDBRANCH   2   7
BRANCH   3  45
ATOM     45  C12 UNL     1      17.385  10.218   3.410 -0.38 +0.00    +0.111 A 
ATOM     46  C13 UNL     1      18.662   9.693   3.469 +0.00 +0.00    +0.067 A 
ATOM     47  C14 UNL     1      19.319   9.915   2.217 -0.38 +0.00    +0.051 A 
ATOM     48  C15 UNL     1      18.395  10.581   1.428 -0.40 +0.00    +0.109 A 
ATOM     49  N6  UNL     1      17.246  10.769   2.156 -0.19 -0.00    -0.346 N 
ATOM     50  C16 UNL     1      16.071  11.438   1.639 -0.42 +0.00    +0.157 C 
BRANCH  47  51
ATOM     51  C17 UNL     1      20.683   9.486   1.861 +0.12 +0.00    +0.258 C 
ATOM     52  N7  UNL     1      21.627   9.790   2.819 -0.23 -0.00    -0.309 N 
ATOM     53  H34 UNL     1      21.285  10.090   3.723 +0.15 +0.00    +0.170 HD
ATOM     54  O3  UNL     1      20.883   8.892   0.807 +3.35 -0.00    -0.267 OA
BRANCH  52  55
ATOM     55  C18 UNL     1      23.001   9.620   2.771 -0.37 +0.00    +0.110 A 
ATOM     56  C19 UNL     1      23.606   8.477   2.272 -0.39 +0.00    +0.067 A 
ATOM     57  C20 UNL     1      25.016   8.588   2.393 -0.48 +0.00    +0.051 A 
ATOM     58  C21 UNL     1      25.225   9.839   2.949 -0.51 +0.00    +0.109 A 
ATOM     59  N8  UNL     1      24.013  10.437   3.217 -0.12 -0.00    -0.346 N 
ATOM     60  C22 UNL     1      23.926  11.663   3.976 +2.58 +0.00    +0.157 C 
BRANCH  57  61
ATOM     61  C23 UNL     1      26.098   7.659   2.028 -0.33 +0.00    +0.257 C 
ATOM     62  N9  UNL     1      26.275   7.455   0.666 -0.16 -0.00    -0.322 N 
ATOM     63  H35 UNL     1      25.553   7.844   0.063 +0.12 +0.00    +0.169 HD
ATOM     64  O4  UNL     1      26.751   7.123   2.922 +0.30 -0.00    -0.267 OA
BRANCH  62  65
ATOM     65  C24 UNL     1      27.287   6.685   0.022 -0.30 +0.00    +0.047 A 
ATOM     66  C25 UNL     1      26.986   5.457  -0.721 -0.32 +0.00    +0.027 A 
ATOM     67  C26 UNL     1      28.088   4.866  -1.450 -0.23 +0.00    +0.002 A 
ATOM     68  C33 UNL     1      25.731   4.720  -0.820 -0.41 +0.00    +0.094 A 
ATOM     69  C27 UNL     1      29.386   5.452  -1.387 -0.11 +0.00    +0.091 A 
ATOM     70  C30 UNL     1      27.870   3.696  -2.223 -0.25 +0.00    +0.014 A 
ATOM     71  C28 UNL     1      29.632   6.594  -0.635 -0.16 +0.00    +0.029 A 
ATOM     72  C29 UNL     1      28.594   7.200   0.051 -0.27 +0.00    +0.032 A 
ATOM     73  C31 UNL     1      26.646   3.054  -2.311 -0.33 +0.00    +0.003 A 
ATOM     74  C32 UNL     1      25.581   3.558  -1.604 -0.22 +0.00    +0.027 A 
BRANCH  69  75
ATOM     75  S1  UNL     1      30.832   4.763  -2.296 -0.06 +0.00    +0.138 S 
ATOM     76  O5  UNL     1      30.443   4.899  -3.696 +0.01 -0.00    -0.591 OA
ATOM     77  O6  UNL     1      31.934   5.616  -1.858 +0.05 -0.00    -0.591 OA
ATOM     78  O7  UNL     1      30.927   3.378  -1.831 +0.06 -0.00    -0.591 OA
ENDBRANCH  69  75
BRANCH  68  79
ATOM     79  S2  UNL     1      24.219   5.182   0.092 -0.66 +0.00    +0.138 S 
ATOM     80  O8  UNL     1      24.680   5.726   1.368 -0.05 -0.00    -0.591 OA
ATOM     81  O9  UNL     1      23.529   3.899   0.209 +0.66 -0.00    -0.591 OA
ATOM     82  O10 UNL     1      23.580   6.151  -0.790 -0.12 -0.00    -0.591 OA
ENDBRANCH  68  79
ENDBRANCH  62  65
ENDBRANCH  57  61
ENDBRANCH  52  55
ENDBRANCH  47  51
ENDBRANCH   3  45
TORSDOF 14
TER
