USER    Run = 1
USER    DPF = ligand_319_receptor.dpf
USER  
USER    Estimated Free Energy of Binding    =  +1.89e+004 kcal/mol  [=(1)+(2)+(3)-(4)]
USER    
USER    (1) Final Intermolecular Energy     =  +1.89e+004 kcal/mol
USER        vdW + Hbond + desolv Energy     =  +1.89e+004 kcal/mol
USER        Electrostatic Energy            =   +0.00 kcal/mol
USER    (2) Final Total Internal Energy     =   +0.00 kcal/mol
USER    (3) Torsional Free Energy           =   +1.19 kcal/mol
USER    (4) Unbound System's Energy  [=(2)] =   +0.00 kcal/mol
USER    
USER    
USER    NEWDPF move ligand_319.pdbqt
USER    NEWDPF about 0.000000 0.000000 0.000000
USER    NEWDPF tran0 17.591378 6.436765 0.098047
USER    NEWDPF quaternion0 0.216870 0.051551 0.072515 0.972138
USER    NEWDPF axisangle0 0.925170 0.219915 0.309351 27.113791
USER    NEWDPF quat0 0.925170 0.219915 0.309351 27.113791
USER  keepresnum = 1 
USER  
REMARK  0 active torsions:
REMARK  status: ('A' for Active; 'I' for Inactive)
REMARK       I    between atoms: C3_3  and  C17_17 
REMARK       I    between atoms: C5_5  and  C6_6 
REMARK       I    between atoms: C6_6  and  C7_7 
REMARK       I    between atoms: C7_7  and  C8_8 
REMARK       I    between atoms: C8_8  and  C9_9 
REMARK       I    between atoms: C9_9  and  C10_10 
REMARK       I    between atoms: C10_10  and  C11_11 
REMARK       I    between atoms: C11_11  and  C12_12 
REMARK       I    between atoms: C12_12  and  C13_13 
REMARK       I    between atoms: C13_13  and  C14_14 
REMARK       I    between atoms: C14_14  and  N2_59 
REMARK       I    between atoms: C17_17  and  C18_18 
REMARK       I    between atoms: C18_18  and  C19_19 
REMARK       I    between atoms: C21_21  and  C24_24 
REMARK       I    between atoms: C24_24  and  C25_25 
REMARK       I    between atoms: C25_25  and  C26_26 
REMARK       I    between atoms: C27_27  and  N6_64 
REMARK       I    between atoms: C30_30  and  C31_31 
REMARK       I    between atoms: C30_30  and  N6_64 
REMARK       I    between atoms: C31_31  and  C32_32 
REMARK       I    between atoms: C32_32  and  C33_33 
REMARK       I    between atoms: C33_33  and  C34_34 
REMARK       I    between atoms: C34_34  and  C35_35 
REMARK       I    between atoms: C35_35  and  N7_65 
REMARK       I    between atoms: C36_36  and  C37_37 
REMARK       I    between atoms: C36_36  and  N7_65 
REMARK       I    between atoms: C39_39  and  N9_67 
REMARK       I    between atoms: C42_42  and  C43_43 
REMARK       I    between atoms: C42_42  and  N9_67 
REMARK       I    between atoms: C44_44  and  N12_71 
REMARK       I    between atoms: C47_47  and  C48_48 
REMARK       I    between atoms: C47_47  and  N12_71 
REMARK       I    between atoms: C49_49  and  N15_75 
REMARK       I    between atoms: C52_52  and  C53_53 
REMARK       I    between atoms: C52_52  and  N15_75 
REMARK       I    between atoms: C53_53  and  C54_54 
REMARK       I    between atoms: C54_54  and  N16_76 
REMARK       I    between atoms: C55_55  and  C56_56 
REMARK       I    between atoms: C55_55  and  N16_76 
REMARK       I    between atoms: C56_56  and  C57_57 
REMARK       I    between atoms: C57_57  and  N17_77 
USER                              x       y       z     vdW  Elec       q    Type
USER                           _______ _______ _______ _____ _____    ______ ____
ROOT
ATOM      1  C1  UNL     1       3.713   8.967  -0.926+99.99 +0.00    +0.156 C 
ATOM      2  C2  UNL     1       6.167   8.544  -0.929 +1.72 +0.00    +0.098 A 
ATOM      3  C3  UNL     1       7.060   7.750  -0.239 -0.41 -0.00    -0.033 A 
ATOM      4  C4  UNL     1       6.282   6.964   0.658 -0.32 +0.00    +0.042 A 
ATOM      5  C5  UNL     1       4.941   7.256   0.460+40.72 +0.00    +0.080 A 
ATOM      6  C6  UNL     1       3.760   6.661   1.070+83.71 +0.00    +0.176 C 
ATOM      7  C7  UNL     1       3.877   6.141   2.495 -0.04 +0.00    +0.086 C 
ATOM      8  C8  UNL     1       3.534   4.657   2.644 -0.15 +0.00    +0.015 C 
ATOM      9  C9  UNL     1       4.717   3.723   2.374 -0.11 +0.00    +0.079 C 
ATOM     10  C10 UNL     1       4.955   3.423   0.905 -0.09 +0.00    +0.127 C 
ATOM     11  C11 UNL     1       6.341   2.910   0.543 -0.10 +0.00    +0.078 C 
ATOM     12  C12 UNL     1       6.462   2.463  -0.917 -0.10 +0.00    +0.009 C 
ATOM     13  C13 UNL     1       6.234   3.609  -1.914 -0.10 +0.00    +0.028 C 
ATOM     14  C14 UNL     1       5.093   3.304  -2.887 -0.06 +0.00    +0.234 C 
ATOM     15  C15 UNL     1       3.520   5.224  -2.540+99.99 +0.00    +0.269 C 
ATOM     16  C16 UNL     1       5.470   5.514  -4.068+99.99 +0.00    +0.269 C 
ATOM     17  C17 UNL     1       8.552   7.746  -0.380 -0.34 +0.00    +0.125 C 
ATOM     18  C18 UNL     1       9.065   6.803  -1.473 -0.24 +0.00    +0.180 C 
ATOM     19  C19 UNL     1      10.518   6.738  -1.630 -0.26 +0.00    +0.081 A 
ATOM     20  C20 UNL     1      11.500   7.411  -0.913 +0.63 +0.00    +0.042 A 
ATOM     21  C21 UNL     1      12.777   7.061  -1.431 +1.76 -0.00    -0.033 A 
ATOM     22  C22 UNL     1      12.542   6.157  -2.445 +0.32 +0.00    +0.098 A 
ATOM     23  C23 UNL     1      10.585   5.097  -3.547 -0.21 +0.00    +0.156 C 
ATOM     24  C24 UNL     1      14.110   7.561  -0.959 +9.01 +0.00    +0.127 C 
ATOM     25  C25 UNL     1      14.357   9.038  -1.266+99.99 +0.00    +0.197 C 
ATOM     26  C26 UNL     1      15.688   9.515  -0.917+32.44 +0.00    +0.155 A 
ATOM     27  C27 UNL     1      17.701   9.548  -0.167 -0.36 +0.00    +0.125 A 
ATOM     28  C28 UNL     1      17.463  10.815  -0.629 +3.56 +0.00    +0.140 A 
ATOM     29  C29 UNL     1      15.488  11.903  -1.698+99.99 +0.00    +0.157 C 
ATOM     30  C30 UNL     1      19.985   9.700   0.684 +0.38 +0.00    +0.223 C 
ATOM     31  C31 UNL     1      21.028   8.800   1.326+11.03 +0.00    +0.103 C 
ATOM     32  C32 UNL     1      22.164   9.564   2.010 -0.49 +0.00    +0.009 C 
ATOM     33  C33 UNL     1      21.751  10.374   3.244 -0.12 +0.00    +0.002 C 
ATOM     34  C34 UNL     1      21.049   9.610   4.375+21.51 +0.00    +0.020 C 
ATOM     35  C35 UNL     1      21.935   8.617   5.129+99.99 +0.00    +0.123 C 
ATOM     36  C36 UNL     1      21.345   6.402   4.194+99.99 +0.00    +0.268 C 
ATOM     37  C37 UNL     1      21.843   5.279   3.416+99.99 +0.00    +0.104 A 
ATOM     38  C38 UNL     1      22.962   5.189   2.595+99.99 +0.00    +0.066 A 
ATOM     39  C39 UNL     1      23.013   3.892   2.028 +0.25 +0.00    +0.053 A 
ATOM     40  C40 UNL     1      21.926   3.209   2.509 +1.01 +0.00    +0.120 A 
ATOM     41  C41 UNL     1      20.019   3.653   4.045 +3.20 +0.00    +0.156 C 
ATOM     42  C42 UNL     1      24.070   2.194   0.580+99.99 +0.00    +0.290 C 
ATOM     43  C43 UNL     1      25.247   2.092  -0.274+99.99 +0.00    +0.178 A 
ATOM     44  C44 UNL     1      27.055   2.633  -1.302 +6.72 +0.00    +0.125 A 
ATOM     45  C45 UNL     1      26.799   1.336  -1.666+53.68 +0.00    +0.140 A 
ATOM     46  C46 UNL     1      24.987  -0.280  -1.071 +8.84 +0.00    +0.157 C 
ATOM     47  C47 UNL     1      29.111   3.160  -2.522 -0.08 +0.00    +0.291 C 
ATOM     48  C48 UNL     1      30.020   4.288  -2.673 -0.04 +0.00    +0.178 A 
ATOM     49  C49 UNL     1      30.867   6.244  -2.414 -0.05 +0.00    +0.125 A 
ATOM     50  C50 UNL     1      31.697   5.599  -3.300 -0.01 +0.00    +0.140 A 
ATOM     51  C51 UNL     1      31.670   3.300  -4.292 -0.01 +0.00    +0.157 C 
ATOM     52  C52 UNL     1      30.223   8.157  -1.050 -0.17 +0.00    +0.224 C 
ATOM     53  C53 UNL     1      30.693   9.574  -0.771 -0.20 +0.00    +0.123 C 
ATOM     54  C54 UNL     1      29.852  10.261   0.298+15.46 +0.00    +0.132 C 
ATOM     55  C55 UNL     1      31.097   9.841   2.392+67.70 +0.00    +0.219 C 
ATOM     56  C56 UNL     1      31.089   8.992   3.647+53.47 +0.00    +0.132 C 
ATOM     57  C57 UNL     1      32.321   9.253   4.508+65.80 +0.00    +0.276 C 
ATOM     58  N1  UNL     1       4.900   8.260  -0.490+88.80 -0.00    -0.358 N 
ATOM     59  N2  UNL     1       4.478   4.548  -3.489 +7.34 -0.00    -0.079 N 
ATOM     60  N3  UNL     1      11.190   5.972  -2.564 -0.10 -0.00    -0.358 N 
ATOM     61  N4  UNL     1      16.607   8.749  -0.348 -0.31 -0.00    -0.324 N 
ATOM     62  H4  UNL     1      16.517   7.764  -0.097 +0.00 +0.00    +0.169 HD
ATOM     63  N5  UNL     1      16.183  10.787  -1.105+99.99 -0.00    -0.341 N 
ATOM     64  N6  UNL     1      18.819   9.014   0.416 +2.54 -0.00    -0.312 N 
ATOM     65  N7  UNL     1      22.250   7.425   4.374+99.99 -0.00    -0.356 N 
ATOM     66  N8  UNL     1      21.223   4.043   3.340+10.07 -0.00    -0.354 N 
ATOM     67  N9  UNL     1      23.986   3.446   1.162 +3.78 -0.00    -0.319 N 
ATOM     68  N10 UNL     1      26.098   3.098  -0.444+99.99 -0.00    -0.323 N 
ATOM     69  H10 UNL     1      26.048   4.025  -0.021 +0.09 +0.00    +0.169 HD
ATOM     70  N11 UNL     1      25.650   0.999  -1.006+99.99 -0.00    -0.339 N 
ATOM     71  N12 UNL     1      28.077   3.461  -1.665 -0.12 -0.00    -0.305 N 
ATOM     72  N13 UNL     1      29.841   5.435  -2.036 -0.03 -0.00    -0.323 N 
ATOM     73  H13 UNL     1      29.086   5.666  -1.391 +0.07 +0.00    +0.169 HD
ATOM     74  N14 UNL     1      31.150   4.352  -3.455 +0.01 -0.00    -0.339 N 
ATOM     75  N15 UNL     1      31.045   7.529  -1.969 -0.04 -0.00    -0.312 N 
ATOM     76  N16 UNL     1      29.985   9.638   1.601+99.99 -0.00    -0.361 N 
ATOM     77  N17 UNL     1      32.317   8.431   5.720+99.99 +0.00    +0.078 N 
ATOM     78  O1  UNL     1       2.689   6.597   0.466+99.99 -0.00    -0.291 OA
ATOM     79  O2  UNL     1       4.078   3.572   0.053 -0.13 -0.00    -0.298 OA
ATOM     80  O3  UNL     1       8.298   6.138  -2.174 +0.67 -0.00    -0.290 OA
ATOM     81  O4  UNL     1      13.496   9.772  -1.751+99.99 -0.00    -0.289 OA
ATOM     82  O5  UNL     1      20.205  10.877   0.419 -0.38 -0.00    -0.273 OA
ATOM     83  O6  UNL     1      20.207   6.456   4.652+31.26 -0.00    -0.266 OA
ATOM     84  O7  UNL     1      23.275   1.273   0.737+31.50 -0.00    -0.264 OA
ATOM     85  O8  UNL     1      29.272   2.089  -3.102 -0.10 -0.00    -0.264 OA
ATOM     86  O9  UNL     1      29.233   7.683  -0.500 -0.17 -0.00    -0.273 OA
ATOM     87  O10 UNL     1      31.993  10.623   2.097 +0.39 -0.00    -0.274 OA
ATOM     88  H70 UNL     1       3.899   4.217  -4.269 -0.01 +0.00    +0.278 HD
ATOM     89  H71 UNL     1      18.728   8.042   0.675 +5.30 +0.00    +0.170 HD
ATOM     90  H72 UNL     1      23.207   7.285   4.088 +4.61 +0.00    +0.162 HD
ATOM     91  H73 UNL     1      24.735   4.086   0.910 +0.10 +0.00    +0.169 HD
ATOM     92  H74 UNL     1      28.074   4.394  -1.263 +0.08 +0.00    +0.170 HD
ATOM     93  H75 UNL     1      31.851   8.021  -2.327 +0.05 +0.00    +0.170 HD
ATOM     94  H76 UNL     1      29.422   8.807   1.759 +0.14 +0.00    +0.162 HD
ATOM     95  H77 UNL     1      32.278   7.443   5.471+99.99 +0.00    +0.312 HD
ATOM     96  H78 UNL     1      31.481   8.626   6.269+99.99 +0.00    +0.312 HD
ENDROOT
TORSDOF 35
TER
