USER    Run = 1
USER    DPF = ligand_381_receptor.dpf
USER  
USER    Estimated Free Energy of Binding    =  -10.54 kcal/mol  [=(1)+(2)+(3)-(4)]
USER    Estimated Inhibition Constant, Ki   =   18.95 nM (nanomolar)  [Temperature = 298.15 K]
USER    
USER    (1) Final Intermolecular Energy     =  -11.73 kcal/mol
USER        vdW + Hbond + desolv Energy     =  -11.73 kcal/mol
USER        Electrostatic Energy            =   +0.00 kcal/mol
USER    (2) Final Total Internal Energy     =   -3.54 kcal/mol
USER    (3) Torsional Free Energy           =   +1.19 kcal/mol
USER    (4) Unbound System's Energy  [=(2)] =   -3.54 kcal/mol
USER    
USER    
USER    NEWDPF move ligand_381.pdbqt
USER    NEWDPF about 0.000000 0.000000 0.000000
USER    NEWDPF tran0 13.071663 7.381067 3.971397
USER    NEWDPF quaternion0 0.931009 0.294077 -0.000749 0.216195
USER    NEWDPF axisangle0 0.953561 0.301200 -0.000767 155.028765
USER    NEWDPF quat0 0.953561 0.301200 -0.000767 155.028765
USER    NEWDPF dihe0 -134.99 -156.17 -180.00 74.12 56.32 180.00 129.89 -40.22 138.58 -82.42 112.05 43.55 132.03 -25.65 24.62 
USER  keepresnum = 1 
USER  
REMARK  15 active torsions:
REMARK  status: ('A' for Active; 'I' for Inactive)
REMARK    1  A    between atoms: C2_2  and  C3_3 
REMARK    2  A    between atoms: C2_2  and  O4_36 
REMARK    3  A    between atoms: C4_4  and  C5_5 
REMARK    4  A    between atoms: C6_6  and  C7_7 
REMARK    5  A    between atoms: C7_7  and  C8_8 
REMARK       I    between atoms: C8_8  and  N1_37 
REMARK    6  A    between atoms: C9_9  and  N1_37 
REMARK    7  A    between atoms: C20_20  and  N2_38 
REMARK    8  A    between atoms: C22_22  and  C23_23 
REMARK       I    between atoms: C22_22  and  N2_38 
REMARK    9  A    between atoms: C28_28  and  O3_35 
REMARK   10  A    between atoms: C29_29  and  C30_30 
REMARK   11  A    between atoms: C29_29  and  O3_35 
REMARK   12  A    between atoms: C30_30  and  N3_39 
REMARK   13  A    between atoms: C31_31  and  C32_32 
REMARK   14  A    between atoms: C31_31  and  O4_36 
REMARK   15  A    between atoms: C32_32  and  N4_40 
USER                              x       y       z     vdW  Elec       q    Type
USER                           _______ _______ _______ _____ _____    ______ ____
ROOT
ATOM      1  C9  UNL     1      14.334   7.953   5.098 -0.42 +0.00    +0.031 C 
ATOM      2  C10 UNL     1      13.145   8.461   5.475 -0.31 +0.00    +0.009 C 
ATOM      3  C11 UNL     1      12.170   7.724   6.377 -0.47 +0.00    +0.027 C 
ATOM      4  C12 UNL     1      10.711   7.832   5.874 -0.27 +0.00    +0.048 C 
ATOM      5  C13 UNL     1      10.486   6.507   5.217 -0.27 -0.00    -0.048 A 
ATOM      6  C14 UNL     1      11.464   5.583   5.584 -0.31 -0.00    -0.043 A 
ATOM      7  C15 UNL     1      12.466   6.197   6.528 -0.43 +0.00    +0.049 C 
ATOM      8  C16 UNL     1      13.889   5.828   6.227 -0.53 -0.00    -0.014 C 
ATOM      9  C17 UNL     1      14.735   6.648   5.585 -0.35 +0.00    +0.026 C 
ATOM     10  C18 UNL     1      11.400   4.278   5.120 -0.35 +0.00    +0.011 A 
ATOM     11  C19 UNL     1      10.351   3.920   4.266 -0.30 +0.00    +0.030 A 
ATOM     12  C20 UNL     1       9.363   4.852   3.891 -0.23 +0.00    +0.035 A 
ATOM     13  C21 UNL     1       9.432   6.157   4.380 -0.24 +0.00    +0.037 A 
ENDROOT
BRANCH   1  14
ATOM     14  N1  UNL     1      15.137   8.711   4.275 -0.22 -0.00    -0.327 N 
ATOM     15  C8  UNL     1      16.137   8.306   3.400 -0.43 +0.00    +0.225 C 
ATOM     16  O1  UNL     1      16.528   7.158   3.210 -0.90 -0.00    -0.273 OA
ATOM     17  H31 UNL     1      14.974   9.708   4.312 +0.11 +0.00    +0.169 HD
BRANCH  15  18
ATOM     18  C7  UNL     1      16.756   9.476   2.640 -0.45 +0.00    +0.130 C 
BRANCH  18  19
ATOM     19  C6  UNL     1      17.206   9.056   1.270 -0.54 -0.00    -0.018 C 
ATOM     20  C5  UNL     1      18.134   9.646   0.498 -0.50 -0.00    -0.003 C 
BRANCH  20  21
ATOM     21  C4  UNL     1      18.838  10.869   0.811 -0.62 +0.00    +0.002 C 
ATOM     22  C3  UNL     1      20.007  11.015   1.461 -0.59 +0.00    +0.036 C 
BRANCH  22  23
ATOM     23  C2  UNL     1      20.867  10.035   2.109 -0.47 +0.00    +0.059 C 
ATOM     24  C1  UNL     1      20.379   9.276   3.105 -0.29 +0.00    +0.050 C 
BRANCH  23  25
ATOM     25  O4  UNL     1      22.128   9.934   1.572 -0.19 -0.00    -0.350 OA
BRANCH  25  26
ATOM     26  C31 UNL     1      22.261   9.827   0.153 -0.38 +0.00    +0.205 C 
BRANCH  26  27
ATOM     27  C32 UNL     1      23.048   8.549  -0.152 -0.32 +0.00    +0.293 C 
BRANCH  27  28
ATOM     28  N4  UNL     1      23.384   7.794   1.055 -0.39 +0.00    +0.080 N 
ATOM     29  H35 UNL     1      24.089   8.304   1.587 +0.25 +0.00    +0.312 HD
ATOM     30  H36 UNL     1      22.560   7.745   1.655 +0.24 +0.00    +0.312 HD
ENDBRANCH  27  28
ENDBRANCH  26  27
ENDBRANCH  25  26
ENDBRANCH  23  25
ENDBRANCH  22  23
ENDBRANCH  20  21
ENDBRANCH  18  19
ENDBRANCH  15  18
ENDBRANCH   1  14
BRANCH  12  31
ATOM     31  N2  UNL     1       8.343   4.386   3.037 -0.06 -0.00    -0.323 N 
ATOM     32  C22 UNL     1       7.048   4.853   2.920 -0.09 +0.00    +0.259 C 
ATOM     33  O2  UNL     1       6.547   5.763   3.572 -0.13 -0.00    -0.267 OA
ATOM     34  H32 UNL     1       8.591   3.610   2.427 +0.06 +0.00    +0.169 HD
BRANCH  32  35
ATOM     35  C23 UNL     1       6.207   4.182   1.877 -0.09 +0.00    +0.065 A 
ATOM     36  C24 UNL     1       5.821   4.955   0.769 -0.17 +0.00    +0.020 A 
ATOM     37  C25 UNL     1       5.063   4.398  -0.262 -0.18 +0.00    +0.001 A 
ATOM     38  C26 UNL     1       4.689   3.058  -0.202 -0.10 +0.00    +0.003 A 
ATOM     39  C27 UNL     1       5.051   2.281   0.898 -0.12 +0.00    +0.038 A 
ATOM     40  C28 UNL     1       5.779   2.846   1.954 -0.11 +0.00    +0.084 A 
BRANCH  40  41
ATOM     41  O3  UNL     1       6.138   2.071   3.028 -0.18 -0.00    -0.348 OA
BRANCH  41  42
ATOM     42  C29 UNL     1       5.329   2.294   4.197 -0.11 +0.00    +0.205 C 
BRANCH  42  43
ATOM     43  C30 UNL     1       4.188   1.270   4.309 -0.23 +0.00    +0.293 C 
BRANCH  43  44
ATOM     44  N3  UNL     1       4.308   0.199   3.319 -0.35 +0.00    +0.080 N 
ATOM     45  H33 UNL     1       3.774   0.453   2.485 +0.12 +0.00    +0.312 HD
ATOM     46  H34 UNL     1       5.276   0.143   3.000 +0.16 +0.00    +0.312 HD
ENDBRANCH  43  44
ENDBRANCH  42  43
ENDBRANCH  41  42
ENDBRANCH  40  41
ENDBRANCH  32  35
ENDBRANCH  12  31
TORSDOF 15
TER
