USER    Run = 1
USER    DPF = ligand_441_receptor.dpf
USER  
USER    Estimated Free Energy of Binding    =  +1.94e+003 kcal/mol  [=(1)+(2)+(3)-(4)]
USER    
USER    (1) Final Intermolecular Energy     =  +1.94e+003 kcal/mol
USER        vdW + Hbond + desolv Energy     =  +1.94e+003 kcal/mol
USER        Electrostatic Energy            =   +0.00 kcal/mol
USER    (2) Final Total Internal Energy     =   +0.00 kcal/mol
USER    (3) Torsional Free Energy           =   +1.19 kcal/mol
USER    (4) Unbound System's Energy  [=(2)] =   +0.00 kcal/mol
USER    
USER    
USER    NEWDPF move ligand_441.pdbqt
USER    NEWDPF about 0.000000 0.000000 0.000000
USER    NEWDPF tran0 16.472184 6.674517 2.112442
USER    NEWDPF quaternion0 0.994450 0.084296 -0.046108 -0.042862
USER    NEWDPF axisangle0 0.995365 0.084374 -0.046150 -175.086874
USER    NEWDPF quat0 0.995365 0.084374 -0.046150 -175.086874
USER  keepresnum = 1 
USER  
REMARK  0 active torsions:
REMARK  status: ('A' for Active; 'I' for Inactive)
REMARK       I    between atoms: C2_2  and  C3_3 
REMARK       I    between atoms: C3_3  and  C5_5 
REMARK       I    between atoms: C5_5  and  C6_6 
REMARK       I    between atoms: C5_5  and  N4_87 
REMARK       I    between atoms: C6_6  and  C7_7 
REMARK       I    between atoms: C6_6  and  O4_67 
REMARK       I    between atoms: C7_7  and  C8_8 
REMARK       I    between atoms: C8_8  and  N1_83 
REMARK       I    between atoms: C12_12  and  C13_13 
REMARK       I    between atoms: C13_13  and  C14_14 
REMARK       I    between atoms: C13_13  and  O3_66 
REMARK       I    between atoms: C14_14  and  C16_16 
REMARK       I    between atoms: C16_16  and  O2_65 
REMARK       I    between atoms: C16_16  and  N2_84 
REMARK       I    between atoms: C17_17  and  C18_18 
REMARK       I    between atoms: C17_17  and  C25_25 
REMARK       I    between atoms: C17_17  and  N2_84 
REMARK       I    between atoms: C18_18  and  C19_19 
REMARK       I    between atoms: C31_31  and  C32_32 
REMARK       I    between atoms: C31_31  and  N4_87 
REMARK       I    between atoms: C32_32  and  C33_33 
REMARK       I    between atoms: C32_32  and  N5_88 
REMARK       I    between atoms: C36_36  and  C37_37 
REMARK       I    between atoms: C36_36  and  N5_88 
REMARK       I    between atoms: C37_37  and  C38_38 
REMARK       I    between atoms: C37_37  and  N6_89 
REMARK       I    between atoms: C42_42  and  C43_43 
REMARK       I    between atoms: C42_42  and  N6_89 
REMARK       I    between atoms: C43_43  and  O8_71 
REMARK       I    between atoms: C44_44  and  C45_45 
REMARK       I    between atoms: C46_46  and  N8_92 
REMARK       I    between atoms: C47_47  and  O18_81 
REMARK       I    between atoms: C49_49  and  C50_50 
REMARK       I    between atoms: C49_49  and  O12_75 
REMARK       I    between atoms: C50_50  and  O11_74 
REMARK       I    between atoms: C51_51  and  C52_52 
REMARK       I    between atoms: C51_51  and  O12_75 
REMARK       I    between atoms: C53_53  and  O17_80 
REMARK       I    between atoms: C54_54  and  O16_79 
REMARK       I    between atoms: C55_55  and  O15_78 
REMARK       I    between atoms: C56_56  and  O14_77 
REMARK       I    between atoms: C57_57  and  C59_59 
REMARK       I    between atoms: C57_57  and  O14_77 
REMARK       I    between atoms: C62_62  and  O19_82 
REMARK       I    between atoms: C62_62  and  N8_92 
REMARK       I    between atoms: O8_71  and  N7_90 
USER                              x       y       z     vdW  Elec       q    Type
USER                           _______ _______ _______ _____ _____    ______ ____
ROOT
ATOM      1  C1  UNL     1      21.145  13.400  -1.027+92.36 +0.00    +0.005 C 
ATOM      2  C2  UNL     1      20.073  12.527  -0.386 +1.39 +0.00    +0.002 C 
ATOM      3  C3  UNL     1      20.601  11.164   0.131 -0.61 +0.00    +0.006 C 
ATOM      4  C4  UNL     1      21.093  10.304  -1.043+52.53 +0.00    +0.012 C 
ATOM      5  C5  UNL     1      19.488  10.430   0.960 -0.47 +0.00    +0.119 C 
ATOM      6  C6  UNL     1      19.835   8.952   1.385+15.41 +0.00    +0.152 C 
ATOM      7  C7  UNL     1      21.100   8.830   2.251 +1.19 +0.00    +0.137 C 
ATOM      8  C8  UNL     1      22.031   7.721   1.780+16.62 +0.00    +0.222 C 
ATOM      9  C9  UNL     1      23.641   8.362   3.610 +0.37 +0.00    +0.126 C 
ATOM     10  C10 UNL     1      24.716   7.482   4.220 +7.44 +0.00    +0.022 C 
ATOM     11  C11 UNL     1      25.434   6.935   2.996 +0.52 +0.00    +0.029 C 
ATOM     12  C12 UNL     1      24.294   6.670   1.996 +1.15 +0.00    +0.116 C 
ATOM     13  C13 UNL     1      24.705   6.711   0.489 -0.39 +0.00    +0.151 C 
ATOM     14  C14 UNL     1      25.030   5.311  -0.113 -0.52 +0.00    +0.071 C 
ATOM     15  C15 UNL     1      25.286   5.456  -1.624 -0.54 +0.00    +0.017 C 
ATOM     16  C16 UNL     1      26.192   4.529   0.540 +0.04 +0.00    +0.361 C 
ATOM     17  C17 UNL     1      28.646   4.681   0.427 -0.08 +0.00    +0.284 C 
ATOM     18  C18 UNL     1      28.887   4.738  -1.103 -0.18 +0.00    +0.081 C 
ATOM     19  C19 UNL     1      30.102   3.967  -1.569 -0.07 -0.00    -0.056 A 
ATOM     20  C20 UNL     1      30.095   2.565  -1.572 -0.15 +0.00    +0.007 A 
ATOM     21  C21 UNL     1      31.217   1.853  -1.998 -0.15 +0.00    +0.001 A 
ATOM     22  C22 UNL     1      32.355   2.534  -2.426 -0.06 +0.00    +0.000 A 
ATOM     23  C23 UNL     1      32.372   3.926  -2.429 -0.01 +0.00    +0.001 A 
ATOM     24  C24 UNL     1      31.251   4.641  -2.004 -0.03 +0.00    +0.007 A 
ATOM     25  C25 UNL     1      29.792   5.315   1.208 -0.07 +0.00    +0.084 A 
ATOM     26  C26 UNL     1      31.497   5.497   2.606 +0.18 +0.00    +0.096 A 
ATOM     27  C27 UNL     1      31.436   6.808   2.189 -0.23 +0.00    +0.068 A 
ATOM     28  C28 UNL     1      25.426   8.956   0.084 +2.98 +0.00    +0.202 C 
ATOM     29  C29 UNL     1      18.628   7.007   2.103+66.84 +0.00    +0.202 C 
ATOM     30  C30 UNL     1      19.903  11.756   3.092+11.35 +0.00    +0.153 C 
ATOM     31  C31 UNL     1      17.645  11.106   2.568 -0.36 +0.00    +0.243 C 
ATOM     32  C32 UNL     1      16.529  10.636   1.593 -0.43 +0.00    +0.180 C 
ATOM     33  C33 UNL     1      16.146  11.755   0.597 -0.36 +0.00    +0.009 C 
ATOM     34  C34 UNL     1      15.505  12.972   1.274+99.99 +0.00    +0.012 C 
ATOM     35  C35 UNL     1      15.220  11.227  -0.502+54.80 +0.00    +0.012 C 
ATOM     36  C36 UNL     1      14.746   9.034   2.245 +9.95 +0.00    +0.241 C 
ATOM     37  C37 UNL     1      13.864   8.544   3.421 -0.08 +0.00    +0.182 C 
ATOM     38  C38 UNL     1      13.050   9.654   4.140+47.22 +0.00    +0.009 C 
ATOM     39  C39 UNL     1      12.076  10.331   3.166+60.15 +0.00    +0.012 C 
ATOM     40  C40 UNL     1      12.255   9.085   5.322+13.42 +0.00    +0.012 C 
ATOM     41  C41 UNL     1      15.753   8.403   5.097 +3.62 +0.00    +0.153 C 
ATOM     42  C42 UNL     1      14.887   6.348   4.153+13.28 +0.00    +0.246 C 
ATOM     43  C43 UNL     1      13.908   5.582   3.266+71.70 +0.00    +0.304 C 
ATOM     44  C44 UNL     1      10.496   5.006   3.342 +0.07 +0.00    +0.121 C 
ATOM     45  C45 UNL     1      10.007   5.453   4.706 -0.21 +0.00    +0.201 C 
ATOM     46  C46 UNL     1       8.767   6.354   4.558 +0.06 +0.00    +0.286 C 
ATOM     47  C47 UNL     1       8.300   6.748   5.983+78.59 +0.00    +0.160 C 
ATOM     48  C48 UNL     1       8.721   5.736   7.053 -0.14 +0.00    +0.114 C 
ATOM     49  C49 UNL     1       8.781   4.313   6.480 -0.31 +0.00    +0.255 C 
ATOM     50  C50 UNL     1       9.304   3.393   7.629 -0.45 +0.00    +0.205 C 
ATOM     51  C51 UNL     1       7.313   2.851   5.266+15.96 +0.00    +0.207 C 
ATOM     52  C52 UNL     1       5.830   2.476   5.114+11.16 +0.00    +0.180 C 
ATOM     53  C53 UNL     1       4.853   3.678   5.099 -0.22 +0.00    +0.180 C 
ATOM     54  C54 UNL     1       3.558   3.289   4.382 -0.12 +0.00    +0.183 C 
ATOM     55  C55 UNL     1       3.833   2.794   2.952 -0.08 +0.00    +0.204 C 
ATOM     56  C56 UNL     1       5.293   2.308   2.797 -0.13 +0.00    +0.292 C 
ATOM     57  C57 UNL     1       6.665   0.995   1.342 +0.15 +0.00    +0.124 C 
ATOM     58  C58 UNL     1       6.752  -0.485   1.708+99.99 +0.00    +0.040 C 
ATOM     59  C59 UNL     1       6.960   1.252  -0.154 -0.19 +0.00    +0.006 C 
ATOM     60  C60 UNL     1       5.950   0.588  -1.095 -0.12 +0.00    +0.012 C 
ATOM     61  C61 UNL     1       7.000   2.757  -0.438 -0.11 +0.00    +0.012 C 
ATOM     62  C62 UNL     1       7.834   8.005   3.001 +0.40 +0.00    +0.350 C 
ATOM     63  C63 UNL     1       8.242   9.085   2.007+99.99 +0.00    +0.073 C 
ATOM     64  O1  UNL     1      21.702   6.918   0.908+99.99 -0.00    -0.273 OA
ATOM     65  O2  UNL     1      25.760   3.995   1.772+32.14 -0.00    -0.367 OA
ATOM     66  O3  UNL     1      25.817   7.595   0.220 -0.15 -0.00    -0.388 OA
ATOM     67  O4  UNL     1      18.699   8.429   2.103 +0.87 -0.00    -0.388 OA
ATOM     68  O5  UNL     1      17.329  11.426   3.724 +0.02 -0.00    -0.271 OA
ATOM     69  O6  UNL     1      14.918   8.336   1.245 +2.57 -0.00    -0.271 OA
ATOM     70  O7  UNL     1      15.817   5.742   4.699+99.99 -0.00    -0.271 OA
ATOM     71  O8  UNL     1      12.586   5.662   3.792 +1.24 -0.00    -0.272 OA
ATOM     72  O9  UNL     1       9.675   4.225   5.366 -0.18 -0.00    -0.333 OA
ATOM     73  O10 UNL     1      10.448   2.996   7.791 -0.01 -0.00    -0.646 OA
ATOM     74  O11 UNL     1       8.349   3.043   8.522 -0.04 -0.00    -0.772 OA
ATOM     75  O12 UNL     1       7.442   3.991   6.101 -0.22 -0.00    -0.344 OA
ATOM     76  O13 UNL     1       5.692   1.606   3.972 -0.20 -0.00    -0.348 OA
ATOM     77  O14 UNL     1       5.342   1.453   1.647 -0.13 -0.00    -0.353 OA
ATOM     78  O15 UNL     1       2.917   1.713   2.661 -0.03 -0.00    -0.388 OA
ATOM     79  O16 UNL     1       2.686   4.434   4.350 -0.02 -0.00    -0.390 OA
ATOM     80  O17 UNL     1       5.395   4.825   4.412 -0.06 -0.00    -0.390 OA
ATOM     81  O18 UNL     1       6.873   6.886   5.984+13.82 -0.00    -0.393 OA
ATOM     82  O19 UNL     1       6.930   8.557   3.939+99.99 -0.00    -0.368 OA
ATOM     83  N1  UNL     1      23.284   7.693   2.365 +0.17 -0.00    -0.345 N 
ATOM     84  N2  UNL     1      27.371   5.311   0.823 +0.08 +0.00    +0.123 N 
ATOM     85  N3  UNL     1      30.557   4.651   2.055 +0.11 -0.00    -0.361 N 
ATOM     86  H3  UNL     1      30.466   3.658   2.271 -0.16 +0.00    +0.165 HD
ATOM     87  N4  UNL     1      18.962  11.246   2.103 -0.21 -0.00    -0.347 N 
ATOM     88  N5  UNL     1      15.402  10.228   2.436 -0.08 -0.00    -0.346 N 
ATOM     89  N6  UNL     1      14.714   7.728   4.326 -0.27 -0.00    -0.341 N 
ATOM     90  N7  UNL     1      11.705   5.079   2.871 +3.83 -0.00    -0.279 N 
ATOM     91  H7  UNL     1      11.979   4.751   1.945 +0.94 +0.00    +0.193 HD
ATOM     92  N8  UNL     1       9.013   7.532   3.700 -0.28 +0.00    +0.121 N 
ATOM     93  S1  UNL     1      30.156   7.000   1.068 -0.37 -0.00    -0.085 SA
ATOM     94  H95 UNL     1      26.562   4.033   2.323+19.67 +0.00    +0.212 HD
ATOM     95  H96 UNL     1       8.823   2.474   9.163 +0.11 +0.00    +0.167 HD
ATOM     96  H97 UNL     1       3.390   1.154   2.011 +0.07 +0.00    +0.210 HD
ATOM     97  H98 UNL     1       3.255   5.186   4.097 +0.06 +0.00    +0.210 HD
ATOM     98  H99 UNL     1       5.955   5.283   5.083 +0.10 +0.00    +0.210 HD
ATOM     99  HA0 UNL     1       6.693   7.624   5.356+11.88 +0.00    +0.210 HD
ATOM    100  HA1 UNL     1       6.201   8.945   3.420 +4.68 +0.00    +0.212 HD
ATOM    101  HA2 UNL     1      27.288   6.241   0.402 +0.20 +0.00    +0.320 HD
ATOM    102  HA3 UNL     1      15.443  10.614   3.374 +0.09 +0.00    +0.163 HD
ATOM    103  HA4 UNL     1       9.378   8.305   4.254 +0.19 +0.00    +0.320 HD
ENDROOT
TORSDOF 42
TER
