USER    Run = 1
USER    DPF = ligand_395_receptor.dpf
USER  
USER    Estimated Free Energy of Binding    =  +2.22e+004 kcal/mol  [=(1)+(2)+(3)-(4)]
USER    
USER    (1) Final Intermolecular Energy     =  +2.22e+004 kcal/mol
USER        vdW + Hbond + desolv Energy     =  +2.22e+004 kcal/mol
USER        Electrostatic Energy            =   +0.00 kcal/mol
USER    (2) Final Total Internal Energy     =   +0.00 kcal/mol
USER    (3) Torsional Free Energy           =   +1.19 kcal/mol
USER    (4) Unbound System's Energy  [=(2)] =   +0.00 kcal/mol
USER    
USER    
USER    NEWDPF move ligand_395.pdbqt
USER    NEWDPF about 0.000000 0.000000 0.000000
USER    NEWDPF tran0 16.354540 6.911387 3.044319
USER    NEWDPF quaternion0 -0.440287 0.260967 -0.857446 -0.053202
USER    NEWDPF axisangle0 -0.440911 0.261337 -0.858662 -173.900577
USER    NEWDPF quat0 -0.440911 0.261337 -0.858662 -173.900577
USER  keepresnum = 1 
USER  
REMARK  0 active torsions:
REMARK  status: ('A' for Active; 'I' for Inactive)
REMARK       I    between atoms: C2_2  and  C3_3 
REMARK       I    between atoms: C3_3  and  C5_5 
REMARK       I    between atoms: C5_5  and  C6_6 
REMARK       I    between atoms: C5_5  and  N3_83 
REMARK       I    between atoms: C6_6  and  C7_7 
REMARK       I    between atoms: C6_6  and  O5_71 
REMARK       I    between atoms: C7_7  and  C8_8 
REMARK       I    between atoms: C8_8  and  N1_81 
REMARK       I    between atoms: C12_12  and  C13_13 
REMARK       I    between atoms: C13_13  and  C14_14 
REMARK       I    between atoms: C13_13  and  O4_70 
REMARK       I    between atoms: C14_14  and  C16_16 
REMARK       I    between atoms: C16_16  and  N2_82 
REMARK       I    between atoms: C17_17  and  C19_19 
REMARK       I    between atoms: C17_17  and  N2_82 
REMARK       I    between atoms: C19_19  and  C20_20 
REMARK       I    between atoms: C19_19  and  O3_69 
REMARK       I    between atoms: C29_29  and  C30_30 
REMARK       I    between atoms: C29_29  and  N3_83 
REMARK       I    between atoms: C30_30  and  C31_31 
REMARK       I    between atoms: C30_30  and  N4_84 
REMARK       I    between atoms: C34_34  and  C35_35 
REMARK       I    between atoms: C34_34  and  N4_84 
REMARK       I    between atoms: C35_35  and  C36_36 
REMARK       I    between atoms: C35_35  and  N5_85 
REMARK       I    between atoms: C40_40  and  C41_41 
REMARK       I    between atoms: C40_40  and  N5_85 
REMARK       I    between atoms: C41_41  and  N6_86 
REMARK       I    between atoms: C42_42  and  C43_43 
REMARK       I    between atoms: C42_42  and  N6_86 
REMARK       I    between atoms: C43_43  and  C44_44 
REMARK       I    between atoms: C43_43  and  C48_48 
REMARK       I    between atoms: C44_44  and  C45_45 
REMARK       I    between atoms: C45_45  and  C46_46 
REMARK       I    between atoms: C46_46  and  N7_87 
REMARK       I    between atoms: C47_47  and  N7_87 
REMARK       I    between atoms: C47_47  and  N8_88 
REMARK       I    between atoms: C48_48  and  C49_49 
REMARK       I    between atoms: C49_49  and  C50_50 
REMARK       I    between atoms: C50_50  and  C51_51 
REMARK       I    between atoms: C50_50  and  N9_89 
REMARK       I    between atoms: C54_54  and  C55_55 
REMARK       I    between atoms: C54_54  and  N9_89 
REMARK       I    between atoms: C55_55  and  C56_56 
REMARK       I    between atoms: C56_56  and  N10_90 
REMARK       I    between atoms: C57_57  and  C58_58 
REMARK       I    between atoms: C57_57  and  N10_90 
REMARK       I    between atoms: C58_58  and  N11_91 
REMARK       I    between atoms: C60_60  and  C61_61 
REMARK       I    between atoms: C60_60  and  N11_91 
REMARK       I    between atoms: C61_61  and  C62_62 
REMARK       I    between atoms: C62_62  and  N12_92 
USER                              x       y       z     vdW  Elec       q    Type
USER                           _______ _______ _______ _____ _____    ______ ____
ROOT
ATOM      1  C1  UNL     1      10.458  10.765   7.689+99.99 +0.00    +0.005 C 
ATOM      2  C2  UNL     1      10.660   9.355   7.143 +2.15 +0.00    +0.002 C 
ATOM      3  C3  UNL     1      11.334   9.299   5.761+27.15 +0.00    +0.006 C 
ATOM      4  C4  UNL     1      10.704  10.277   4.754+99.99 +0.00    +0.012 C 
ATOM      5  C5  UNL     1      11.529   7.873   5.118 -0.37 +0.00    +0.119 C 
ATOM      6  C6  UNL     1      12.391   6.846   5.945 -0.34 +0.00    +0.152 C 
ATOM      7  C7  UNL     1      11.816   6.140   7.180 -0.31 +0.00    +0.137 C 
ATOM      8  C8  UNL     1      10.976   4.887   6.967 -0.30 +0.00    +0.222 C 
ATOM      9  C9  UNL     1       9.854   2.996   8.050 -0.21 +0.00    +0.126 C 
ATOM     10  C10 UNL     1       9.636   2.681   9.526+99.99 +0.00    +0.022 C 
ATOM     11  C11 UNL     1      10.594   3.609  10.276+99.99 +0.00    +0.029 C 
ATOM     12  C12 UNL     1      11.700   3.941   9.262 +6.08 +0.00    +0.117 C 
ATOM     13  C13 UNL     1      12.857   2.874   9.325 +4.96 +0.00    +0.156 C 
ATOM     14  C14 UNL     1      14.012   3.019   8.300+32.25 +0.00    +0.105 C 
ATOM     15  C15 UNL     1      13.605   2.742   6.855+64.03 +0.00    +0.022 C 
ATOM     16  C16 UNL     1      14.801   4.308   8.541 +4.36 +0.00    +0.224 C 
ATOM     17  C17 UNL     1      16.598   5.805   7.634+99.99 +0.00    +0.113 C 
ATOM     18  C18 UNL     1      15.853   7.140   7.588+99.99 +0.00    +0.035 C 
ATOM     19  C19 UNL     1      17.661   5.657   6.506+99.99 +0.00    +0.173 C 
ATOM     20  C20 UNL     1      18.745   6.715   6.477+99.99 -0.00    -0.028 A 
ATOM     21  C21 UNL     1      19.965   6.480   7.129+19.11 +0.00    +0.010 A 
ATOM     22  C22 UNL     1      20.977   7.445   7.119+99.99 +0.00    +0.001 A 
ATOM     23  C23 UNL     1      20.776   8.660   6.466+23.52 +0.00    +0.000 A 
ATOM     24  C24 UNL     1      19.567   8.911   5.824+80.31 +0.00    +0.001 A 
ATOM     25  C25 UNL     1      18.561   7.944   5.823+99.99 +0.00    +0.010 A 
ATOM     26  C26 UNL     1      13.008   0.575  10.003+51.87 +0.00    +0.202 C 
ATOM     27  C27 UNL     1      13.872   6.242   4.118 +0.89 +0.00    +0.202 C 
ATOM     28  C28 UNL     1       9.089   7.197   5.126 +9.06 +0.00    +0.153 C 
ATOM     29  C29 UNL     1      10.419   7.198   3.024 -0.26 +0.00    +0.243 C 
ATOM     30  C30 UNL     1       9.403   6.302   2.245 -0.21 +0.00    +0.180 C 
ATOM     31  C31 UNL     1       9.319   4.804   2.633 -0.19 +0.00    +0.009 C 
ATOM     32  C32 UNL     1       8.385   4.024   1.704 -0.18 +0.00    +0.012 C 
ATOM     33  C33 UNL     1      10.641   4.056   2.818+40.31 +0.00    +0.012 C 
ATOM     34  C34 UNL     1      10.645   6.201   0.050 -0.22 +0.00    +0.241 C 
ATOM     35  C35 UNL     1      11.012   7.144  -1.137 -0.18 +0.00    +0.182 C 
ATOM     36  C36 UNL     1       9.816   7.432  -2.091 -0.42 +0.00    +0.009 C 
ATOM     37  C37 UNL     1       9.127   6.201  -2.683 -0.24 +0.00    +0.012 C 
ATOM     38  C38 UNL     1      10.196   8.421  -3.197 -0.50 +0.00    +0.012 C 
ATOM     39  C39 UNL     1      12.262   5.553  -2.660 +3.46 +0.00    +0.153 C 
ATOM     40  C40 UNL     1      13.533   7.263  -1.501+26.37 +0.00    +0.237 C 
ATOM     41  C41 UNL     1      13.636   8.336  -0.402+52.56 +0.00    +0.225 C 
ATOM     42  C42 UNL     1      15.759   8.215   0.843 +0.21 +0.00    +0.222 C 
ATOM     43  C43 UNL     1      17.263   8.453   0.795 -0.16 +0.00    +0.085 C 
ATOM     44  C44 UNL     1      17.925   7.785  -0.418+86.88 +0.00    +0.016 C 
ATOM     45  C45 UNL     1      17.748   6.262  -0.451+99.99 +0.00    +0.020 C 
ATOM     46  C46 UNL     1      18.467   5.626  -1.642+99.99 +0.00    +0.124 C 
ATOM     47  C47 UNL     1      20.595   6.731  -2.219 +6.62 +0.00    +0.291 C 
ATOM     48  C48 UNL     1      17.575   9.958   0.845 -0.47 +0.00    +0.094 C 
ATOM     49  C49 UNL     1      18.462  10.280   2.030 -0.41 +0.00    +0.150 C 
ATOM     50  C50 UNL     1      20.000  10.218   1.923 -0.40 +0.00    +0.157 C 
ATOM     51  C51 UNL     1      20.695  10.936   0.742 -0.58 +0.00    +0.007 C 
ATOM     52  C52 UNL     1      20.128  12.338   0.498 -0.52 +0.00    +0.012 C 
ATOM     53  C53 UNL     1      20.791  10.151  -0.564 +3.47 +0.00    +0.012 C 
ATOM     54  C54 UNL     1      21.700   8.482   2.464 +0.85 +0.00    +0.220 C 
ATOM     55  C55 UNL     1      21.865   7.085   3.030+22.67 +0.00    +0.132 C 
ATOM     56  C56 UNL     1      21.694   5.962   2.005+99.99 +0.00    +0.278 C 
ATOM     57  C57 UNL     1      24.043   5.946   1.296 -0.14 +0.00    +0.299 C 
ATOM     58  C58 UNL     1      24.988   5.912   0.073 -0.30 +0.00    +0.301 C 
ATOM     59  C59 UNL     1      27.179   4.996  -0.347 -0.19 +0.00    +0.309 C 
ATOM     60  C60 UNL     1      27.017   7.279   0.369 -0.24 +0.00    +0.273 C 
ATOM     61  C61 UNL     1      26.412   8.331   1.307 -0.48 +0.00    +0.050 C 
ATOM     62  C62 UNL     1      27.130   9.682   1.231 +4.80 +0.00    +0.137 C 
ATOM     63  C63 UNL     1      29.603   9.525   1.007+40.62 +0.00    +0.250 A 
ATOM     64  C64 UNL     1      30.743   9.516   1.930+54.07 +0.00    +0.080 A 
ATOM     65  C65 UNL     1      30.261   9.618   3.169+99.99 +0.00    +0.080 A 
ATOM     66  C66 UNL     1      28.798   9.697   3.076+99.99 +0.00    +0.250 A 
ATOM     67  O1  UNL     1      10.268   4.729   5.973 -0.19 -0.00    -0.273 OA
ATOM     68  O2  UNL     1      14.766   4.895   9.621+99.18 -0.00    -0.273 OA
ATOM     69  O3  UNL     1      16.996   5.570   5.236+99.99 -0.00    -0.389 OA
ATOM     70  O4  UNL     1      12.305   1.543   9.234+14.12 -0.00    -0.388 OA
ATOM     71  O5  UNL     1      13.016   5.808   5.165 -0.19 -0.00    -0.388 OA
ATOM     72  O6  UNL     1      11.235   7.872   2.375 +0.07 -0.00    -0.271 OA
ATOM     73  O7  UNL     1      11.285   5.185   0.288 -0.07 -0.00    -0.271 OA
ATOM     74  O8  UNL     1      14.546   6.940  -2.134 +8.58 -0.00    -0.272 OA
ATOM     75  O9  UNL     1      15.255   7.629   1.797 +8.87 -0.00    -0.273 OA
ATOM     76  O10 UNL     1      20.117   7.554  -2.984 +4.67 -0.00    -0.254 OA
ATOM     77  O11 UNL     1      17.937  10.418   3.144 -0.27 -0.00    -0.296 OA
ATOM     78  O12 UNL     1      22.655   9.235   2.307 -0.30 -0.00    -0.274 OA
ATOM     79  O13 UNL     1      29.710   9.425  -0.202 -0.06 -0.00    -0.268 OA
ATOM     80  O14 UNL     1      28.066   9.791   4.042+12.16 -0.00    -0.268 OA
ATOM     81  N1  UNL     1      10.928   3.977   8.012 -0.19 -0.00    -0.345 N 
ATOM     82  N2  UNL     1      15.652   4.682   7.531+26.57 -0.00    -0.354 N 
ATOM     83  N3  UNL     1      10.356   7.292   4.417 -0.14 -0.00    -0.347 N 
ATOM     84  N4  UNL     1       9.571   6.641   0.811 -0.10 -0.00    -0.346 N 
ATOM     85  N5  UNL     1      12.279   6.725  -1.796 -0.13 -0.00    -0.341 N 
ATOM     86  N6  UNL     1      15.036   8.710  -0.215 +1.03 -0.00    -0.352 N 
ATOM     87  N7  UNL     1      19.906   5.775  -1.536+99.99 -0.00    -0.348 N 
ATOM     88  N8  UNL     1      21.921   6.708  -1.932 +1.66 -0.00    -0.254 NA
ATOM     89  N9  UNL     1      20.393   8.827   2.182 +1.70 -0.00    -0.349 N 
ATOM     90  N10 UNL     1      22.630   5.911   0.870 +1.72 +0.00    +0.085 N 
ATOM     91  N11 UNL     1      26.407   5.934   0.479 -0.31 +0.00    +0.086 N 
ATOM     92  N12 UNL     1      28.481   9.645   1.758+66.44 -0.00    -0.281 N 
ATOM     93  HA2 UNL     1      17.640   5.805   4.548+99.99 +0.00    +0.210 HD
ATOM     94  HA3 UNL     1      15.417   4.423   6.575 +1.60 +0.00    +0.163 HD
ATOM     95  HA4 UNL     1       9.330   7.607   0.639 +0.09 +0.00    +0.163 HD
ATOM     96  HA5 UNL     1      15.537   8.864  -1.082 +0.09 +0.00    +0.162 HD
ATOM     97  HA6 UNL     1      20.449   4.996  -1.199 +4.69 +0.00    +0.163 HD
ATOM     98  HA7 UNL     1      22.405   7.497  -2.342 +0.30 +0.00    +0.128 HD
ATOM     99  HA8 UNL     1      22.135   6.612  -0.940 +0.06 +0.00    +0.128 HD
ATOM    100  HA9 UNL     1      19.708   8.278   2.691 +0.14 +0.00    +0.163 HD
ATOM    101  HB0 UNL     1      22.487   5.017   0.393 +0.26 +0.00    +0.315 HD
ENDROOT
TORSDOF 43
TER
