USER    Run = 1
USER    DPF = ligand_79_receptor.dpf
USER  
USER    Estimated Free Energy of Binding    =   +2.93 kcal/mol  [=(1)+(2)+(3)-(4)]
USER    
USER    (1) Final Intermolecular Energy     =   +1.74 kcal/mol
USER        vdW + Hbond + desolv Energy     =   +1.74 kcal/mol
USER        Electrostatic Energy            =   +0.00 kcal/mol
USER    (2) Final Total Internal Energy     =   -2.85 kcal/mol
USER    (3) Torsional Free Energy           =   +1.19 kcal/mol
USER    (4) Unbound System's Energy  [=(2)] =   -2.85 kcal/mol
USER    
USER    
USER    NEWDPF move ligand_79.pdbqt
USER    NEWDPF about 0.000000 0.000000 0.000000
USER    NEWDPF tran0 14.826452 6.523124 1.596980
USER    NEWDPF quaternion0 0.092772 -0.771548 -0.125934 -0.616642
USER    NEWDPF axisangle0 0.117844 -0.980063 -0.159969 -103.857347
USER    NEWDPF quat0 0.117844 -0.980063 -0.159969 -103.857347
USER    NEWDPF dihe0 -51.16 -179.21 -158.67 -144.69 163.76 17.55 101.39 122.93 -180.00 179.10 -133.45 -174.63 -179.96 55.39 -134.31 64.23 -51.28 180.00 
USER  keepresnum = 1 
USER  
REMARK  18 active torsions:
REMARK  status: ('A' for Active; 'I' for Inactive)
REMARK    1  A    between atoms: C3_3  and  N12_51 
REMARK    2  A    between atoms: C5_5  and  C6_6 
REMARK       I    between atoms: C6_6  and  N2_40 
REMARK    3  A    between atoms: C7_7  and  N2_40 
REMARK    4  A    between atoms: C9_9  and  N4_42 
REMARK    5  A    between atoms: C11_11  and  C12_12 
REMARK       I    between atoms: C11_11  and  N4_42 
REMARK    6  A    between atoms: C16_16  and  C18_18 
REMARK       I    between atoms: C18_18  and  N5_43 
REMARK    7  A    between atoms: C19_19  and  N5_43 
REMARK    8  A    between atoms: C21_21  and  C23_23 
REMARK       I    between atoms: C23_23  and  N7_45 
REMARK    9  A    between atoms: C24_24  and  N7_45 
REMARK   10  A    between atoms: C26_26  and  C28_28 
REMARK       I    between atoms: C28_28  and  N9_47 
REMARK   11  A    between atoms: C29_29  and  C30_30 
REMARK   12  A    between atoms: C29_29  and  N9_47 
REMARK   13  A    between atoms: C30_30  and  C31_31 
REMARK   14  A    between atoms: C31_31  and  N10_48 
REMARK   15  A    between atoms: C35_35  and  C36_36 
REMARK       I    between atoms: C35_35  and  N12_51 
REMARK   16  A    between atoms: C36_36  and  C37_37 
REMARK   17  A    between atoms: C37_37  and  C38_38 
REMARK   18  A    between atoms: C38_38  and  N14_54 
USER                              x       y       z     vdW  Elec       q    Type
USER                           _______ _______ _______ _____ _____    ______ ____
ROOT
ATOM      1  C12 UNL     1      15.755   8.947   4.076 -0.40 +0.00    +0.033 A 
ATOM      2  C13 UNL     1      16.028   9.914   5.052 +4.66 +0.00    +0.017 A 
ATOM      3  C14 UNL     1      17.211  10.650   4.992 +1.30 +0.00    +0.002 A 
ATOM      4  C15 UNL     1      18.113  10.436   3.948 +0.73 +0.00    +0.017 A 
ATOM      5  C16 UNL     1      17.831   9.494   2.949 -0.46 +0.00    +0.033 A 
ATOM      6  C17 UNL     1      16.655   8.740   3.020 -0.51 +0.00    +0.034 A 
ENDROOT
BRANCH   1   7
ATOM      7  C11 UNL     1      14.502   8.140   4.101 -0.36 +0.00    +0.257 C 
ATOM      8  N4  UNL     1      14.574   6.992   4.863 -0.26 -0.00    -0.309 N 
ATOM      9  H34 UNL     1      15.501   6.665   5.112 +0.10 +0.00    +0.170 HD
ATOM     10  O2  UNL     1      13.565   8.527   3.416 -0.28 -0.00    -0.267 OA
BRANCH   8  11
ATOM     11  C9  UNL     1      13.553   6.076   5.067 -0.22 +0.00    +0.111 A 
ATOM     12  C10 UNL     1      12.490   5.888   4.197 +0.28 +0.00    +0.079 A 
ATOM     13  C7  UNL     1      11.626   4.906   4.738 -0.08 +0.00    +0.054 A 
ATOM     14  C8  UNL     1      12.202   4.490   5.911 -0.36 +0.00    +0.121 A 
ATOM     15  N3  UNL     1      13.391   5.167   6.089 -0.24 -0.00    -0.345 N 
ATOM     16  C34 UNL     1      14.320   4.797   7.134 -0.22 +0.00    +0.157 C 
BRANCH  13  17
ATOM     17  N2  UNL     1      10.443   4.483   4.160 -0.12 -0.00    -0.320 N 
ATOM     18  C6  UNL     1       9.891   4.964   2.986 +0.00 +0.00    +0.273 C 
ATOM     19  O1  UNL     1      10.375   5.870   2.313 -0.17 -0.00    -0.266 OA
ATOM     20  H33 UNL     1       9.938   3.774   4.669 +0.09 +0.00    +0.169 HD
BRANCH  18  21
ATOM     21  C5  UNL     1       8.640   4.307   2.604 -0.14 +0.00    +0.105 A 
ATOM     22  C4  UNL     1       8.146   3.984   1.343 -0.11 +0.00    +0.066 A 
ATOM     23  C3  UNL     1       6.889   3.353   1.486 -0.10 +0.00    +0.052 A 
ATOM     24  C2  UNL     1       6.620   3.305   2.831 -0.14 +0.00    +0.120 A 
ATOM     25  N1  UNL     1       7.669   3.887   3.500 -0.07 -0.00    -0.354 N 
ATOM     26  C1  UNL     1       7.731   4.016   4.943 -0.27 +0.00    +0.156 C 
BRANCH  23  27
ATOM     27  N12 UNL     1       6.026   2.853   0.531 -0.01 -0.00    -0.326 N 
ATOM     28  C35 UNL     1       4.812   2.246   0.798 -0.08 +0.00    +0.222 C 
ATOM     29  O6  UNL     1       4.330   2.051   1.914 -0.08 -0.00    -0.273 OA
ATOM     30  H41 UNL     1       6.325   2.939  -0.432 +0.05 +0.00    +0.169 HD
BRANCH  28  31
ATOM     31  C36 UNL     1       4.110   1.815  -0.481 -0.11 +0.00    +0.110 C 
BRANCH  31  32
ATOM     32  C37 UNL     1       3.449   2.980  -1.206 -0.11 +0.00    +0.078 C 
BRANCH  32  33
ATOM     33  C38 UNL     1       4.420   3.610  -2.181 -0.12 +0.00    +0.047 C 
ATOM     34  N13 UNL     1       4.172   3.538  -3.444 -0.03 -0.00    -0.394 N 
ATOM     35  H42 UNL     1       4.931   3.986  -3.963 +0.01 +0.00    +0.157 HD
ATOM     36  H13 UNL     1       3.349   3.102  -3.860 +0.02 +0.00    +0.157 HD
BRANCH  33  37
ATOM     37  N14 UNL     1       5.506   4.269  -1.693 +0.08 -0.00    -0.293 NA
ATOM     38  H43 UNL     1       5.286   5.188  -1.294 -0.50 +0.00    +0.125 HD
ATOM     39  H44 UNL     1       6.309   4.322  -2.307 -0.29 +0.00    +0.125 HD
ENDBRANCH  33  37
ENDBRANCH  32  33
ENDBRANCH  31  32
ENDBRANCH  28  31
ENDBRANCH  23  27
ENDBRANCH  18  21
ENDBRANCH  13  17
ENDBRANCH   8  11
ENDBRANCH   1   7
BRANCH   5  40
ATOM     40  C18 UNL     1      18.822   9.308   1.849 +0.08 +0.00    +0.256 C 
ATOM     41  N5  UNL     1      20.143   9.496   2.215 -0.11 -0.00    -0.322 N 
ATOM     42  H35 UNL     1      20.368   9.660   3.186 +0.12 +0.00    +0.169 HD
ATOM     43  O3  UNL     1      18.400   8.983   0.745 +0.28 -0.00    -0.267 OA
BRANCH  41  44
ATOM     44  C19 UNL     1      21.229   9.410   1.360 +0.09 +0.00    +0.053 A 
ATOM     45  C20 UNL     1      21.557  10.237   0.317 -0.36 +0.00    +0.120 A 
ATOM     46  N6  UNL     1      22.724   9.789  -0.244 -0.20 -0.00    -0.354 N 
ATOM     47  C21 UNL     1      23.167   8.650   0.411 -0.39 +0.00    +0.105 A 
ATOM     48  C33 UNL     1      23.370  10.426  -1.373 +3.66 +0.00    +0.156 C 
ATOM     49  C22 UNL     1      22.240   8.418   1.424 +0.50 +0.00    +0.066 A 
BRANCH  47  50
ATOM     50  C23 UNL     1      24.383   7.917   0.060 -0.29 +0.00    +0.273 C 
ATOM     51  N7  UNL     1      24.143   6.690  -0.531 -0.25 -0.00    -0.320 N 
ATOM     52  H36 UNL     1      23.189   6.432  -0.730 +0.11 +0.00    +0.169 HD
ATOM     53  O4  UNL     1      25.500   8.383   0.267 -0.24 -0.00    -0.266 OA
BRANCH  51  54
ATOM     54  C24 UNL     1      25.100   5.779  -0.938 -0.45 +0.00    +0.053 A 
ATOM     55  C25 UNL     1      24.932   4.626  -1.662 -0.28 +0.00    +0.120 A 
ATOM     56  N8  UNL     1      26.165   4.050  -1.860 -0.20 -0.00    -0.354 N 
ATOM     57  C26 UNL     1      27.138   4.789  -1.216 -0.26 +0.00    +0.104 A 
ATOM     58  C32 UNL     1      26.365   2.892  -2.708 -0.34 +0.00    +0.156 C 
ATOM     59  C27 UNL     1      26.486   5.892  -0.678 -0.32 +0.00    +0.066 A 
BRANCH  57  60
ATOM     60  C28 UNL     1      28.565   4.531  -1.135 -0.12 +0.00    +0.268 C 
ATOM     61  N9  UNL     1      29.361   5.652  -1.094 -0.02 -0.00    -0.355 N 
ATOM     62  H37 UNL     1      28.959   6.519  -1.446 +0.07 +0.00    +0.162 HD
ATOM     63  O5  UNL     1      29.039   3.399  -1.160 -0.12 -0.00    -0.266 OA
BRANCH  61  64
ATOM     64  C29 UNL     1      30.801   5.559  -1.222 -0.05 +0.00    +0.130 C 
BRANCH  64  65
ATOM     65  C30 UNL     1      31.378   4.469  -0.329 -0.07 +0.00    +0.095 C 
BRANCH  65  66
ATOM     66  C31 UNL     1      30.835   4.576   1.085 -0.22 +0.00    +0.069 C 
ATOM     67  N11 UNL     1      29.799   3.781   1.468 -0.06 -0.00    -0.389 N 
ATOM     68  H39 UNL     1      29.608   2.955   0.912 +0.07 +0.00    +0.157 HD
ATOM     69  H40 UNL     1      29.664   3.635   2.461 -0.32 +0.00    +0.157 HD
BRANCH  66  70
ATOM     70  N10 UNL     1      31.371   5.426   1.897 -0.11 -0.00    -0.389 N 
ATOM     71  H38 UNL     1      32.143   5.904   1.423 +0.05 +0.00    +0.157 HD
ATOM     72  H10 UNL     1      31.072   5.595   2.858 +0.04 +0.00    +0.157 HD
ENDBRANCH  66  70
ENDBRANCH  65  66
ENDBRANCH  64  65
ENDBRANCH  61  64
ENDBRANCH  57  60
ENDBRANCH  51  54
ENDBRANCH  47  50
ENDBRANCH  41  44
ENDBRANCH   5  40
TORSDOF 18
TER
