USER    Run = 1
USER    DPF = ligand_1_receptor.dpf
USER  
USER    Estimated Free Energy of Binding    =  +8.50e+005 kcal/mol  [=(1)+(2)+(3)-(4)]
USER    
USER    (1) Final Intermolecular Energy     =  +8.50e+005 kcal/mol
USER        vdW + Hbond + desolv Energy     =  +6.35e+005 kcal/mol
USER        Electrostatic Energy            =  +2.15e+005 kcal/mol
USER    (2) Final Total Internal Energy     =   +0.00 kcal/mol
USER    (3) Torsional Free Energy           =   +1.19 kcal/mol
USER    (4) Unbound System's Energy  [=(2)] =   +0.00 kcal/mol
USER    
USER    
USER    NEWDPF move ligand_1.pdbqt
USER    NEWDPF about 0.000000 0.000000 0.000000
USER    NEWDPF tran0 18.154081 6.319005 0.678361
USER    NEWDPF quaternion0 -0.168857 -0.195631 0.216103 -0.941549
USER    NEWDPF axisangle0 -0.501246 -0.580723 0.641492 -39.373153
USER    NEWDPF quat0 -0.501246 -0.580723 0.641492 -39.373153
USER  keepresnum = 1 
USER  
REMARK  0 active torsions:
REMARK  status: ('A' for Active; 'I' for Inactive)
REMARK       I    between atoms: C2_2  and  C3_3 
REMARK       I    between atoms: C3_3  and  C5_5 
REMARK       I    between atoms: C5_5  and  C6_6 
REMARK       I    between atoms: C5_5  and  N4_74 
REMARK       I    between atoms: C6_6  and  C7_7 
REMARK       I    between atoms: C6_6  and  O4_64 
REMARK       I    between atoms: C7_7  and  C8_8 
REMARK       I    between atoms: C8_8  and  N1_70 
REMARK       I    between atoms: C12_12  and  C13_13 
REMARK       I    between atoms: C13_13  and  C14_14 
REMARK       I    between atoms: C13_13  and  O3_63 
REMARK       I    between atoms: C14_14  and  C16_16 
REMARK       I    between atoms: C16_16  and  N2_71 
REMARK       I    between atoms: C17_17  and  C18_18 
REMARK       I    between atoms: C17_17  and  C25_25 
REMARK       I    between atoms: C17_17  and  N2_71 
REMARK       I    between atoms: C18_18  and  C19_19 
REMARK       I    between atoms: C31_31  and  C32_32 
REMARK       I    between atoms: C31_31  and  N4_74 
REMARK       I    between atoms: C32_32  and  C33_33 
REMARK       I    between atoms: C32_32  and  N5_75 
REMARK       I    between atoms: C36_36  and  C37_37 
REMARK       I    between atoms: C36_36  and  N5_75 
REMARK       I    between atoms: C37_37  and  C38_38 
REMARK       I    between atoms: C37_37  and  N6_76 
REMARK       I    between atoms: C42_42  and  C43_43 
REMARK       I    between atoms: C42_42  and  N6_76 
REMARK       I    between atoms: C43_43  and  C44_44 
REMARK       I    between atoms: C47_47  and  N7_77 
REMARK       I    between atoms: C50_50  and  C51_51 
REMARK       I    between atoms: C50_50  and  N7_77 
REMARK       I    between atoms: C51_51  and  C52_52 
REMARK       I    between atoms: C51_51  and  N10_80 
REMARK       I    between atoms: C52_52  and  C53_53 
REMARK       I    between atoms: C53_53  and  C54_54 
REMARK       I    between atoms: C54_54  and  N8_78 
REMARK       I    between atoms: C55_55  and  N8_78 
REMARK       I    between atoms: C55_55  and  N9_79 
REMARK       I    between atoms: C56_56  and  C57_57 
REMARK       I    between atoms: C56_56  and  N10_80 
REMARK       I    between atoms: C57_57  and  C58_58 
REMARK       I    between atoms: C57_57  and  N11_81 
USER                              x       y       z     vdW  Elec       q    Type
USER                           _______ _______ _______ _____ _____    ______ ____
ROOT
ATOM      1  C1  UNL     1      17.364   0.900  -1.138+99.99 +0.00    +0.005 C 
ATOM      2  C2  UNL     1      18.122   2.218  -1.216+99.99 +0.00    +0.002 C 
ATOM      3  C3  UNL     1      18.074   2.994  -2.551+99.99 +0.00    +0.006 C 
ATOM      4  C4  UNL     1      18.436   2.057  -3.720+99.99 +0.00    +0.012 C 
ATOM      5  C5  UNL     1      16.805   3.842  -2.926+99.99 +0.00    +0.119 C 
ATOM      6  C6  UNL     1      15.392   3.376  -2.451+99.99 +0.00    +0.152 C 
ATOM      7  C7  UNL     1      15.017   3.687  -1.002+99.99 +0.00    +0.137 C 
ATOM      8  C8  UNL     1      13.828   2.865  -0.536+99.99 +0.00    +0.222 C 
ATOM      9  C9  UNL     1      13.786   4.248   1.584+99.99 +0.00    +0.126 C 
ATOM     10  C10 UNL     1      12.755   4.342   2.695+99.99 +0.00    +0.022 C 
ATOM     11  C11 UNL     1      12.128   2.954   2.712+99.99 +0.00    +0.029 C 
ATOM     12  C12 UNL     1      12.125   2.518   1.239+99.99 +0.00    +0.117 C 
ATOM     13  C13 UNL     1      10.789   2.790   0.479+99.99 +0.00    +0.156 C 
ATOM     14  C14 UNL     1       9.598   1.951   1.003 +0.18 +0.00    +0.105 C 
ATOM     15  C15 UNL     1       9.916   0.467   1.191 -0.41 +0.00    +0.022 C 
ATOM     16  C16 UNL     1       8.419   2.051   0.036 -0.10 +0.00    +0.224 C 
ATOM     17  C17 UNL     1       5.961   1.762  -0.153 -0.12 +0.00    +0.146 C 
ATOM     18  C18 UNL     1       5.824   0.431  -0.922 +0.04 +0.00    +0.070 C 
ATOM     19  C19 UNL     1       4.701   0.434  -1.933 -0.00 -0.00    -0.056 A 
ATOM     20  C20 UNL     1       4.858   1.095  -3.158 -0.07 +0.00    +0.007 A 
ATOM     21  C21 UNL     1       3.816   1.118  -4.087 -0.03 +0.00    +0.001 A 
ATOM     22  C22 UNL     1       2.610   0.483  -3.798 -0.04 +0.00    +0.000 A 
ATOM     23  C23 UNL     1       2.445  -0.178  -2.581 -0.09 +0.00    +0.001 A 
ATOM     24  C24 UNL     1       3.486  -0.203  -1.653 +1.57 +0.00    +0.007 A 
ATOM     25  C25 UNL     1       4.832   1.938   0.841 -0.12 +0.00    +0.073 A 
ATOM     26  C26 UNL     1       3.626   1.713   2.677 -0.14 +0.00    +0.096 A 
ATOM     27  C27 UNL     1       2.829   2.621   2.018 -0.07 +0.00    +0.068 A 
ATOM     28  C28 UNL     1      10.620   4.949  -0.525 -0.15 +0.00    +0.202 C 
ATOM     29  C29 UNL     1      13.874   3.256  -4.301+99.99+99.99    +0.202 C 
ATOM     30  C30 UNL     1      16.861   6.069  -4.051+14.31 +0.00    +0.153 C 
ATOM     31  C31 UNL     1      17.279   5.908  -1.584+99.99 +0.00    +0.243 C 
ATOM     32  C32 UNL     1      17.386   7.450  -1.379 +6.02 +0.00    +0.180 C 
ATOM     33  C33 UNL     1      16.272   8.378  -1.914 +5.98 +0.00    +0.009 C 
ATOM     34  C34 UNL     1      16.406   9.791  -1.324+86.28 +0.00    +0.012 C 
ATOM     35  C35 UNL     1      14.880   7.836  -1.566+99.99 +0.00    +0.012 C 
ATOM     36  C36 UNL     1      19.347   8.380  -2.714+99.99 +0.00    +0.241 C 
ATOM     37  C37 UNL     1      20.915   8.360  -2.687+99.99 +0.00    +0.174 C 
ATOM     38  C38 UNL     1      21.462   8.382  -4.151+99.99 +0.00    +0.009 C 
ATOM     39  C39 UNL     1      22.966   8.643  -4.231+99.99 +0.00    +0.012 C 
ATOM     40  C40 UNL     1      21.095   7.173  -5.020+99.99+99.99    +0.012 C 
ATOM     41  C41 UNL     1      21.690   6.012  -2.168+99.99 +0.00    +0.144 C 
ATOM     42  C42 UNL     1      22.149   7.823  -0.571 +0.86 +0.00    +0.121 C 
ATOM     43  C43 UNL     1      23.619   8.151  -0.864 -0.46 +0.00    +0.058 C 
ATOM     44  C44 UNL     1      24.368   8.516   0.395 -0.36 -0.00    -0.057 A 
ATOM     45  C45 UNL     1      24.397   9.839   0.849 +1.30 +0.00    +0.009 A 
ATOM     46  C46 UNL     1      25.074  10.178   2.026 -0.38 +0.00    +0.030 A 
ATOM     47  C47 UNL     1      25.731   9.199   2.771 -0.58 +0.00    +0.034 A 
ATOM     48  C48 UNL     1      25.697   7.874   2.321 -0.48 +0.00    +0.030 A 
ATOM     49  C49 UNL     1      25.021   7.533   1.145 -0.41 +0.00    +0.009 A 
ATOM     50  C50 UNL     1      26.636  10.679   4.583+99.99 +0.00    +0.245 C 
ATOM     51  C51 UNL     1      27.405  10.562   5.923+99.99 +0.00    +0.177 C 
ATOM     52  C52 UNL     1      26.434  10.151   7.037+99.99 +0.00    +0.036 C 
ATOM     53  C53 UNL     1      27.091   9.482   8.253+99.99 +0.00    +0.022 C 
ATOM     54  C54 UNL     1      27.935  10.407   9.127 +4.42 +0.00    +0.124 C 
ATOM     55  C55 UNL     1      30.199  11.229   9.410+45.29 +0.00    +0.313 C 
ATOM     56  C56 UNL     1      29.294  12.139   5.737+99.99 +0.00    +0.251 C 
ATOM     57  C57 UNL     1      29.649  13.646   5.760+16.56 +0.00    +0.312 C 
ATOM     58  C58 UNL     1      30.990  13.966   5.057 +0.26 +0.00    +0.020 C 
ATOM     59  C59 UNL     1      31.103  15.467   4.762+99.99+99.99    +0.012 C 
ATOM     60  C60 UNL     1      32.236  13.509   5.825 -0.31 +0.00    +0.012 C 
ATOM     61  O1  UNL     1      13.407   1.891  -1.161 +6.41 -0.00    -0.273 OA
ATOM     62  O2  UNL     1       8.529   2.284  -1.164 -0.06 -0.00    -0.273 OA
ATOM     63  O3  UNL     1      10.414   4.175   0.653 +5.59 -0.00    -0.388 OA
ATOM     64  O4  UNL     1      14.410   4.074  -3.267+99.99 -0.00    -0.388 OA
ATOM     65  O5  UNL     1      17.512   5.203  -0.591+99.99 -0.00    -0.271 OA
ATOM     66  O6  UNL     1      18.702   8.881  -3.630+53.20 -0.00    -0.271 OA
ATOM     67  O7  UNL     1      26.233  11.773   4.189+93.03 -0.00    -0.271 OA
ATOM     68  O8  UNL     1      30.026  11.622  10.552 -0.29 -0.00    -0.248 OA
ATOM     69  O9  UNL     1      30.069  11.239   5.431+99.99 -0.00    -0.271 OA
ATOM     70  N1  UNL     1      13.262   3.247   0.666+99.99 -0.00    -0.345 N 
ATOM     71  N2  UNL     1       7.203   1.786   0.619 -0.05 -0.00    -0.350 N 
ATOM     72  N3  UNL     1       4.773   1.328   2.012 -0.09 -0.00    -0.361 N 
ATOM     73  H3  UNL     1       5.468   0.671   2.368 +0.06 +0.00    +0.165 HD
ATOM     74  N4  UNL     1      17.042   5.319  -2.815+99.99 -0.00    -0.347 N 
ATOM     75  N5  UNL     1      18.779   7.848  -1.580+19.46 -0.00    -0.346 N 
ATOM     76  N6  UNL     1      21.348   7.339  -1.700 +0.64 -0.00    -0.404 N 
ATOM     77  N7  UNL     1      26.433   9.454   3.968 +2.00 -0.00    -0.325 N 
ATOM     78  N8  UNL     1      29.294  10.540   8.655+92.09 -0.00    -0.343 N 
ATOM     79  N9  UNL     1      31.348  11.473   8.733+99.99 -0.00    -0.352 N 
ATOM     80  N10 UNL     1      28.006  11.870   6.183+99.99 -0.00    -0.346 N 
ATOM     81  N11 UNL     1      29.593  14.140   7.151 -0.46 +0.00    +0.092 N 
ATOM     82  S1  UNL     1       3.533   3.020   0.507 -0.19 -0.00    -0.085 SA
ATOM     83  H87 UNL     1       7.137   1.525   1.597 +0.06 +0.00    +0.163 HD
ATOM     84  H88 UNL     1      19.462   7.341  -1.018+90.84 +0.00    +0.163 HD
ATOM     85  H89 UNL     1      26.872   8.648   4.395 +1.88 +0.00    +0.169 HD
ATOM     86  H90 UNL     1      29.435  10.667   7.661 +1.77 +0.00    +0.164 HD
ATOM     87  H91 UNL     1      32.087  11.842   9.318 -0.23 +0.00    +0.160 HD
ATOM     88  H92 UNL     1      31.645  10.763   8.074+99.99 +0.00    +0.160 HD
ATOM     89  H93 UNL     1      27.360  12.649   6.084+35.08 +0.00    +0.163 HD
ATOM     90  H94 UNL     1      28.709  13.861   7.578 +0.04 +0.00    +0.313 HD
ATOM     91  H95 UNL     1      30.306  13.656   7.705 +0.19 +0.00    +0.313 HD
ENDROOT
TORSDOF 34
TER
