USER    Run = 1
USER    DPF = ligand_180_receptor.dpf
USER  
USER    Estimated Free Energy of Binding    =  +15.00 kcal/mol  [=(1)+(2)+(3)-(4)]
USER    
USER    (1) Final Intermolecular Energy     =  +13.81 kcal/mol
USER        vdW + Hbond + desolv Energy     =  +13.81 kcal/mol
USER        Electrostatic Energy            =   +0.00 kcal/mol
USER    (2) Final Total Internal Energy     =  +89.29 kcal/mol
USER    (3) Torsional Free Energy           =   +1.19 kcal/mol
USER    (4) Unbound System's Energy  [=(2)] =  +89.29 kcal/mol
USER    
USER    
USER    NEWDPF move ligand_180.pdbqt
USER    NEWDPF about 0.000000 0.000000 0.000000
USER    NEWDPF tran0 20.990753 9.832190 2.273700
USER    NEWDPF quaternion0 -0.283000 -0.079393 0.703388 -0.647189
USER    NEWDPF axisangle0 -0.371231 -0.104145 0.922682 -99.340063
USER    NEWDPF quat0 -0.371231 -0.104145 0.922682 -99.340063
USER    NEWDPF dihe0 -180.00 117.37 112.20 173.28 -180.00 -178.18 99.71 80.41 119.72 -43.92 6.10 -134.39 -177.54 65.10 179.55 163.17 180.00 133.28 -165.19 -36.44 -127.54 -9.98 127.79 180.00 -12.50 180.00 3.87 -165.49 -180.00 -104.33 
USER  keepresnum = 1 
USER  
REMARK  30 active torsions:
REMARK  status: ('A' for Active; 'I' for Inactive)
REMARK    1  A    between atoms: C2_2  and  O1_50 
REMARK    2  A    between atoms: C5_5  and  O1_50 
REMARK       I    between atoms: C5_5  and  N1_60 
REMARK    3  A    between atoms: C10_10  and  C11_11 
REMARK    4  A    between atoms: C11_11  and  C12_12 
REMARK    5  A    between atoms: C12_12  and  C13_13 
REMARK    6  A    between atoms: C13_13  and  C14_14 
REMARK    7  A    between atoms: C14_14  and  C15_15 
REMARK       I    between atoms: C15_15  and  N4_64 
REMARK    8  A    between atoms: C16_16  and  C17_17 
REMARK    9  A    between atoms: C16_16  and  N4_64 
REMARK   10  A    between atoms: C17_17  and  C18_18 
REMARK   11  A    between atoms: C18_18  and  C19_19 
REMARK   12  A    between atoms: C19_19  and  C20_20 
REMARK   13  A    between atoms: C20_20  and  C21_21 
REMARK       I    between atoms: C21_21  and  N5_65 
REMARK   14  A    between atoms: C22_22  and  N5_65 
REMARK   15  A    between atoms: C24_24  and  N6_66 
REMARK   16  A    between atoms: C26_26  and  C28_28 
REMARK   17  A    between atoms: C28_28  and  O6_55 
REMARK   18  A    between atoms: C29_29  and  C30_30 
REMARK       I    between atoms: C29_29  and  N6_66 
REMARK   19  A    between atoms: C30_30  and  C31_31 
REMARK   20  A    between atoms: C31_31  and  C32_32 
REMARK   21  A    between atoms: C32_32  and  C33_33 
REMARK   22  A    between atoms: C33_33  and  C34_34 
REMARK   23  A    between atoms: C34_34  and  N7_67 
REMARK   24  A    between atoms: C35_35  and  C36_36 
REMARK       I    between atoms: C35_35  and  N7_67 
REMARK   25  A    between atoms: C36_36  and  C37_37 
REMARK   26  A    between atoms: C37_37  and  C38_38 
REMARK   27  A    between atoms: C38_38  and  C39_39 
REMARK   28  A    between atoms: C39_39  and  C40_40 
REMARK   29  A    between atoms: C45_45  and  O10_59 
REMARK       I    between atoms: C45_45  and  N10_71 
REMARK   30  A    between atoms: C46_46  and  O10_59 
USER                              x       y       z     vdW  Elec       q    Type
USER                           _______ _______ _______ _____ _____    ______ ____
ROOT
ATOM      1  C22 UNL     1      16.003   8.624   1.612 -0.36 +0.00    +0.037 A 
ATOM      2  C23 UNL     1      16.657   9.770   2.091 -0.44 +0.00    +0.059 A 
ATOM      3  C24 UNL     1      17.353  10.625   1.232 -0.47 +0.00    +0.037 A 
ATOM      4  C25 UNL     1      17.400  10.318  -0.131 -0.28 +0.00    +0.048 A 
ATOM      5  C26 UNL     1      16.754   9.176  -0.624 +0.01 +0.00    +0.042 A 
ATOM      6  C27 UNL     1      16.055   8.333   0.249 -0.44 +0.00    +0.048 A 
ENDROOT
BRANCH   1   7
ATOM      7  N5  UNL     1      15.331   7.831   2.566 +0.48 -0.00    -0.327 N 
ATOM      8  C21 UNL     1      15.269   8.023   3.933 -0.41 +0.00    +0.222 C 
ATOM      9  O4  UNL     1      15.817   8.915   4.573 -0.23 -0.00    -0.273 OA
ATOM     10  H72 UNL     1      14.848   7.018   2.201 +1.42 +0.00    +0.169 HD
BRANCH   8  11
ATOM     11  C20 UNL     1      14.416   6.982   4.636 -0.39 +0.00    +0.103 C 
BRANCH  11  12
ATOM     12  C19 UNL     1      12.932   7.090   4.282 -0.49 +0.00    +0.009 C 
BRANCH  12  13
ATOM     13  C18 UNL     1      12.233   8.220   5.045 -0.32 +0.00    +0.002 C 
BRANCH  13  14
ATOM     14  C17 UNL     1      12.435   8.136   6.560 -0.50 +0.00    +0.020 C 
BRANCH  14  15
ATOM     15  C16 UNL     1      11.949   6.818   7.161 -0.24 +0.00    +0.122 C 
BRANCH  15  16
ATOM     16  N4  UNL     1      11.650   5.852   6.126 -0.09 -0.00    -0.361 N 
ATOM     17  C15 UNL     1      10.370   5.680   5.646 -0.21 +0.00    +0.217 C 
ATOM     18  O3  UNL     1       9.416   6.373   5.986 +0.05 -0.00    -0.274 OA
ATOM     19  H71 UNL     1      12.361   5.178   5.874 +0.12 +0.00    +0.162 HD
BRANCH  17  20
ATOM     20  C14 UNL     1      10.233   4.537   4.663 -0.31 +0.00    +0.103 C 
BRANCH  20  21
ATOM     21  C13 UNL     1      10.114   5.058   3.232 -0.17 +0.00    +0.009 C 
BRANCH  21  22
ATOM     22  C12 UNL     1      10.259   6.577   3.183 -0.36 +0.00    +0.002 C 
BRANCH  22  23
ATOM     23  C11 UNL     1       9.797   7.233   1.875 -0.34 +0.00    +0.017 C 
BRANCH  23  24
ATOM     24  C10 UNL     1       8.366   6.993   1.376 -0.33 +0.00    +0.071 C 
ATOM     25  C7  UNL     1       7.237   7.417   2.321 -0.35 +0.00    +0.116 C 
ATOM     26  C8  UNL     1       5.914   7.441   1.528 -0.16 +0.00    +0.096 C 
ATOM     27  N2  UNL     1       7.048   6.378   3.376 -0.05 -0.00    -0.359 N 
ATOM     28  C9  UNL     1       6.164   7.674   0.045 -0.08 +0.00    +0.096 C 
ATOM     29  N3  UNL     1       5.386   6.116   1.838 -0.15 -0.00    -0.257 NA
ATOM     30  S1  UNL     1       7.955   7.824  -0.187 -0.47 -0.00    -0.161 SA
ATOM     31  C6  UNL     1       6.006   5.703   2.985 -0.17 +0.00    +0.158 C 
ATOM     32  H70 UNL     1       4.378   6.023   1.811 +0.02 +0.00    +0.131 HD
ATOM     33  N1  UNL     1       5.497   4.630   3.649 -0.06 -0.00    -0.279 N 
ATOM     34  C5  UNL     1       5.978   4.045   4.793 -0.12 +0.00    +0.367 C 
ATOM     35  H69 UNL     1       4.768   4.105   3.200 +0.06 +0.00    +0.173 HD
ATOM     36  O2  UNL     1       6.837   4.466   5.547 -0.23 -0.00    -0.238 OA
ATOM     37  H2  UNL     1       7.609   6.230   4.214 +0.08 +0.00    +0.162 HD
BRANCH  34  38
ATOM     38  O1  UNL     1       5.283   2.891   4.980 -0.19 -0.00    -0.294 OA
BRANCH  38  39
ATOM     39  C2  UNL     1       4.253   2.481   4.042 -0.23 +0.00    +0.061 C 
ATOM     40  C1  UNL     1       3.199   3.596   4.113 -0.13 +0.00    +0.046 C 
ATOM     41  C3  UNL     1       3.599   1.163   4.470 -0.32 +0.00    +0.046 C 
ATOM     42  C4  UNL     1       4.797   2.415   2.610 -0.18 +0.00    +0.046 C 
ENDBRANCH  38  39
ENDBRANCH  34  38
ENDBRANCH  23  24
ENDBRANCH  22  23
ENDBRANCH  21  22
ENDBRANCH  20  21
ENDBRANCH  17  20
ENDBRANCH  15  16
ENDBRANCH  14  15
ENDBRANCH  13  14
ENDBRANCH  12  13
ENDBRANCH  11  12
ENDBRANCH   8  11
ENDBRANCH   1   7
BRANCH   3  43
ATOM     43  N6  UNL     1      18.024  11.793   1.651 -0.29 -0.00    -0.327 N 
ATOM     44  C29 UNL     1      17.628  13.110   1.464 -0.05 +0.00    +0.222 C 
ATOM     45  O7  UNL     1      16.619  13.488   0.881 +1.10 -0.00    -0.273 OA
ATOM     46  H73 UNL     1      18.901  11.653   2.139 +0.15 +0.00    +0.169 HD
BRANCH  44  47
ATOM     47  C30 UNL     1      18.635  14.081   2.066 +1.58 +0.00    +0.103 C 
BRANCH  47  48
ATOM     48  C31 UNL     1      20.001  13.436   2.297 +5.17 +0.00    +0.009 C 
BRANCH  48  49
ATOM     49  C32 UNL     1      20.030  11.943   1.953 -0.56 +0.00    +0.002 C 
BRANCH  49  50
ATOM     50  C33 UNL     1      20.196  11.046   3.183 +4.94 +0.00    +0.020 C 
BRANCH  50  51
ATOM     51  C34 UNL     1      19.850   9.585   2.894 -0.25 +0.00    +0.122 C 
BRANCH  51  52
ATOM     52  N7  UNL     1      20.198   9.204   1.541 +1.58 -0.00    -0.361 N 
ATOM     53  C35 UNL     1      21.197   9.829   0.830 -0.25 +0.00    +0.217 C 
ATOM     54  O8  UNL     1      21.883  10.743   1.277 +0.58 -0.00    -0.274 OA
ATOM     55  H74 UNL     1      19.620   8.508   1.084 +2.96 +0.00    +0.162 HD
BRANCH  53  56
ATOM     56  C36 UNL     1      21.382   9.299  -0.578 +1.25 +0.00    +0.103 C 
BRANCH  56  57
ATOM     57  C37 UNL     1      22.656   8.465  -0.733 -0.03 +0.00    +0.009 C 
BRANCH  57  58
ATOM     58  C38 UNL     1      23.549   8.392   0.512 -0.54 +0.00    +0.002 C 
BRANCH  58  59
ATOM     59  C39 UNL     1      24.478   7.170   0.521 -0.49 +0.00    +0.017 C 
BRANCH  59  60
ATOM     60  C40 UNL     1      25.982   7.473   0.581 -0.40 +0.00    +0.071 C 
ATOM     61  C41 UNL     1      26.777   6.637   1.594 +0.36 +0.00    +0.116 C 
ATOM     62  C42 UNL     1      28.085   7.371   1.924 -0.13 +0.00    +0.096 C 
ATOM     63  N9  UNL     1      27.208   5.366   0.933 +0.27 -0.00    -0.359 N 
ATOM     64  C43 UNL     1      27.902   8.876   1.833 +0.87 +0.00    +0.096 C 
ATOM     65  N8  UNL     1      28.976   6.802   0.918 -0.16 -0.00    -0.257 NA
ATOM     66  S2  UNL     1      26.323   9.212   1.003 -0.00 -0.00    -0.161 SA
ATOM     67  C44 UNL     1      28.438   5.592   0.571 -0.11 +0.00    +0.158 C 
ATOM     68  H75 UNL     1      29.962   6.804   1.150 +0.06 +0.00    +0.131 HD
ATOM     69  N10 UNL     1      29.211   4.705  -0.110 -0.08 -0.00    -0.279 N 
ATOM     70  C45 UNL     1      28.859   3.462  -0.571 -0.12 +0.00    +0.367 C 
ATOM     71  H76 UNL     1      30.113   5.014  -0.430 +0.07 +0.00    +0.173 HD
ATOM     72  O9  UNL     1      27.837   2.839  -0.344 -0.05 -0.00    -0.238 OA
ATOM     73  H9  UNL     1      26.662   4.515   0.797 +0.09 +0.00    +0.162 HD
BRANCH  70  74
ATOM     74  O10 UNL     1      29.890   3.004  -1.331 -0.08 -0.00    -0.294 OA
BRANCH  74  75
ATOM     75  C46 UNL     1      31.097   3.795  -1.499 -0.06 +0.00    +0.061 C 
ATOM     76  C47 UNL     1      31.627   4.299  -0.153 -0.09 +0.00    +0.046 C 
ATOM     77  C48 UNL     1      32.163   3.026  -2.286 -0.05 +0.00    +0.046 C 
ATOM     78  C49 UNL     1      30.652   5.006  -2.333 -0.07 +0.00    +0.046 C 
ENDBRANCH  74  75
ENDBRANCH  70  74
ENDBRANCH  59  60
ENDBRANCH  58  59
ENDBRANCH  57  58
ENDBRANCH  56  57
ENDBRANCH  53  56
ENDBRANCH  51  52
ENDBRANCH  50  51
ENDBRANCH  49  50
ENDBRANCH  48  49
ENDBRANCH  47  48
ENDBRANCH  44  47
ENDBRANCH   3  43
BRANCH   5  79
ATOM     79  C28 UNL     1      16.791   8.827  -2.066 +1.98 +0.00    +0.176 C 
ATOM     80  O5  UNL     1      17.233   9.515  -2.965 +1.45 -0.00    -0.646 OA
BRANCH  79  81
ATOM     81  O6  UNL     1      16.265   7.614  -2.320 +0.22 -0.00    -0.773 OA
ATOM     82  H68 UNL     1      15.996   7.298  -1.431 +0.07 +0.00    +0.167 HD
ENDBRANCH  79  81
ENDBRANCH   5  79
TORSDOF 30
TER
