USER    Run = 1
USER    DPF = ligand_368_receptor.dpf
USER  
USER    Estimated Free Energy of Binding    =  -12.62 kcal/mol  [=(1)+(2)+(3)-(4)]
USER    Estimated Inhibition Constant, Ki   =  560.86 pM (picomolar)  [Temperature = 298.15 K]
USER    
USER    (1) Final Intermolecular Energy     =  -13.81 kcal/mol
USER        vdW + Hbond + desolv Energy     =  -13.81 kcal/mol
USER        Electrostatic Energy            =   +0.00 kcal/mol
USER    (2) Final Total Internal Energy     =   -3.09 kcal/mol
USER    (3) Torsional Free Energy           =   +1.19 kcal/mol
USER    (4) Unbound System's Energy  [=(2)] =   -3.09 kcal/mol
USER    
USER    
USER    NEWDPF move ligand_368.pdbqt
USER    NEWDPF about 0.000000 0.000000 0.000000
USER    NEWDPF tran0 18.415595 8.464544 2.170860
USER    NEWDPF quaternion0 0.185267 0.226622 0.241163 -0.925288
USER    NEWDPF axisangle0 0.488492 0.597531 0.635872 -44.576240
USER    NEWDPF quat0 0.488492 0.597531 0.635872 -44.576240
USER    NEWDPF dihe0 163.27 152.46 113.77 -138.83 155.61 179.92 -179.72 178.70 58.83 21.29 -94.71 141.82 64.25 79.70 -154.05 
USER  keepresnum = 1 
USER  
REMARK  15 active torsions:
REMARK  status: ('A' for Active; 'I' for Inactive)
REMARK    1  A    between atoms: C3_3  and  N9_40 
REMARK    2  A    between atoms: C5_5  and  C6_6 
REMARK       I    between atoms: C6_6  and  N2_33 
REMARK    3  A    between atoms: C7_7  and  N2_33 
REMARK    4  A    between atoms: C9_9  and  C11_11 
REMARK       I    between atoms: C11_11  and  N4_35 
REMARK    5  A    between atoms: C12_12  and  N4_35 
REMARK    6  A    between atoms: C14_14  and  C16_16 
REMARK    7  A    between atoms: C16_16  and  C17_17 
REMARK       I    between atoms: C17_17  and  N6_37 
REMARK    8  A    between atoms: C18_18  and  C19_19 
REMARK    9  A    between atoms: C18_18  and  N6_37 
REMARK   10  A    between atoms: C19_19  and  C20_20 
REMARK   11  A    between atoms: C20_20  and  N7_38 
REMARK       I    between atoms: C21_21  and  N7_38 
REMARK       I    between atoms: C21_21  and  N8_39 
REMARK   12  A    between atoms: C23_23  and  C24_24 
REMARK       I    between atoms: C23_23  and  N9_40 
REMARK   13  A    between atoms: C26_26  and  C28_28 
REMARK   14  A    between atoms: C28_28  and  N11_42 
REMARK   15  A    between atoms: C29_29  and  C30_30 
REMARK       I    between atoms: C29_29  and  N11_42 
USER                              x       y       z     vdW  Elec       q    Type
USER                           _______ _______ _______ _____ _____    ______ ____
ROOT
ATOM      1  C7  UNL     1      16.421  10.011   2.491 -0.43 +0.00    +0.053 A 
ATOM      2  C8  UNL     1      16.534  11.376   2.379 -0.40 +0.00    +0.120 A 
ATOM      3  C9  UNL     1      18.548  10.517   1.846 -0.39 +0.00    +0.105 A 
ATOM      4  C10 UNL     1      17.680   9.472   2.129 -0.42 +0.00    +0.066 A 
ATOM      5  C22 UNL     1      18.228  13.007   1.574 -0.62 +0.00    +0.156 C 
ATOM      6  N3  UNL     1      17.802  11.674   1.947 -0.24 -0.00    -0.354 N 
ENDROOT
BRANCH   1   7
ATOM      7  N2  UNL     1      15.319   9.266   2.864 -0.18 -0.00    -0.320 N 
ATOM      8  C6  UNL     1      15.340   7.994   3.409 -0.29 +0.00    +0.273 C 
ATOM      9  O1  UNL     1      16.365   7.346   3.610 -0.96 -0.00    -0.266 OA
ATOM     10  H27 UNL     1      14.425   9.702   2.697 -0.44 +0.00    +0.169 HD
BRANCH   8  11
ATOM     11  C5  UNL     1      14.017   7.455   3.725 -0.38 +0.00    +0.105 A 
ATOM     12  C4  UNL     1      12.898   7.292   2.912 -0.33 +0.00    +0.066 A 
ATOM     13  C3  UNL     1      11.852   6.723   3.672 -0.34 +0.00    +0.053 A 
ATOM     14  C2  UNL     1      12.334   6.557   4.948 -0.29 +0.00    +0.120 A 
ATOM     15  N1  UNL     1      13.634   7.000   4.977 -0.21 -0.00    -0.354 N 
ATOM     16  C1  UNL     1      14.466   6.972   6.162 -0.06 +0.00    +0.156 C 
BRANCH  13  17
ATOM     17  N9  UNL     1      10.564   6.378   3.307 -0.13 -0.00    -0.320 N 
ATOM     18  C23 UNL     1       9.468   7.223   3.372 -0.24 +0.00    +0.272 C 
ATOM     19  O5  UNL     1       9.519   8.407   3.691 -0.40 -0.00    -0.266 OA
ATOM     20  H34 UNL     1      10.460   5.476   2.871 -0.02 +0.00    +0.169 HD
BRANCH  18  21
ATOM     21  C24 UNL     1       8.216   6.592   2.988 -0.22 +0.00    +0.101 A 
ATOM     22  C25 UNL     1       7.929   5.236   2.969 -0.16 +0.00    +0.045 A 
ATOM     23  C26 UNL     1       6.590   5.053   2.523 -0.14 -0.00    -0.023 A 
ATOM     24  C27 UNL     1       6.101   6.317   2.256 -0.21 +0.00    +0.097 A 
ATOM     25  N10 UNL     1       7.089   7.229   2.515 -0.15 -0.00    -0.361 N 
ATOM     26  H35 UNL     1       7.008   8.222   2.339 +0.06 +0.00    +0.165 HD
BRANCH  23  27
ATOM     27  C28 UNL     1       5.863   3.761   2.371 -0.09 +0.00    +0.162 C 
BRANCH  27  28
ATOM     28  N11 UNL     1       6.760   2.823   1.742 -0.03 -0.00    -0.352 N 
ATOM     29  C29 UNL     1       6.631   2.448   0.429 -0.06 +0.00    +0.258 C 
ATOM     30  O6  UNL     1       5.833   2.969  -0.346 -0.05 -0.00    -0.267 OA
ATOM     31  H36 UNL     1       7.367   2.281   2.343 +0.05 +0.00    +0.163 HD
BRANCH  29  32
ATOM     32  C30 UNL     1       7.544   1.331  -0.004 -0.18 +0.00    +0.069 C 
ATOM     33  C31 UNL     1       8.584   1.012   0.781 -0.30 +0.00    +0.037 C 
ATOM     34 BR1  UNL     1       7.231   0.419  -1.607 -0.36 -0.00    -0.046 Br
ENDBRANCH  29  32
ENDBRANCH  27  28
ENDBRANCH  23  27
ENDBRANCH  18  21
ENDBRANCH  13  17
ENDBRANCH   8  11
ENDBRANCH   1   7
BRANCH   3  35
ATOM     35  C11 UNL     1      19.943  10.403   1.457 -0.33 +0.00    +0.273 C 
ATOM     36  N4  UNL     1      20.690   9.659   2.350 -0.21 -0.00    -0.320 N 
ATOM     37  H28 UNL     1      20.204   9.178   3.092 +0.11 +0.00    +0.169 HD
ATOM     38  O2  UNL     1      20.363  10.893   0.416 -0.39 -0.00    -0.266 OA
BRANCH  36  39
ATOM     39  C12 UNL     1      22.047   9.426   2.255 -0.40 +0.00    +0.052 A 
ATOM     40  C13 UNL     1      22.689   9.251   1.050 -0.37 +0.00    +0.117 A 
ATOM     41  N5  UNL     1      24.021   9.039   1.299 -0.14 -0.00    -0.367 N 
ATOM     42  C14 UNL     1      24.243   9.066   2.657 -0.51 +0.00    +0.020 A 
ATOM     43  H29 UNL     1      24.734   8.859   0.600 +0.13 +0.00    +0.165 HD
ATOM     44  C15 UNL     1      23.028   9.309   3.268 -0.47 +0.00    +0.056 A 
BRANCH  42  45
ATOM     45  C16 UNL     1      25.605   8.872   3.238 -0.55 +0.00    +0.159 C 
BRANCH  45  46
ATOM     46  C17 UNL     1      26.447   7.993   2.323 -0.41 +0.00    +0.223 C 
ATOM     47  N6  UNL     1      25.811   6.854   1.879 -0.12 -0.00    -0.361 N 
ATOM     48  H30 UNL     1      24.823   6.743   2.075 +0.13 +0.00    +0.162 HD
ATOM     49  O3  UNL     1      27.593   8.297   2.002 -0.36 -0.00    -0.273 OA
BRANCH  47  50
ATOM     50  C18 UNL     1      26.420   5.943   0.928 -0.22 +0.00    +0.124 C 
BRANCH  50  51
ATOM     51  C19 UNL     1      26.251   6.404  -0.516 -0.41 +0.00    +0.039 C 
BRANCH  51  52
ATOM     52  C20 UNL     1      27.539   6.974  -1.109 -0.29 +0.00    +0.125 C 
BRANCH  52  53
ATOM     53  N7  UNL     1      28.459   7.419  -0.078 -0.12 -0.00    -0.348 N 
ATOM     54  C21 UNL     1      29.571   8.145  -0.386 -0.15 +0.00    +0.291 C 
ATOM     55  N8  UNL     1      30.326   8.408   0.711 -0.14 -0.00    -0.254 NA
ATOM     56  O4  UNL     1      29.891   8.534  -1.498 -0.18 -0.00    -0.254 OA
ATOM     57  H32 UNL     1      29.808   8.645   1.544 +0.07 +0.00    +0.128 HD
ATOM     58  H33 UNL     1      31.083   9.048   0.506 +0.05 +0.00    +0.128 HD
ATOM     59  H31 UNL     1      28.525   6.861   0.761 +0.09 +0.00    +0.163 HD
ENDBRANCH  52  53
ENDBRANCH  51  52
ENDBRANCH  50  51
ENDBRANCH  47  50
ENDBRANCH  45  46
ENDBRANCH  42  45
ENDBRANCH  36  39
ENDBRANCH   3  35
TORSDOF 15
TER
