USER    Run = 1
USER    DPF = ligand_155_receptor.dpf
USER  
USER    Estimated Free Energy of Binding    =  +4.17e+003 kcal/mol  [=(1)+(2)+(3)-(4)]
USER    
USER    (1) Final Intermolecular Energy     =  +4.17e+003 kcal/mol
USER        vdW + Hbond + desolv Energy     =  +4.17e+003 kcal/mol
USER        Electrostatic Energy            =   +0.00 kcal/mol
USER    (2) Final Total Internal Energy     =   -0.81 kcal/mol
USER    (3) Torsional Free Energy           =   +1.19 kcal/mol
USER    (4) Unbound System's Energy  [=(2)] =   -0.81 kcal/mol
USER    
USER    
USER    NEWDPF move ligand_155.pdbqt
USER    NEWDPF about 0.000000 0.000000 0.000000
USER    NEWDPF tran0 12.926776 2.155378 7.244168
USER    NEWDPF quaternion0 0.172569 0.656599 -0.051135 -0.732450
USER    NEWDPF axisangle0 0.253471 0.964423 -0.075109 -85.815659
USER    NEWDPF quat0 0.253471 0.964423 -0.075109 -85.815659
USER    NEWDPF dihe0 -40.45 -31.05 -68.55 -9.74 -167.95 -65.06 180.00 115.45 180.00 93.95 23.28 107.68 -36.01 177.67 -180.00 -100.05 -107.06 -139.74 -53.31 80.85 -180.00 154.20 
USER  keepresnum = 1 
USER  
REMARK  22 active torsions:
REMARK  status: ('A' for Active; 'I' for Inactive)
REMARK    1  A    between atoms: C3_3  and  N2_52 
REMARK    2  A    between atoms: C4_4  and  C5_5 
REMARK       I    between atoms: C4_4  and  N2_52 
REMARK    3  A    between atoms: C7_7  and  N3_53 
REMARK    4  A    between atoms: C8_8  and  C9_9 
REMARK       I    between atoms: C8_8  and  N3_53 
REMARK    5  A    between atoms: C11_11  and  N4_54 
REMARK    6  A    between atoms: C12_12  and  C13_13 
REMARK       I    between atoms: C12_12  and  N4_54 
REMARK    7  A    between atoms: C17_17  and  C18_18 
REMARK       I    between atoms: C18_18  and  N5_55 
REMARK    8  A    between atoms: C19_19  and  N5_55 
REMARK    9  A    between atoms: C21_21  and  C22_22 
REMARK       I    between atoms: C22_22  and  N6_56 
REMARK   10  A    between atoms: C23_23  and  N6_56 
REMARK   11  A    between atoms: C25_25  and  C26_26 
REMARK       I    between atoms: C26_26  and  N7_57 
REMARK   12  A    between atoms: C27_27  and  N7_57 
REMARK   13  A    between atoms: C29_29  and  C30_30 
REMARK       I    between atoms: C30_30  and  N8_58 
REMARK   14  A    between atoms: C31_31  and  C32_32 
REMARK   15  A    between atoms: C31_31  and  N8_58 
REMARK   16  A    between atoms: C32_32  and  C33_33 
REMARK   17  A    between atoms: C33_33  and  N10_61 
REMARK   18  A    between atoms: C46_46  and  C47_47 
REMARK       I    between atoms: C47_47  and  N16_67 
REMARK   19  A    between atoms: C48_48  and  C49_49 
REMARK   20  A    between atoms: C48_48  and  N16_67 
REMARK   21  A    between atoms: C49_49  and  C50_50 
REMARK   22  A    between atoms: C50_50  and  N17_68 
USER                              x       y       z     vdW  Elec       q    Type
USER                           _______ _______ _______ _____ _____    ______ ____
ROOT
ATOM      1  C13 UNL     1      15.707  -0.008   9.173+50.80 +0.00    +0.033 A 
ATOM      2  C14 UNL     1      16.588  -0.764   9.958+54.49 +0.00    +0.017 A 
ATOM      3  C15 UNL     1      17.936  -0.846   9.607 +8.22 +0.00    +0.002 A 
ATOM      4  C16 UNL     1      18.401  -0.194   8.463+99.99 +0.00    +0.017 A 
ATOM      5  C17 UNL     1      17.518   0.533   7.653 +1.84 +0.00    +0.033 A 
ATOM      6  C40 UNL     1      16.171   0.635   8.017+99.99 +0.00    +0.034 A 
ENDROOT
BRANCH   1   7
ATOM      7  C12 UNL     1      14.260   0.108   9.504 +9.82 +0.00    +0.256 C 
ATOM      8  N4  UNL     1      13.413   0.147   8.412+67.66 -0.00    -0.322 N 
ATOM      9  H45 UNL     1      13.794   0.006   7.487+39.83 +0.00    +0.169 HD
ATOM     10  O3  UNL     1      13.945   0.128  10.689+99.99 -0.00    -0.267 OA
BRANCH   8  11
ATOM     11  C11 UNL     1      12.040   0.291   8.471+80.34 +0.00    +0.053 A 
ATOM     12  C10 UNL     1      11.288   1.237   7.733+99.99 +0.00    +0.066 A 
ATOM     13  C9  UNL     1       9.944   1.067   8.031+99.99 +0.00    +0.105 A 
ATOM     14  N14 UNL     1       9.886   0.089   9.005 +7.82 -0.00    -0.354 N 
ATOM     15  C41 UNL     1      11.142  -0.410   9.239+18.21 +0.00    +0.120 A 
ATOM     16  C42 UNL     1       8.714  -0.310   9.757 +1.10 +0.00    +0.156 C 
BRANCH  13  17
ATOM     17  C8  UNL     1       8.833   1.818   7.473+35.65 +0.00    +0.273 C 
ATOM     18  N3  UNL     1       9.090   2.303   6.206 +6.16 -0.00    -0.320 N 
ATOM     19  H44 UNL     1      10.031   2.218   5.846 -0.01 +0.00    +0.169 HD
ATOM     20  O2  UNL     1       7.808   2.024   8.115 +5.64 -0.00    -0.266 OA
BRANCH  18  21
ATOM     21  C7  UNL     1       8.194   3.002   5.423 +1.34 +0.00    +0.053 A 
ATOM     22  C6  UNL     1       8.367   3.616   4.161 -0.27 +0.00    +0.066 A 
ATOM     23  C5  UNL     1       7.166   4.204   3.774 -0.17 +0.00    +0.105 A 
ATOM     24  N15 UNL     1       6.279   3.956   4.810 -0.09 -0.00    -0.354 N 
ATOM     25  C43 UNL     1       6.894   3.231   5.802 +6.84 +0.00    +0.120 A 
ATOM     26  C44 UNL     1       4.892   4.374   4.861 -0.19 +0.00    +0.156 C 
BRANCH  23  27
ATOM     27  C4  UNL     1       6.832   4.955   2.562 -0.07 +0.00    +0.273 C 
ATOM     28  N2  UNL     1       7.918   5.567   1.961 -0.03 -0.00    -0.320 N 
ATOM     29  H43 UNL     1       8.832   5.427   2.363 +0.08 +0.00    +0.169 HD
ATOM     30  O1  UNL     1       5.682   5.007   2.136 -0.09 -0.00    -0.266 OA
BRANCH  28  31
ATOM     31  C3  UNL     1       7.885   6.347   0.819 -0.22 +0.00    +0.053 A 
ATOM     32  C2  UNL     1       6.835   7.059   0.298 -0.32 +0.00    +0.120 A 
ATOM     33  N1  UNL     1       7.261   7.689  -0.844 -0.05 -0.00    -0.354 N 
ATOM     34  C1  UNL     1       6.416   8.536  -1.660 +4.35 +0.00    +0.156 C 
ATOM     35  C46 UNL     1       8.589   7.390  -1.092 -0.30 +0.00    +0.104 A 
ATOM     36  C45 UNL     1       8.986   6.557  -0.049 -0.24 +0.00    +0.066 A 
BRANCH  35  37
ATOM     37  C47 UNL     1       9.354   7.893  -2.224 -0.28 +0.00    +0.268 C 
ATOM     38  N16 UNL     1       8.703   8.831  -2.992 +2.77 -0.00    -0.355 N 
ATOM     39  H53 UNL     1       7.887   9.293  -2.598+15.99 +0.00    +0.162 HD
ATOM     40  O8  UNL     1      10.499   7.534  -2.484 -0.24 -0.00    -0.266 OA
BRANCH  38  41
ATOM     41  C48 UNL     1       9.385   9.579  -4.027 +2.46 +0.00    +0.130 C 
BRANCH  41  42
ATOM     42  C49 UNL     1      10.898   9.414  -3.939 -0.49 +0.00    +0.095 C 
BRANCH  42  43
ATOM     43  C50 UNL     1      11.545  10.618  -3.280 +0.39 +0.00    +0.069 C 
ATOM     44  N18 UNL     1      11.054  11.077  -2.097 +2.33 -0.00    -0.389 N 
ATOM     45  H55 UNL     1      11.675  11.638  -1.527 -0.24 +0.00    +0.157 HD
ATOM     46  H56 UNL     1      10.487  10.437  -1.550 -0.37 +0.00    +0.157 HD
BRANCH  43  47
ATOM     47  N17 UNL     1      12.560  11.177  -3.851 +7.61 -0.00    -0.389 N 
ATOM     48  H54 UNL     1      12.467  12.194  -3.788+13.35 +0.00    +0.157 HD
ATOM     49  H17 UNL     1      13.334  10.682  -4.296 +6.42 +0.00    +0.157 HD
ENDBRANCH  43  47
ENDBRANCH  42  43
ENDBRANCH  41  42
ENDBRANCH  38  41
ENDBRANCH  35  37
ENDBRANCH  28  31
ENDBRANCH  23  27
ENDBRANCH  18  21
ENDBRANCH  13  17
ENDBRANCH   8  11
ENDBRANCH   1   7
BRANCH   5  50
ATOM     50  C18 UNL     1      18.057   1.200   6.433+99.99 +0.00    +0.256 C 
ATOM     51  N5  UNL     1      19.063   2.120   6.668+99.99 -0.00    -0.322 N 
ATOM     52  H46 UNL     1      19.312   2.343   7.623 -0.25 +0.00    +0.169 HD
ATOM     53  O4  UNL     1      17.559   0.911   5.352+80.56 -0.00    -0.267 OA
BRANCH  51  54
ATOM     54  C19 UNL     1      19.735   2.837   5.694+99.99 +0.00    +0.053 A 
ATOM     55  C20 UNL     1      21.029   2.532   5.205+99.99 +0.00    +0.066 A 
ATOM     56  C21 UNL     1      21.378   3.465   4.232 +2.51 +0.00    +0.105 A 
ATOM     57  N13 UNL     1      20.288   4.314   4.123 +2.99 -0.00    -0.354 N 
ATOM     58  C38 UNL     1      20.177   5.449   3.230+99.99 +0.00    +0.156 C 
ATOM     59  C39 UNL     1      19.307   3.943   5.007+99.99 +0.00    +0.120 A 
BRANCH  56  60
ATOM     60  C22 UNL     1      22.595   3.581   3.431 +5.07 +0.00    +0.273 C 
ATOM     61  N6  UNL     1      22.844   4.862   2.969+99.99 -0.00    -0.320 N 
ATOM     62  H47 UNL     1      22.163   5.582   3.151 +4.34 +0.00    +0.169 HD
ATOM     63  O5  UNL     1      23.309   2.613   3.187 +6.30 -0.00    -0.266 OA
BRANCH  61  64
ATOM     64  C23 UNL     1      23.936   5.240   2.211+23.71 +0.00    +0.053 A 
ATOM     65  C24 UNL     1      25.116   5.926   2.580 +5.05 +0.00    +0.066 A 
ATOM     66  C25 UNL     1      25.927   6.073   1.458 -0.07 +0.00    +0.105 A 
ATOM     67  N12 UNL     1      25.225   5.491   0.414 -0.20 -0.00    -0.354 N 
ATOM     68  C36 UNL     1      25.670   5.400  -0.962 -0.41 +0.00    +0.156 C 
ATOM     69  C37 UNL     1      24.031   4.985   0.864 -0.48 +0.00    +0.120 A 
BRANCH  66  70
ATOM     70  C26 UNL     1      27.240   6.707   1.321 +0.15 +0.00    +0.273 C 
ATOM     71  N7  UNL     1      27.664   6.847   0.012 -0.13 -0.00    -0.320 N 
ATOM     72  H48 UNL     1      27.045   6.549  -0.727 +0.10 +0.00    +0.169 HD
ATOM     73  O6  UNL     1      27.879   7.080   2.300 +0.51 -0.00    -0.266 OA
BRANCH  71  74
ATOM     74  C27 UNL     1      28.860   7.401  -0.402 -0.25 +0.00    +0.053 A 
ATOM     75  C28 UNL     1      29.180   8.779  -0.336 +0.45 +0.00    +0.066 A 
ATOM     76  C29 UNL     1      30.448   8.971  -0.868 -0.17 +0.00    +0.104 A 
ATOM     77  N11 UNL     1      30.928   7.712  -1.177 -0.03 -0.00    -0.354 N 
ATOM     78  C34 UNL     1      32.275   7.379  -1.591 -0.04 +0.00    +0.156 C 
ATOM     79  C35 UNL     1      29.956   6.771  -0.939 -0.11 +0.00    +0.120 A 
BRANCH  76  80
ATOM     80  C30 UNL     1      31.131  10.240  -1.008 -0.05 +0.00    +0.268 C 
ATOM     81  N8  UNL     1      30.358  11.251  -1.531+29.48 -0.00    -0.355 N 
ATOM     82  H49 UNL     1      29.363  11.095  -1.608+11.26 +0.00    +0.162 HD
ATOM     83  O7  UNL     1      32.288  10.425  -0.645 -0.29 -0.00    -0.266 OA
BRANCH  81  84
ATOM     84  C31 UNL     1      30.838  12.616  -1.631+99.99 +0.00    +0.130 C 
BRANCH  84  85
ATOM     85  C32 UNL     1      29.741  13.623  -1.964+99.99 +0.00    +0.089 C 
BRANCH  85  86
ATOM     86  C33 UNL     1      28.394  12.941  -2.043+99.99 +0.00    +0.049 C 
ATOM     87  N9  UNL     1      27.797  12.742  -3.173 +4.64 -0.00    -0.393 N 
ATOM     88  H50 UNL     1      28.370  13.122  -3.937 -0.22 +0.00    +0.157 HD
ATOM     89  H9  UNL     1      26.896  12.279  -3.289 +0.50 +0.00    +0.157 HD
BRANCH  86  90
ATOM     90  N10 UNL     1      27.783  12.511  -0.905+24.74 -0.00    -0.293 NA
ATOM     91  H51 UNL     1      28.249  12.724  -0.032 -0.04 +0.00    +0.125 HD
ATOM     92  H52 UNL     1      26.799  12.765  -0.896 +0.59 +0.00    +0.125 HD
ENDBRANCH  86  90
ENDBRANCH  85  86
ENDBRANCH  84  85
ENDBRANCH  81  84
ENDBRANCH  76  80
ENDBRANCH  71  74
ENDBRANCH  66  70
ENDBRANCH  61  64
ENDBRANCH  56  60
ENDBRANCH  51  54
ENDBRANCH   5  50
TORSDOF 22
TER
