USER    Run = 1
USER    DPF = ligand_35_receptor.dpf
USER  
USER    Estimated Free Energy of Binding    =  +3.14e+003 kcal/mol  [=(1)+(2)+(3)-(4)]
USER    
USER    (1) Final Intermolecular Energy     =  +3.14e+003 kcal/mol
USER        vdW + Hbond + desolv Energy     =  +3.14e+003 kcal/mol
USER        Electrostatic Energy            =   +0.00 kcal/mol
USER    (2) Final Total Internal Energy     =   +0.00 kcal/mol
USER    (3) Torsional Free Energy           =   +1.19 kcal/mol
USER    (4) Unbound System's Energy  [=(2)] =   +0.00 kcal/mol
USER    
USER    
USER    NEWDPF move ligand_35.pdbqt
USER    NEWDPF about 0.000000 0.000000 0.000000
USER    NEWDPF tran0 16.716931 7.400676 1.384151
USER    NEWDPF quaternion0 -0.105809 -0.079506 -0.092392 0.986887
USER    NEWDPF axisangle0 -0.655531 -0.492574 -0.572408 18.577513
USER    NEWDPF quat0 -0.655531 -0.492574 -0.572408 18.577513
USER  keepresnum = 1 
USER  
REMARK  0 active torsions:
REMARK  status: ('A' for Active; 'I' for Inactive)
REMARK       I    between atoms: C2_2  and  C3_3 
REMARK       I    between atoms: C3_3  and  N1_56 
REMARK       I    between atoms: C5_5  and  C6_6 
REMARK       I    between atoms: C5_5  and  N1_56 
REMARK       I    between atoms: C6_6  and  N2_57 
REMARK       I    between atoms: C7_7  and  C8_8 
REMARK       I    between atoms: C7_7  and  N2_57 
REMARK       I    between atoms: C8_8  and  O2_68 
REMARK       I    between atoms: C10_10  and  C11_11 
REMARK       I    between atoms: C10_10  and  N2_57 
REMARK       I    between atoms: C11_11  and  N3_58 
REMARK       I    between atoms: C12_12  and  C13_13 
REMARK       I    between atoms: C12_12  and  N3_58 
REMARK       I    between atoms: C13_13  and  O4_70 
REMARK       I    between atoms: C15_15  and  C16_16 
REMARK       I    between atoms: C15_15  and  N3_58 
REMARK       I    between atoms: C16_16  and  N4_59 
REMARK       I    between atoms: C17_17  and  C18_18 
REMARK       I    between atoms: C17_17  and  N4_59 
REMARK       I    between atoms: C18_18  and  N5_60 
REMARK       I    between atoms: C19_19  and  C20_20 
REMARK       I    between atoms: C19_19  and  N5_60 
REMARK       I    between atoms: C20_20  and  N6_61 
REMARK       I    between atoms: C21_21  and  C22_22 
REMARK       I    between atoms: C21_21  and  N6_61 
REMARK       I    between atoms: C22_22  and  O8_74 
REMARK       I    between atoms: C24_24  and  C25_25 
REMARK       I    between atoms: C24_24  and  N6_61 
REMARK       I    between atoms: C25_25  and  N7_62 
REMARK       I    between atoms: C26_26  and  C27_27 
REMARK       I    between atoms: C26_26  and  N7_62 
REMARK       I    between atoms: C27_27  and  O10_76 
REMARK       I    between atoms: C29_29  and  C30_30 
REMARK       I    between atoms: C29_29  and  N7_62 
REMARK       I    between atoms: C30_30  and  N8_63 
REMARK       I    between atoms: C31_31  and  C32_32 
REMARK       I    between atoms: C31_31  and  N8_63 
REMARK       I    between atoms: C32_32  and  N9_64 
REMARK       I    between atoms: C33_33  and  C34_34 
REMARK       I    between atoms: C33_33  and  N9_64 
REMARK       I    between atoms: C34_34  and  N10_65 
REMARK       I    between atoms: C35_35  and  C36_36 
REMARK       I    between atoms: C35_35  and  N10_65 
REMARK       I    between atoms: C36_36  and  O14_80 
REMARK       I    between atoms: C38_38  and  C39_39 
REMARK       I    between atoms: C38_38  and  N10_65 
REMARK       I    between atoms: C39_39  and  N11_66 
REMARK       I    between atoms: C40_40  and  C42_42 
REMARK       I    between atoms: C40_40  and  N9_64 
REMARK       I    between atoms: C44_44  and  C46_46 
REMARK       I    between atoms: C44_44  and  N8_63 
REMARK       I    between atoms: C48_48  and  C50_50 
REMARK       I    between atoms: C48_48  and  N5_60 
REMARK       I    between atoms: C52_52  and  C54_54 
REMARK       I    between atoms: C52_52  and  N4_59 
USER                              x       y       z     vdW  Elec       q    Type
USER                           _______ _______ _______ _____ _____    ______ ____
ROOT
ATOM      1  C1  UNL     1      23.788   3.668  -2.379+99.99 +0.00    +0.007 C 
ATOM      2  C2  UNL     1      24.034   3.270  -0.932+14.11 +0.00    +0.030 C 
ATOM      3  C3  UNL     1      25.364   3.749  -0.311 +0.90 +0.00    +0.216 C 
ATOM      4  C4  UNL     1      26.580   3.052  -0.931+33.02 +0.00    +0.042 C 
ATOM      5  C5  UNL     1      26.173   5.888  -1.308 -0.20 +0.00    +0.372 C 
ATOM      6  C6  UNL     1      25.922   7.402  -1.212 +0.41 +0.00    +0.248 C 
ATOM      7  C7  UNL     1      27.718   7.608   0.551 -0.32 +0.00    +0.157 C 
ATOM      8  C8  UNL     1      29.116   7.527  -0.095 -0.25 +0.00    +0.132 C 
ATOM      9  C9  UNL     1      29.753   8.893  -0.313 -0.14 +0.00    +0.041 C 
ATOM     10  C10 UNL     1      26.273   9.550  -0.107+51.18 +0.00    +0.228 C 
ATOM     11  C11 UNL     1      25.345   9.711   1.116 +1.57 +0.00    +0.238 C 
ATOM     12  C12 UNL     1      24.746  12.057   0.323+99.99 +0.00    +0.157 C 
ATOM     13  C13 UNL     1      23.511  12.373  -0.544 +4.78 +0.00    +0.132 C 
ATOM     14  C14 UNL     1      23.095  11.245  -1.478 +3.07 +0.00    +0.041 C 
ATOM     15  C15 UNL     1      23.702  11.024   2.369+65.77 +0.00    +0.228 C 
ATOM     16  C16 UNL     1      22.335  10.376   2.094 +1.86 +0.00    +0.238 C 
ATOM     17  C17 UNL     1      19.943  10.195   2.355 -0.31 +0.00    +0.229 C 
ATOM     18  C18 UNL     1      19.423  10.738   0.999 -0.40 +0.00    +0.238 C 
ATOM     19  C19 UNL     1      17.276   9.494   1.433 -0.36 +0.00    +0.229 C 
ATOM     20  C20 UNL     1      16.468  10.248   2.506 -0.34 +0.00    +0.238 C 
ATOM     21  C21 UNL     1      14.981  10.200   4.446+99.52 +0.00    +0.157 C 
ATOM     22  C22 UNL     1      15.930  10.236   5.665+25.58 +0.00    +0.132 C 
ATOM     23  C23 UNL     1      15.296  10.985   6.828+56.06 +0.00    +0.041 C 
ATOM     24  C24 UNL     1      15.524   8.044   3.274 -0.32 +0.00    +0.228 C 
ATOM     25  C25 UNL     1      14.141   7.441   3.557 -0.29 +0.00    +0.238 C 
ATOM     26  C26 UNL     1      13.318   8.138   1.255+99.99 +0.00    +0.157 C 
ATOM     27  C27 UNL     1      13.605   7.123   0.136 +0.80 +0.00    +0.132 C 
ATOM     28  C28 UNL     1      13.937   7.829  -1.172+86.14 +0.00    +0.041 C 
ATOM     29  C29 UNL     1      11.898   6.817   2.859 -0.29 +0.00    +0.228 C 
ATOM     30  C30 UNL     1      12.073   5.291   2.690+12.17 +0.00    +0.238 C 
ATOM     31  C31 UNL     1       9.942   4.946   3.971 -0.17 +0.00    +0.229 C 
ATOM     32  C32 UNL     1       9.046   5.998   3.280 -0.16 +0.00    +0.238 C 
ATOM     33  C33 UNL     1       8.411   4.373   1.455 -0.08 +0.00    +0.229 C 
ATOM     34  C34 UNL     1       7.358   3.410   2.029 -0.10 +0.00    +0.238 C 
ATOM     35  C35 UNL     1       7.491   1.984  -0.069 -0.10 +0.00    +0.157 C 
ATOM     36  C36 UNL     1       8.890   1.342  -0.138 -0.19 +0.00    +0.132 C 
ATOM     37  C37 UNL     1       8.931  -0.033   0.514 -0.16 +0.00    +0.041 C 
ATOM     38  C38 UNL     1       5.945   1.443   1.815 -0.16 +0.00    +0.228 C 
ATOM     39  C39 UNL     1       4.587   1.985   1.349 -0.10 +0.00    +0.233 C 
ATOM     40  C40 UNL     1       7.421   6.670   1.521 -0.31 +0.00    +0.083 C 
ATOM     41  C41 UNL     1       6.275   7.014   2.478 -0.28 +0.00    +0.032 C 
ATOM     42  C42 UNL     1       8.155   7.914   0.980 +0.04 +0.00    +0.020 C 
ATOM     43  C43 UNL     1       7.273   8.805   0.116 +4.07 +0.00    +0.007 C 
ATOM     44  C44 UNL     1      11.590   3.056   3.528+48.60 +0.00    +0.083 C 
ATOM     45  C45 UNL     1      12.512   3.088   4.755 +9.38 +0.00    +0.032 C 
ATOM     46  C46 UNL     1      10.523   1.940   3.609+15.05 +0.00    +0.020 C 
ATOM     47  C47 UNL     1       9.980   1.602   4.994+99.99 +0.00    +0.007 C 
ATOM     48  C48 UNL     1      17.503  10.976  -0.579 +4.78 +0.00    +0.083 C 
ATOM     49  C49 UNL     1      17.482  12.509  -0.551+99.99 +0.00    +0.032 C 
ATOM     50  C50 UNL     1      18.144  10.402  -1.857+43.53 +0.00    +0.020 C 
ATOM     51  C51 UNL     1      17.371  10.741  -3.123+93.16 +0.00    +0.007 C 
ATOM     52  C52 UNL     1      21.135  11.763   3.929+99.99 +0.00    +0.083 C 
ATOM     53  C53 UNL     1      22.105  11.406   5.061+34.27 +0.00    +0.032 C 
ATOM     54  C54 UNL     1      21.241  13.251   3.547+21.60 +0.00    +0.020 C 
ATOM     55  C55 UNL     1      19.996  13.790   2.856+15.89 +0.00    +0.007 C 
ATOM     56  N1  UNL     1      25.462   5.209  -0.221 -0.39 +0.00    +0.096 N 
ATOM     57  N2  UNL     1      26.692   8.162  -0.338 -0.03 -0.00    -0.340 N 
ATOM     58  N3  UNL     1      24.637  10.906   1.236 +2.44 -0.00    -0.340 N 
ATOM     59  N4  UNL     1      21.206  10.810   2.794 +0.06 -0.00    -0.338 N 
ATOM     60  N5  UNL     1      18.118  10.393   0.632 -0.20 -0.00    -0.338 N 
ATOM     61  N6  UNL     1      15.571   9.514   3.283 -0.17 -0.00    -0.340 N 
ATOM     62  N7  UNL     1      13.149   7.533   2.584 -0.04 -0.00    -0.340 N 
ATOM     63  N8  UNL     1      11.086   4.423   3.205 +3.89 -0.00    -0.338 N 
ATOM     64  N9  UNL     1       8.378   5.694   2.098 -0.04 -0.00    -0.338 N 
ATOM     65  N10 UNL     1       7.035   2.274   1.295 -0.06 -0.00    -0.340 N 
ATOM     66  N11 UNL     1       3.536   1.730   2.185 -0.04 -0.00    -0.369 N 
ATOM     67  O1  UNL     1      25.033   7.910  -1.904 +4.29 -0.00    -0.271 OA
ATOM     68  O2  UNL     1      29.990   6.755   0.732 -0.09 -0.00    -0.394 OA
ATOM     69  O3  UNL     1      25.302   8.848   1.998 -0.31 -0.00    -0.272 OA
ATOM     70  O4  UNL     1      22.438  12.812   0.286+74.31 -0.00    -0.394 OA
ATOM     71  O5  UNL     1      22.234   9.450   1.280 -0.30 -0.00    -0.272 OA
ATOM     72  O6  UNL     1      20.133  11.439   0.272 -0.46 -0.00    -0.272 OA
ATOM     73  O7  UNL     1      16.634  11.455   2.708 -0.34 -0.00    -0.272 OA
ATOM     74  O8  UNL     1      17.174  10.874   5.355 +1.17 -0.00    -0.394 OA
ATOM     75  O9  UNL     1      13.925   6.899   4.646 -0.34 -0.00    -0.272 OA
ATOM     76  O10 UNL     1      14.719   6.306   0.493+99.99 -0.00    -0.394 OA
ATOM     77  O11 UNL     1      13.052   4.845   2.076+99.99 -0.00    -0.272 OA
ATOM     78  O12 UNL     1       8.948   7.108   3.813 -0.21 -0.00    -0.272 OA
ATOM     79  O13 UNL     1       6.864   3.606   3.144 -0.11 -0.00    -0.272 OA
ATOM     80  O14 UNL     1       9.276   1.181  -1.502 -0.09 -0.00    -0.394 OA
ATOM     81  O15 UNL     1       4.407   2.564   0.281 -0.05 -0.00    -0.272 OA
ATOM     82  H96 UNL     1      24.532   5.621  -0.113 +0.24 +0.00    +0.316 HD
ATOM     83  H97 UNL     1       2.664   2.177   1.927 +0.04 +0.00    +0.159 HD
ATOM     84  H98 UNL     1       3.698   1.613   3.178 +0.06 +0.00    +0.159 HD
ATOM     85  H99 UNL     1      30.003   7.159   1.618 +0.10 +0.00    +0.210 HD
ATOM     86  HA0 UNL     1      21.644  12.254   0.108 +0.21 +0.00    +0.210 HD
ATOM     87  HA1 UNL     1      17.012  11.500   4.618 +0.27 +0.00    +0.210 HD
ATOM     88  HA2 UNL     1      14.354   5.622   1.102+99.99 +0.00    +0.210 HD
ATOM     89  HA3 UNL     1       9.395   2.061  -1.896 +0.10 +0.00    +0.210 HD
ENDROOT
TORSDOF 45
TER
