USER    Run = 1
USER    DPF = ligand_237_receptor.dpf
USER  
USER    Estimated Free Energy of Binding    = +631.19 kcal/mol  [=(1)+(2)+(3)-(4)]
USER    
USER    (1) Final Intermolecular Energy     = +630.00 kcal/mol
USER        vdW + Hbond + desolv Energy     = +630.00 kcal/mol
USER        Electrostatic Energy            =   +0.00 kcal/mol
USER    (2) Final Total Internal Energy     =   +0.00 kcal/mol
USER    (3) Torsional Free Energy           =   +1.19 kcal/mol
USER    (4) Unbound System's Energy  [=(2)] =   +0.00 kcal/mol
USER    
USER    
USER    NEWDPF move ligand_237.pdbqt
USER    NEWDPF about 0.000000 0.000000 0.000000
USER    NEWDPF tran0 14.730290 6.785580 4.625159
USER    NEWDPF quaternion0 0.162092 -0.967033 -0.139581 0.138171
USER    NEWDPF axisangle0 0.163662 -0.976398 -0.140933 164.115944
USER    NEWDPF quat0 0.163662 -0.976398 -0.140933 164.115944
USER  keepresnum = 1 
USER  
REMARK  0 active torsions:
REMARK  status: ('A' for Active; 'I' for Inactive)
REMARK       I    between atoms: C2_2  and  C3_3 
REMARK       I    between atoms: C2_2  and  O1_36 
REMARK       I    between atoms: C3_3  and  N1_41 
REMARK       I    between atoms: C4_4  and  C5_5 
REMARK       I    between atoms: C4_4  and  N1_41 
REMARK       I    between atoms: C5_5  and  C6_6 
REMARK       I    between atoms: C6_6  and  N2_42 
REMARK       I    between atoms: C7_7  and  C8_8 
REMARK       I    between atoms: C7_7  and  N2_42 
REMARK       I    between atoms: C8_8  and  C9_9 
REMARK       I    between atoms: C8_8  and  N5_45 
REMARK       I    between atoms: C9_9  and  C10_10 
REMARK       I    between atoms: C10_10  and  C11_11 
REMARK       I    between atoms: C11_11  and  C12_12 
REMARK       I    between atoms: C12_12  and  C13_13 
REMARK       I    between atoms: C13_13  and  C14_14 
REMARK       I    between atoms: C14_14  and  C15_15 
REMARK       I    between atoms: C15_15  and  C16_16 
REMARK       I    between atoms: C15_15  and  N4_44 
REMARK       I    between atoms: C16_16  and  C17_17 
REMARK       I    between atoms: C17_17  and  C18_18 
REMARK       I    between atoms: C18_18  and  C19_19 
REMARK       I    between atoms: C19_19  and  N3_43 
REMARK       I    between atoms: C20_20  and  C21_21 
REMARK       I    between atoms: C20_20  and  N1_41 
REMARK       I    between atoms: C21_21  and  C22_22 
REMARK       I    between atoms: C22_22  and  N6_46 
REMARK       I    between atoms: C23_23  and  C24_24 
REMARK       I    between atoms: C23_23  and  N6_46 
REMARK       I    between atoms: C24_24  and  C25_25 
REMARK       I    between atoms: C24_24  and  N9_49 
REMARK       I    between atoms: C25_25  and  C26_26 
REMARK       I    between atoms: C26_26  and  C27_27 
REMARK       I    between atoms: C27_27  and  C28_28 
REMARK       I    between atoms: C28_28  and  C29_29 
REMARK       I    between atoms: C29_29  and  C30_30 
REMARK       I    between atoms: C30_30  and  C31_31 
REMARK       I    between atoms: C31_31  and  C32_32 
REMARK       I    between atoms: C31_31  and  N8_48 
REMARK       I    between atoms: C32_32  and  C33_33 
REMARK       I    between atoms: C33_33  and  C34_34 
REMARK       I    between atoms: C34_34  and  C35_35 
REMARK       I    between atoms: C35_35  and  N7_47 
USER                              x       y       z     vdW  Elec       q    Type
USER                           _______ _______ _______ _____ _____    ______ ____
ROOT
ATOM      1  C1  UNL     1      11.044  11.139   9.848+36.65 +0.00    +0.201 C 
ATOM      2  C2  UNL     1      13.298  11.901   9.987 +0.88 +0.00    +0.197 C 
ATOM      3  C3  UNL     1      13.991  10.547  10.238+58.95 +0.00    +0.298 C 
ATOM      4  C4  UNL     1      14.724   8.361   9.534 +7.63 +0.00    +0.274 C 
ATOM      5  C5  UNL     1      14.542   7.238   8.504 +1.00 +0.00    +0.050 C 
ATOM      6  C6  UNL     1      13.069   6.945   8.209 -0.49 +0.00    +0.124 C 
ATOM      7  C7  UNL     1      13.324   4.997   6.703 -0.41 +0.00    +0.250 C 
ATOM      8  C8  UNL     1      12.871   4.387   5.355 +1.33 +0.00    +0.308 C 
ATOM      9  C9  UNL     1      11.394   3.973   5.424 -0.46 +0.00    +0.045 C 
ATOM     10  C10 UNL     1      10.861   3.451   4.085 +0.36 +0.00    +0.003 C 
ATOM     11  C11 UNL     1       9.372   3.106   4.177 -0.14 +0.00    +0.000 C 
ATOM     12  C12 UNL     1       8.772   2.668   2.839 +0.01 +0.00    +0.007 C 
ATOM     13  C13 UNL     1       9.315   1.332   2.340+12.27 +0.00    +0.080 C 
ATOM     14  C14 UNL     1       8.619   0.915   1.059 -0.15 +0.00    +0.159 C 
ATOM     15  C15 UNL     1       9.490   0.783  -0.205 -0.17 +0.00    +0.286 C 
ATOM     16  C16 UNL     1       9.985   2.148  -0.705 -0.23 +0.00    +0.043 C 
ATOM     17  C17 UNL     1       8.879   3.108  -1.165 -0.17 +0.00    +0.004 C 
ATOM     18  C18 UNL     1       9.463   4.464  -1.573 -0.20 +0.00    +0.030 C 
ATOM     19  C19 UNL     1       8.400   5.500  -1.947 +0.31 +0.00    +0.267 C 
ATOM     20  C20 UNL     1      15.130  10.274   8.074+69.44 +0.00    +0.274 C 
ATOM     21  C21 UNL     1      14.448  11.092   6.967+45.50 +0.00    +0.050 C 
ATOM     22  C22 UNL     1      13.315  10.370   6.240+86.61 +0.00    +0.124 C 
ATOM     23  C23 UNL     1      14.256   9.349   4.187 +3.41 +0.00    +0.250 C 
ATOM     24  C24 UNL     1      14.652   8.012   3.514 -0.29 +0.00    +0.308 C 
ATOM     25  C25 UNL     1      15.790   7.255   4.217 +0.49 +0.00    +0.045 C 
ATOM     26  C26 UNL     1      17.222   7.783   4.036 -0.52 +0.00    +0.003 C 
ATOM     27  C27 UNL     1      17.469   9.156   4.659 -0.10 +0.00    +0.000 C 
ATOM     28  C28 UNL     1      18.933   9.602   4.590+27.79 +0.00    +0.007 C 
ATOM     29  C29 UNL     1      19.869   8.731   5.421+20.47 +0.00    +0.080 C 
ATOM     30  C30 UNL     1      21.219   9.393   5.630+67.32 +0.00    +0.159 C 
ATOM     31  C31 UNL     1      22.138   9.512   4.399 +0.89 +0.00    +0.286 C 
ATOM     32  C32 UNL     1      23.592   9.164   4.754 -0.31 +0.00    +0.043 C 
ATOM     33  C33 UNL     1      23.757   7.698   5.171+18.46 +0.00    +0.004 C 
ATOM     34  C34 UNL     1      25.224   7.363   5.451+15.96 +0.00    +0.030 C 
ATOM     35  C35 UNL     1      25.384   5.910   5.894 +7.49 +0.00    +0.267 C 
ATOM     36  O1  UNL     1      12.108  11.817   9.198 +4.22 -0.00    -0.394 OA
ATOM     37  O2  UNL     1      14.047   4.391   7.491 -0.50 -0.00    -0.271 OA
ATOM     38  O3  UNL     1       7.406   0.686   1.039 -0.07 -0.00    -0.296 OA
ATOM     39  O4  UNL     1      14.336  10.426   3.598+40.32 -0.00    -0.271 OA
ATOM     40  O5  UNL     1      21.540   9.802   6.748 +3.72 -0.00    -0.296 OA
ATOM     41  N1  UNL     1      14.210   9.666   9.062+23.70 +0.00    +0.090 N 
ATOM     42  N2  UNL     1      12.867   6.282   6.928 -0.15 -0.00    -0.359 N 
ATOM     43  N3  UNL     1       7.643   5.138  -3.139 +2.58 +0.00    +0.078 N 
ATOM     44  N4  UNL     1       8.741   0.064  -1.256 -0.18 +0.00    +0.090 N 
ATOM     45  N5  UNL     1      13.731   3.234   5.023+13.18 +0.00    +0.092 N 
ATOM     46  N6  UNL     1      13.764   9.225   5.466 +0.68 -0.00    -0.359 N 
ATOM     47  N7  UNL     1      26.791   5.604   6.124 +2.36 +0.00    +0.078 N 
ATOM     48  N8  UNL     1      22.075  10.887   3.879 +0.44 +0.00    +0.090 N 
ATOM     49  N9  UNL     1      14.944   8.228   2.082 +0.32 +0.00    +0.092 N 
ATOM     50  H60 UNL     1      12.069   6.587   6.385 +0.13 +0.00    +0.162 HD
ATOM     51  H61 UNL     1       8.284   4.923  -3.902 +0.05 +0.00    +0.312 HD
ATOM     52  H62 UNL     1       7.113   4.285  -2.970 -0.05 +0.00    +0.312 HD
ATOM     53  H63 UNL     1       7.828   0.520  -1.350 +0.13 +0.00    +0.313 HD
ATOM     54  H64 UNL     1       8.495  -0.860  -0.893 +0.17 +0.00    +0.313 HD
ATOM     55  H65 UNL     1      14.702   3.553   5.026 +8.37 +0.00    +0.313 HD
ATOM     56  H66 UNL     1      13.696   2.590   5.819 +3.03 +0.00    +0.313 HD
ATOM     57  H67 UNL     1      13.795   8.329   5.933 +0.12 +0.00    +0.162 HD
ATOM     58  H68 UNL     1      26.877   4.655   6.484+32.95 +0.00    +0.312 HD
ATOM     59  H69 UNL     1      27.161   6.217   6.849 +0.12 +0.00    +0.312 HD
ATOM     60  H70 UNL     1      21.142  11.100   3.533 +0.32 +0.00    +0.313 HD
ATOM     61  H71 UNL     1      22.712  10.989   3.089 +0.42 +0.00    +0.313 HD
ATOM     62  H72 UNL     1      15.658   8.960   2.023 +0.06 +0.00    +0.313 HD
ATOM     63  H73 UNL     1      14.126   8.687   1.671+14.01 +0.00    +0.313 HD
ENDROOT
TORSDOF 41
TER
