USER    Run = 1
USER    DPF = ligand_378_receptor.dpf
USER  
USER    Estimated Free Energy of Binding    =  +2.76e+006 kcal/mol  [=(1)+(2)+(3)-(4)]
USER    
USER    (1) Final Intermolecular Energy     =  +2.76e+006 kcal/mol
USER        vdW + Hbond + desolv Energy     =  +1.44e+006 kcal/mol
USER        Electrostatic Energy            =  +1.31e+006 kcal/mol
USER    (2) Final Total Internal Energy     =   +0.00 kcal/mol
USER    (3) Torsional Free Energy           =   +1.19 kcal/mol
USER    (4) Unbound System's Energy  [=(2)] =   +0.00 kcal/mol
USER    
USER    
USER    NEWDPF move ligand_378.pdbqt
USER    NEWDPF about 0.000000 0.000000 0.000000
USER    NEWDPF tran0 16.472732 5.398741 3.367581
USER    NEWDPF quaternion0 -0.525645 0.166990 0.021894 0.833866
USER    NEWDPF axisangle0 -0.952312 0.302536 0.039665 67.004146
USER    NEWDPF quat0 -0.952312 0.302536 0.039665 67.004146
USER  keepresnum = 1 
USER  
REMARK  0 active torsions:
REMARK  status: ('A' for Active; 'I' for Inactive)
REMARK       I    between atoms: C2_2  and  C3_3 
REMARK       I    between atoms: C2_2  and  C58_58 
REMARK       I    between atoms: C2_2  and  N1_67 
REMARK       I    between atoms: C3_3  and  C4_4 
REMARK       I    between atoms: C4_4  and  N2_68 
REMARK       I    between atoms: C5_5  and  C6_6 
REMARK       I    between atoms: C5_5  and  N2_68 
REMARK       I    between atoms: C5_5  and  O10_103 
REMARK       I    between atoms: C6_6  and  C7_7 
REMARK       I    between atoms: C7_7  and  N3_70 
REMARK       I    between atoms: C8_8  and  C9_9 
REMARK       I    between atoms: C8_8  and  N3_70 
REMARK       I    between atoms: C11_11  and  N5_72 
REMARK       I    between atoms: C14_14  and  C15_15 
REMARK       I    between atoms: C14_14  and  N5_72 
REMARK       I    between atoms: C17_17  and  N7_74 
REMARK       I    between atoms: C20_20  and  C21_21 
REMARK       I    between atoms: C20_20  and  N7_74 
REMARK       I    between atoms: C23_23  and  N9_76 
REMARK       I    between atoms: C26_26  and  C27_27 
REMARK       I    between atoms: C26_26  and  N9_76 
REMARK       I    between atoms: C29_29  and  N11_78 
REMARK       I    between atoms: C32_32  and  C33_33 
REMARK       I    between atoms: C32_32  and  N11_78 
REMARK       I    between atoms: C32_32  and  O9_102 
REMARK       I    between atoms: C33_33  and  C34_34 
REMARK       I    between atoms: C34_34  and  C35_35 
REMARK       I    between atoms: C35_35  and  N12_80 
REMARK       I    between atoms: C36_36  and  C37_37 
REMARK       I    between atoms: C36_36  and  N12_80 
REMARK       I    between atoms: C39_39  and  N14_82 
REMARK       I    between atoms: C42_42  and  C43_43 
REMARK       I    between atoms: C42_42  and  N14_82 
REMARK       I    between atoms: C45_45  and  N16_84 
REMARK       I    between atoms: C48_48  and  C49_49 
REMARK       I    between atoms: C48_48  and  N16_84 
REMARK       I    between atoms: C50_50  and  N19_88 
REMARK       I    between atoms: C53_53  and  C54_54 
REMARK       I    between atoms: C53_53  and  N19_88 
REMARK       I    between atoms: C58_58  and  N22_92 
REMARK       I    between atoms: C59_59  and  C60_60 
REMARK       I    between atoms: C59_59  and  N22_92 
REMARK       I    between atoms: C60_60  and  N23_93 
REMARK       I    between atoms: C61_61  and  C62_62 
REMARK       I    between atoms: C61_61  and  N23_93 
REMARK       I    between atoms: C62_62  and  O13_106 
REMARK       I    between atoms: C63_63  and  C64_64 
REMARK       I    between atoms: C63_63  and  N23_93 
REMARK       I    between atoms: C64_64  and  O15_108 
REMARK       I    between atoms: C65_65  and  C66_66 
REMARK       I    between atoms: C65_65  and  N22_92 
REMARK       I    between atoms: C66_66  and  O17_110 
USER                              x       y       z     vdW  Elec       q    Type
USER                           _______ _______ _______ _____ _____    ______ ____
ROOT
ATOM      1  C1  UNL     1       5.842   6.703   2.550 -0.13 +0.00    +0.307 C 
ATOM      2  C2  UNL     1       4.020   6.032   4.106 -0.10 +0.00    +0.312 C 
ATOM      3  C3  UNL     1       2.955   5.828   3.012 -0.06 +0.00    +0.065 C 
ATOM      4  C4  UNL     1       2.988   4.440   2.373 -0.04 +0.00    +0.124 C 
ATOM      5  C5  UNL     1       3.127   2.218   3.231 -0.11 +0.00    +0.112 C 
ATOM      6  C6  UNL     1       3.072   1.188   4.322 -0.25 +0.00    +0.103 C 
ATOM      7  C7  UNL     1       3.949   1.596   5.498 -0.11 +0.00    +0.131 C 
ATOM      8  C8  UNL     1       6.209   2.571   5.797+99.99 +0.00    +0.268 C 
ATOM      9  C9  UNL     1       7.539   2.659   5.217+26.33 +0.00    +0.104 A 
ATOM     10  C10 UNL     1       8.179   1.804   4.326+35.78 +0.00    +0.066 A 
ATOM     11  C11 UNL     1       9.464   2.318   4.036+24.49 +0.00    +0.053 A 
ATOM     12  C12 UNL     1       9.599   3.478   4.760 -0.32 +0.00    +0.120 A 
ATOM     13  C13 UNL     1       8.210   4.822   6.330 -0.34 +0.00    +0.156 C 
ATOM     14  C14 UNL     1      10.387   0.676   2.457+12.07 +0.00    +0.273 C 
ATOM     15  C15 UNL     1      11.585   0.398   1.666 +2.14 +0.00    +0.105 A 
ATOM     16  C16 UNL     1      12.694   1.200   1.407+99.99 +0.00    +0.066 A 
ATOM     17  C17 UNL     1      13.597   0.490   0.585+20.50 +0.00    +0.053 A 
ATOM     18  C18 UNL     1      13.030  -0.738   0.342+99.99 +0.00    +0.120 A 
ATOM     19  C19 UNL     1      10.939  -1.939   0.959+99.99+99.99    +0.156 C 
ATOM     20  C20 UNL     1      15.445   2.080   0.274+99.99 +0.00    +0.273 C 
ATOM     21  C21 UNL     1      16.749   2.208  -0.375+99.99 +0.00    +0.105 A 
ATOM     22  C22 UNL     1      17.529   1.247  -1.013+99.99 +0.00    +0.066 A 
ATOM     23  C23 UNL     1      18.716   1.854  -1.485+99.99 +0.00    +0.053 A 
ATOM     24  C24 UNL     1      18.654   3.177  -1.122+99.99 +0.00    +0.120 A 
ATOM     25  C25 UNL     1      17.067   4.672   0.075+99.99 +0.00    +0.156 C 
ATOM     26  C26 UNL     1      19.885   0.005  -2.600+99.99 +0.00    +0.273 C 
ATOM     27  C27 UNL     1      21.146  -0.306  -3.271+99.99 +0.00    +0.105 A 
ATOM     28  C28 UNL     1      22.356   0.384  -3.253+99.99 +0.00    +0.066 A 
ATOM     29  C29 UNL     1      23.268  -0.332  -4.045+99.99 +0.00    +0.051 A 
ATOM     30  C30 UNL     1      22.635  -1.427  -4.565+99.99+99.99    +0.120 A 
ATOM     31  C31 UNL     1      20.357  -2.417  -4.415+99.99+99.99    +0.156 C 
ATOM     32  C32 UNL     1      25.488  -0.486  -3.551 -0.36 +0.00    +0.115 C 
ATOM     33  C33 UNL     1      26.940  -0.130  -3.704 +0.09 +0.00    +0.085 C 
ATOM     34  C34 UNL     1      27.360   0.934  -2.695+11.64 +0.00    +0.027 C 
ATOM     35  C35 UNL     1      26.722   2.294  -2.980 -0.33 +0.00    +0.123 C 
ATOM     36  C36 UNL     1      28.347   3.977  -2.173 -0.13 +0.00    +0.268 C 
ATOM     37  C37 UNL     1      28.663   4.901  -1.092 -0.15 +0.00    +0.104 A 
ATOM     38  C38 UNL     1      27.896   5.292   0.002 -0.23 +0.00    +0.066 A 
ATOM     39  C39 UNL     1      28.635   6.211   0.781 -0.12 +0.00    +0.053 A 
ATOM     40  C40 UNL     1      29.844   6.381   0.150 -0.14 +0.00    +0.120 A 
ATOM     41  C41 UNL     1      30.973   5.519  -1.896 -0.04 +0.00    +0.156 C 
ATOM     42  C42 UNL     1      27.117   6.718   2.646+20.64 +0.00    +0.273 C 
ATOM     43  C43 UNL     1      27.019   7.547   3.846 +8.06 +0.00    +0.105 A 
ATOM     44  C44 UNL     1      27.833   8.590   4.284+99.99 +0.00    +0.066 A 
ATOM     45  C45 UNL     1      27.330   9.085   5.508+99.99 +0.00    +0.053 A 
ATOM     46  C46 UNL     1      26.210   8.349   5.804+99.99 +0.00    +0.120 A 
ATOM     47  C47 UNL     1      24.933   6.474   4.783+67.39 +0.00    +0.156 C 
ATOM     48  C48 UNL     1      28.911  10.877   6.088+76.18 +0.00    +0.290 C 
ATOM     49  C49 UNL     1      29.098  11.858   7.148 +3.15 +0.00    +0.178 A 
ATOM     50  C50 UNL     1      28.754  12.961   8.958 +0.31 +0.00    +0.125 A 
ATOM     51  C51 UNL     1      29.886  13.507   8.405 -0.31 +0.00    +0.140 A 
ATOM     52  C52 UNL     1      31.176  13.003   6.319 -0.15 +0.00    +0.157 C 
ATOM     53  C53 UNL     1      27.043  12.835  10.693 +1.74 +0.00    +0.291 C 
ATOM     54  C54 UNL     1      26.711  13.517  11.940+99.99+99.99    +0.176 A 
ATOM     55  C55 UNL     1      26.821  14.892  13.593+99.99+99.99    +0.107 A 
ATOM     56  C56 UNL     1      25.709  14.119  13.826+99.99+99.99    +0.109 A 
ATOM     57  C57 UNL     1      24.643  12.235  12.574+99.99+99.99    +0.157 C 
ATOM     58  C58 UNL     1       3.758   7.382   4.837 +1.32 +0.00    +0.253 C 
ATOM     59  C59 UNL     1       2.768   8.648   6.707 -0.22 +0.00    +0.156 C 
ATOM     60  C60 UNL     1       3.567   8.901   8.009 -0.20 +0.00    +0.293 C 
ATOM     61  C61 UNL     1       5.946   8.319   7.734 +7.08 +0.00    +0.382 C 
ATOM     62  C62 UNL     1       6.128   7.441   8.971+50.03 +0.00    +0.169 C 
ATOM     63  C63 UNL     1       5.190  10.488   6.969+99.99 +0.00    +0.382 C 
ATOM     64  C64 UNL     1       4.347  11.735   7.219 +2.47 +0.00    +0.169 C 
ATOM     65  C65 UNL     1       2.396   6.173   6.610 -0.14 +0.00    +0.235 C 
ATOM     66  C66 UNL     1       3.262   5.148   7.335 -0.24 +0.00    +0.158 C 
ATOM     67  N1  UNL     1       5.441   5.896   3.691 -0.17 +0.00    +0.092 N 
ATOM     68  N2  UNL     1       2.790   3.439   3.414 -0.00 -0.00    -0.374 N 
ATOM     69  H2  UNL     1       2.376   3.717   4.304 +0.05 +0.00    +0.161 HD
ATOM     70  N3  UNL     1       5.347   1.728   5.132 +4.52 -0.00    -0.355 N 
ATOM     71  N4  UNL     1       8.441   3.678   5.470 -0.16 -0.00    -0.354 N 
ATOM     72  N5  UNL     1      10.460   1.835   3.209 +4.57 -0.00    -0.320 N 
ATOM     73  N6  UNL     1      11.819  -0.788   0.987+99.99 -0.00    -0.354 N 
ATOM     74  N7  UNL     1      14.826   0.859   0.073 +8.20 -0.00    -0.320 N 
ATOM     75  N8  UNL     1      17.475   3.385  -0.453+99.99 -0.00    -0.354 N 
ATOM     76  N9  UNL     1      19.787   1.316  -2.172+99.99 -0.00    -0.320 N 
ATOM     77  N10 UNL     1      21.352  -1.417  -4.079+99.99+99.99    -0.354 N 
ATOM     78  N11 UNL     1      24.577   0.051  -4.296 +0.09 -0.00    -0.339 N 
ATOM     79  H11 UNL     1      24.810   0.722  -5.029+99.99+99.99    +0.168 HD
ATOM     80  N12 UNL     1      27.161   3.292  -2.027 -0.14 -0.00    -0.356 N 
ATOM     81  N13 UNL     1      29.855   5.596  -0.977 -0.00 -0.00    -0.354 N 
ATOM     82  N14 UNL     1      28.303   6.869   1.950 +0.90 -0.00    -0.320 N 
ATOM     83  N15 UNL     1      26.022   7.430   4.802 +0.78 -0.00    -0.354 N 
ATOM     84  N16 UNL     1      27.792  10.099   6.315+99.99 -0.00    -0.319 N 
ATOM     85  N17 UNL     1      28.274  11.950   8.183+47.09 -0.00    -0.323 N 
ATOM     86  H17 UNL     1      27.449  11.379   8.362+53.01 +0.00    +0.169 HD
ATOM     87  N18 UNL     1      30.096  12.796   7.252 -0.24 -0.00    -0.339 N 
ATOM     88  N19 UNL     1      28.179  13.373  10.127 -0.08 -0.00    -0.305 N 
ATOM     89  N20 UNL     1      27.437  14.518  12.428+99.99+99.99    -0.346 N 
ATOM     90  H20 UNL     1      28.279  14.924  12.019+99.99+99.99    +0.167 HD
ATOM     91  N21 UNL     1      25.649  13.250  12.772+99.99+99.99    -0.342 N 
ATOM     92  N22 UNL     1       3.052   7.368   6.044 -0.08 -0.00    -0.339 N 
ATOM     93  N23 UNL     1       4.959   9.403   7.949 -0.31 +0.00    +0.109 N 
ATOM     94  O1  UNL     1       5.852   3.221   6.779 -0.39 -0.00    -0.266 OA
ATOM     95  O2  UNL     1       9.411  -0.072   2.444+13.09 -0.00    -0.266 OA
ATOM     96  O3  UNL     1      14.954   2.995   0.932+99.99 -0.00    -0.266 OA
ATOM     97  O4  UNL     1      19.004  -0.838  -2.456+99.99 -0.00    -0.266 OA
ATOM     98  O5  UNL     1      29.079   3.798  -3.143 -0.10 -0.00    -0.266 OA
ATOM     99  O6  UNL     1      26.218   5.951   2.310 +3.40 -0.00    -0.266 OA
ATOM    100  O7  UNL     1      29.669  10.774   5.127+99.99 -0.00    -0.264 OA
ATOM    101  O8  UNL     1      26.372  11.910  10.244 -0.35 -0.00    -0.264 OA
ATOM    102  O9  UNL     1      25.278  -1.370  -2.552+99.99+99.99    -0.349 OA
ATOM    103  O10 UNL     1       3.571   1.715   2.065 -0.06 -0.00    -0.350 OA
ATOM    104  O11 UNL     1       4.127   8.451   4.338+17.61 -0.00    -0.271 OA
ATOM    105  O12 UNL     1       5.486   7.431  10.008+99.99 -0.00    -0.649 OA
ATOM    106  O13 UNL     1       7.170   6.586   8.836 +5.09 -0.00    -0.775 OA
ATOM    107  O14 UNL     1       3.160  11.802   7.502 -0.07 -0.00    -0.649 OA
ATOM    108  O15 UNL     1       5.048  12.877   7.030+99.99 -0.00    -0.775 OA
ATOM    109  O16 UNL     1       2.830   4.136   7.869 -0.12 -0.00    -0.649 OA
ATOM    110  O17 UNL     1       4.582   5.391   7.259 -0.01 -0.00    -0.775 OA
ATOM    111  H68 UNL     1       5.622   4.914   3.483 +0.13 +0.00    +0.316 HD
ATOM    112  H69 UNL     1       5.709   1.146   4.389 -0.32 +0.00    +0.162 HD
ATOM    113  H70 UNL     1      11.310   2.377   3.182 -0.03 +0.00    +0.169 HD
ATOM    114  H71 UNL     1      15.285   0.173  -0.507 +0.23 +0.00    +0.169 HD
ATOM    115  H72 UNL     1      20.526   1.959  -2.411 +0.64 +0.00    +0.169 HD
ATOM    116  H73 UNL     1      26.646   3.384  -1.164 +0.09 +0.00    +0.162 HD
ATOM    117  H74 UNL     1      29.008   7.485   2.323 +0.07 +0.00    +0.169 HD
ATOM    118  H75 UNL     1      27.277  10.315   7.168+99.99 +0.00    +0.169 HD
ATOM    119  H76 UNL     1      28.608  14.137  10.638 -0.18 +0.00    +0.170 HD
ATOM    120  H77 UNL     1      24.339  -1.598  -2.475+99.99+99.99    +0.219 HD
ATOM    121  H78 UNL     1       3.517   2.359   1.346 +0.06 +0.00    +0.219 HD
ATOM    122  H79 UNL     1       7.148   6.096   9.685+78.79 +0.00    +0.167 HD
ATOM    123  H80 UNL     1       4.389  13.579   7.211 -0.08 +0.00    +0.167 HD
ATOM    124  H81 UNL     1       5.026   4.518   7.428 +0.06 +0.00    +0.167 HD
ENDROOT
TORSDOF 43
TER
