USER    Run = 1
USER    DPF = ligand_191_receptor.dpf
USER  
USER    Estimated Free Energy of Binding    = +223.07 kcal/mol  [=(1)+(2)+(3)-(4)]
USER    
USER    (1) Final Intermolecular Energy     = +221.87 kcal/mol
USER        vdW + Hbond + desolv Energy     = +221.87 kcal/mol
USER        Electrostatic Energy            =   +0.00 kcal/mol
USER    (2) Final Total Internal Energy     =   +6.60 kcal/mol
USER    (3) Torsional Free Energy           =   +1.19 kcal/mol
USER    (4) Unbound System's Energy  [=(2)] =   +6.60 kcal/mol
USER    
USER    
USER    NEWDPF move ligand_191.pdbqt
USER    NEWDPF about 0.000000 0.000000 0.000000
USER    NEWDPF tran0 16.115846 9.094300 5.461878
USER    NEWDPF quaternion0 -0.407015 0.674867 -0.408086 0.460823
USER    NEWDPF axisangle0 -0.458613 0.760421 -0.459820 125.119518
USER    NEWDPF quat0 -0.458613 0.760421 -0.459820 125.119518
USER    NEWDPF dihe0 -105.38 106.45 -80.82 74.26 179.79 -129.56 0.79 141.32 180.00 -61.93 126.71 172.86 -95.64 21.04 -101.11 -117.12 152.67 -36.13 -180.00 159.17 123.62 54.54 105.98 -169.82 128.02 -166.10 180.00 -45.54 
USER  keepresnum = 1 
USER  
REMARK  28 active torsions:
REMARK  status: ('A' for Active; 'I' for Inactive)
REMARK    1  A    between atoms: C1_1  and  N17_75 
REMARK    2  A    between atoms: C3_3  and  C6_6 
REMARK       I    between atoms: C6_6  and  N2_59 
REMARK    3  A    between atoms: C7_7  and  N2_59 
REMARK    4  A    between atoms: C9_9  and  C12_12 
REMARK       I    between atoms: C12_12  and  N4_61 
REMARK    5  A    between atoms: C13_13  and  C14_14 
REMARK    6  A    between atoms: C13_13  and  N4_61 
REMARK    7  A    between atoms: C14_14  and  C15_15 
REMARK    8  A    between atoms: C15_15  and  C16_16 
REMARK    9  A    between atoms: C15_15  and  N16_74 
REMARK       I    between atoms: C16_16  and  N5_62 
REMARK   10  A    between atoms: C17_17  and  N5_62 
REMARK   11  A    between atoms: C18_18  and  C21_21 
REMARK       I    between atoms: C21_21  and  N8_66 
REMARK   12  A    between atoms: C22_22  and  N8_66 
REMARK   13  A    between atoms: C24_24  and  C27_27 
REMARK       I    between atoms: C27_27  and  N10_68 
REMARK   14  A    between atoms: C28_28  and  N10_68 
REMARK   15  A    between atoms: C30_30  and  C33_33 
REMARK       I    between atoms: C33_33  and  N12_70 
REMARK   16  A    between atoms: C34_34  and  N12_70 
REMARK   17  A    between atoms: C36_36  and  C39_39 
REMARK       I    between atoms: C39_39  and  N14_72 
REMARK   18  A    between atoms: C40_40  and  C41_41 
REMARK   19  A    between atoms: C40_40  and  N14_72 
REMARK   20  A    between atoms: C41_41  and  C42_42 
REMARK   21  A    between atoms: C42_42  and  C43_43 
REMARK   22  A    between atoms: C43_43  and  C44_44 
REMARK   23  A    between atoms: C44_44  and  C45_45 
REMARK   24  A    between atoms: C45_45  and  C46_46 
REMARK   25  A    between atoms: C46_46  and  N15_73 
REMARK   26  A    between atoms: C47_47  and  C48_48 
REMARK       I    between atoms: C47_47  and  N17_75 
REMARK   27  A    between atoms: C50_50  and  N19_77 
REMARK   28  A    between atoms: C52_52  and  C53_53 
REMARK       I    between atoms: C52_52  and  N19_77 
USER                              x       y       z     vdW  Elec       q    Type
USER                           _______ _______ _______ _____ _____    ______ ____
ROOT
ATOM      1  C17 UNL     1       7.793   5.589   6.159 +0.01 +0.00    +0.125 A 
ATOM      2  C18 UNL     1       9.771   6.218   5.626 -0.08 +0.00    +0.178 A 
ATOM      3  C19 UNL     1       8.640   4.722   6.805 -0.33 +0.00    +0.140 A 
ATOM      4  C20 UNL     1      11.128   4.590   6.980 -0.37 +0.00    +0.157 C 
ATOM      5  N6  UNL     1       8.489   6.470   5.390 +1.86 -0.00    -0.323 N 
ATOM      6  H6  UNL     1       8.106   7.178   4.764 +0.22 +0.00    +0.169 HD
ATOM      7  N7  UNL     1       9.898   5.141   6.468 -0.11 -0.00    -0.339 N 
ENDROOT
BRANCH   1   8
ATOM      8  N5  UNL     1       6.434   5.619   6.348 -0.18 -0.00    -0.310 N 
ATOM      9  C16 UNL     1       5.726   6.744   6.722 +1.15 +0.00    +0.256 C 
ATOM     10  O3  UNL     1       6.126   7.909   6.698+34.80 -0.00    -0.271 OA
ATOM     11  H61 UNL     1       6.011   4.710   6.485 +0.08 +0.00    +0.170 HD
BRANCH   9  12
ATOM     12  C15 UNL     1       4.272   6.419   7.142 -0.20 +0.00    +0.310 C 
BRANCH  12  13
ATOM     13  C14 UNL     1       3.522   5.649   6.043 -0.24 +0.00    +0.065 C 
BRANCH  13  14
ATOM     14  C13 UNL     1       4.279   4.428   5.510 -0.23 +0.00    +0.125 C 
BRANCH  14  15
ATOM     15  N4  UNL     1       5.065   4.714   4.328 -0.04 -0.00    -0.356 N 
ATOM     16  C12 UNL     1       5.133   5.969   3.764 -0.07 +0.00    +0.268 C 
ATOM     17  O2  UNL     1       4.497   6.907   4.245 +0.54 -0.00    -0.266 OA
ATOM     18  H60 UNL     1       5.422   3.931   3.802 +0.07 +0.00    +0.162 HD
BRANCH  16  19
ATOM     19  C9  UNL     1       5.988   6.108   2.594 -0.19 +0.00    +0.104 A 
ATOM     20  C8  UNL     1       7.377   6.204   2.628 -0.20 +0.00    +0.066 A 
ATOM     21  C7  UNL     1       7.869   6.274   1.307 -0.21 +0.00    +0.053 A 
ATOM     22  C10 UNL     1       6.776   6.234   0.478 -0.21 +0.00    +0.120 A 
ATOM     23  N3  UNL     1       5.650   6.070   1.251 -0.12 -0.00    -0.354 N 
ATOM     24  C11 UNL     1       4.356   5.779   0.671 +1.02 +0.00    +0.156 C 
BRANCH  21  25
ATOM     25  N2  UNL     1       9.159   6.347   0.823 -0.09 -0.00    -0.320 N 
ATOM     26  C6  UNL     1       9.511   6.457  -0.507 -0.16 +0.00    +0.273 C 
ATOM     27  O1  UNL     1       8.726   6.456  -1.448 -0.17 -0.00    -0.266 OA
ATOM     28  H59 UNL     1       9.896   6.279   1.509 +0.09 +0.00    +0.169 HD
BRANCH  26  29
ATOM     29  C3  UNL     1      10.947   6.538  -0.712 -0.28 +0.00    +0.105 A 
ATOM     30  C2  UNL     1      11.759   7.623  -0.410 +5.98 +0.00    +0.066 A 
ATOM     31  C1  UNL     1      13.088   7.316  -0.784 +1.37 +0.00    +0.053 A 
ATOM     32  C4  UNL     1      13.070   6.033  -1.274 +1.12 +0.00    +0.120 A 
ATOM     33  N1  UNL     1      11.789   5.550  -1.187 -0.14 -0.00    -0.354 N 
ATOM     34  C5  UNL     1      11.434   4.173  -1.461 +4.11 +0.00    +0.156 C 
BRANCH  31  35
ATOM     35  N17 UNL     1      14.164   8.175  -0.657 +4.82 -0.00    -0.320 N 
ATOM     36  C47 UNL     1      14.855   8.452   0.510+15.07 +0.00    +0.273 C 
ATOM     37  O8  UNL     1      14.583   7.966   1.604 +1.89 -0.00    -0.266 OA
ATOM     38  H70 UNL     1      14.441   8.651  -1.503 +9.95 +0.00    +0.169 HD
BRANCH  36  39
ATOM     39  C48 UNL     1      15.958   9.401   0.342 -0.15 +0.00    +0.105 A 
ATOM     40  C51 UNL     1      17.332   9.180   0.291 -0.43 +0.00    +0.066 A 
ATOM     41  C50 UNL     1      17.992  10.418   0.116 -0.42 +0.00    +0.053 A 
ATOM     42  C49 UNL     1      17.018  11.384   0.069 +2.11 +0.00    +0.120 A 
ATOM     43  N18 UNL     1      15.797  10.771   0.209 +0.25 -0.00    -0.354 N 
ATOM     44  C57 UNL     1      14.535  11.484   0.204 +1.60 +0.00    +0.156 C 
BRANCH  41  45
ATOM     45  N19 UNL     1      19.334  10.702   0.007 -0.18 -0.00    -0.319 N 
ATOM     46  C52 UNL     1      19.933  11.428  -1.003 +6.67 +0.00    +0.290 C 
ATOM     47  O9  UNL     1      19.350  11.931  -1.961 +4.40 -0.00    -0.264 OA
ATOM     48  H71 UNL     1      19.962  10.357   0.728 +0.13 +0.00    +0.169 HD
BRANCH  46  49
ATOM     49  C53 UNL     1      21.374  11.536  -0.801 +2.17 +0.00    +0.176 A 
ATOM     50  N20 UNL     1      22.252  10.509  -0.542 +0.01 -0.00    -0.342 N 
ATOM     51  C54 UNL     1      23.505  11.044  -0.421+10.34 +0.00    +0.109 A 
ATOM     52  C56 UNL     1      21.920   9.111  -0.419 +0.15 +0.00    +0.157 C 
ATOM     53  C55 UNL     1      23.340  12.394  -0.614 +3.20 +0.00    +0.107 A 
ATOM     54  N21 UNL     1      22.023  12.694  -0.848 +1.36 -0.00    -0.346 N 
ATOM     55  H21 UNL     1      21.623  13.616  -1.022 +3.74 +0.00    +0.167 HD
ENDBRANCH  46  49
ENDBRANCH  41  45
ENDBRANCH  36  39
ENDBRANCH  31  35
ENDBRANCH  26  29
ENDBRANCH  21  25
ENDBRANCH  16  19
ENDBRANCH  14  15
ENDBRANCH  13  14
ENDBRANCH  12  13
BRANCH  12  56
ATOM     56  N16 UNL     1       4.334   5.573   8.358+13.50 +0.00    +0.092 N 
ATOM     57  H68 UNL     1       3.427   5.105   8.452 +0.24 +0.00    +0.313 HD
ATOM     58  H69 UNL     1       4.995   4.811   8.194 +0.22 +0.00    +0.313 HD
ENDBRANCH  12  56
ENDBRANCH   9  12
ENDBRANCH   1   8
BRANCH   2  59
ATOM     59  C21 UNL     1      10.834   7.051   5.084 -0.21 +0.00    +0.290 C 
ATOM     60  N8  UNL     1      12.063   6.436   5.228 -0.13 -0.00    -0.319 N 
ATOM     61  H62 UNL     1      12.040   5.533   5.700 +0.12 +0.00    +0.169 HD
ATOM     62  O4  UNL     1      10.643   8.144   4.554 -0.34 -0.00    -0.264 OA
BRANCH  60  63
ATOM     63  C22 UNL     1      13.272   6.916   4.781 -0.41 +0.00    +0.053 A 
ATOM     64  C23 UNL     1      13.918   8.147   5.037 -0.38 +0.00    +0.066 A 
ATOM     65  C24 UNL     1      15.132   8.168   4.357 -0.40 +0.00    +0.105 A 
ATOM     66  N9  UNL     1      15.202   6.965   3.676 +0.82 -0.00    -0.354 N 
ATOM     67  C25 UNL     1      14.091   6.204   3.940 +2.70 +0.00    +0.120 A 
ATOM     68  C26 UNL     1      16.294   6.534   2.825+52.63 +0.00    +0.156 C 
BRANCH  65  69
ATOM     69  C27 UNL     1      16.155   9.210   4.305 -0.18 +0.00    +0.273 C 
ATOM     70  N10 UNL     1      17.251   8.872   3.532 -0.27 -0.00    -0.320 N 
ATOM     71  H63 UNL     1      17.226   8.001   3.023 +0.10 +0.00    +0.169 HD
ATOM     72  O5  UNL     1      16.012  10.284   4.881 +4.23 -0.00    -0.266 OA
BRANCH  70  73
ATOM     73  C28 UNL     1      18.377   9.649   3.331 -0.33 +0.00    +0.053 A 
ATOM     74  C29 UNL     1      19.687   9.145   3.149 -0.23 +0.00    +0.066 A 
ATOM     75  C30 UNL     1      20.548  10.214   2.944 +0.28 +0.00    +0.105 A 
ATOM     76  N11 UNL     1      19.788  11.356   3.099 +2.53 -0.00    -0.354 N 
ATOM     77  C31 UNL     1      18.472  11.018   3.283 +0.41 +0.00    +0.120 A 
ATOM     78  C32 UNL     1      20.285  12.715   3.158+21.68 +0.00    +0.156 C 
BRANCH  75  79
ATOM     79  C33 UNL     1      21.975  10.141   2.686 +0.01 +0.00    +0.273 C 
ATOM     80  N12 UNL     1      22.386   8.875   2.312 -0.21 -0.00    -0.320 N 
ATOM     81  H64 UNL     1      21.711   8.127   2.385 +0.13 +0.00    +0.169 HD
ATOM     82  O6  UNL     1      22.707  11.110   2.848+13.39 -0.00    -0.266 OA
BRANCH  80  83
ATOM     83  C34 UNL     1      23.668   8.511   1.951 -0.41 +0.00    +0.053 A 
ATOM     84  C35 UNL     1      24.015   7.326   1.254 -0.37 +0.00    +0.066 A 
ATOM     85  C36 UNL     1      25.394   7.301   1.059 -0.33 +0.00    +0.104 A 
ATOM     86  N13 UNL     1      25.870   8.472   1.627 -0.18 -0.00    -0.354 N 
ATOM     87  C37 UNL     1      24.836   9.196   2.164 -0.41 +0.00    +0.120 A 
ATOM     88  C38 UNL     1      27.255   8.893   1.675 -0.09 +0.00    +0.156 C 
BRANCH  85  89
ATOM     89  C39 UNL     1      26.233   6.310   0.401 -0.24 +0.00    +0.268 C 
ATOM     90  N14 UNL     1      27.487   6.754   0.039 -0.10 -0.00    -0.356 N 
ATOM     91  H65 UNL     1      27.748   7.709   0.226 +0.10 +0.00    +0.162 HD
ATOM     92  O7  UNL     1      25.868   5.161   0.170 -0.33 -0.00    -0.266 OA
BRANCH  90  93
ATOM     93  C40 UNL     1      28.462   5.885  -0.584 -0.21 +0.00    +0.123 C 
BRANCH  93  94
ATOM     94  C41 UNL     1      29.891   6.179  -0.125 -0.19 +0.00    +0.020 C 
BRANCH  94  95
ATOM     95  C42 UNL     1      30.614   4.996   0.532 -0.21 +0.00    +0.002 C 
BRANCH  95  96
ATOM     96  C43 UNL     1      31.299   4.013  -0.424 -0.11 +0.00    +0.000 C 
BRANCH  96  97
ATOM     97  C44 UNL     1      30.335   3.361  -1.419 -0.13 +0.00    +0.002 C 
BRANCH  97  98
ATOM     98  C45 UNL     1      28.886   3.836  -1.260 -0.22 +0.00    +0.030 C 
BRANCH  98  99
ATOM     99  C46 UNL     1      28.150   3.989  -2.591 -0.10 +0.00    +0.267 C 
BRANCH  99 100
ATOM    100  N15 UNL     1      27.397   2.776  -2.890 -0.28 +0.00    +0.078 N 
ATOM    101  H66 UNL     1      28.036   2.050  -3.208 +0.12 +0.00    +0.312 HD
ATOM    102  H67 UNL     1      26.753   2.948  -3.660 +0.17 +0.00    +0.312 HD
ENDBRANCH  99 100
ENDBRANCH  98  99
ENDBRANCH  97  98
ENDBRANCH  96  97
ENDBRANCH  95  96
ENDBRANCH  94  95
ENDBRANCH  93  94
ENDBRANCH  90  93
ENDBRANCH  85  89
ENDBRANCH  80  83
ENDBRANCH  75  79
ENDBRANCH  70  73
ENDBRANCH  65  69
ENDBRANCH  60  63
ENDBRANCH   2  59
TORSDOF 28
TER
