USER    Run = 1
USER    DPF = ligand_538_receptor.dpf
USER  
USER    Estimated Free Energy of Binding    =  +8.35e+003 kcal/mol  [=(1)+(2)+(3)-(4)]
USER    
USER    (1) Final Intermolecular Energy     =  +8.35e+003 kcal/mol
USER        vdW + Hbond + desolv Energy     =  +8.35e+003 kcal/mol
USER        Electrostatic Energy            =   +0.00 kcal/mol
USER    (2) Final Total Internal Energy     =   +0.00 kcal/mol
USER    (3) Torsional Free Energy           =   +1.19 kcal/mol
USER    (4) Unbound System's Energy  [=(2)] =   +0.00 kcal/mol
USER    
USER    
USER    NEWDPF move ligand_538.pdbqt
USER    NEWDPF about 0.000000 0.000000 0.000000
USER    NEWDPF tran0 14.711538 7.597977 3.374769
USER    NEWDPF quaternion0 0.709332 0.148800 0.248963 -0.642436
USER    NEWDPF axisangle0 0.925611 0.194170 0.324873 -100.052567
USER    NEWDPF quat0 0.925611 0.194170 0.324873 -100.052567
USER  keepresnum = 1 
USER  
REMARK  0 active torsions:
REMARK  status: ('A' for Active; 'I' for Inactive)
REMARK       I    between atoms: C2_2  and  N1_89 
REMARK       I    between atoms: C3_3  and  N1_89 
REMARK       I    between atoms: C4_4  and  O22_88 
REMARK       I    between atoms: C6_6  and  C24_24 
REMARK       I    between atoms: C6_6  and  O9_75 
REMARK       I    between atoms: C7_7  and  C8_8 
REMARK       I    between atoms: C8_8  and  C9_9 
REMARK       I    between atoms: C8_8  and  O6_72 
REMARK       I    between atoms: C9_9  and  C10_10 
REMARK       I    between atoms: C9_9  and  O5_71 
REMARK       I    between atoms: C10_10  and  N2_90 
REMARK       I    between atoms: C11_11  and  C12_12 
REMARK       I    between atoms: C11_11  and  N2_90 
REMARK       I    between atoms: C15_15  and  C18_18 
REMARK       I    between atoms: C21_21  and  O4_70 
REMARK       I    between atoms: C24_24  and  O8_74 
REMARK       I    between atoms: C25_25  and  C26_26 
REMARK       I    between atoms: C25_25  and  O9_75 
REMARK       I    between atoms: C26_26  and  C27_27 
REMARK       I    between atoms: C27_27  and  S1_95 
REMARK       I    between atoms: C28_28  and  C29_29 
REMARK       I    between atoms: C28_28  and  S1_95 
REMARK       I    between atoms: C29_29  and  N3_91 
REMARK       I    between atoms: C30_30  and  C31_31 
REMARK       I    between atoms: C30_30  and  N3_91 
REMARK       I    between atoms: C34_34  and  C37_37 
REMARK       I    between atoms: C37_37  and  N4_92 
REMARK       I    between atoms: C38_38  and  C39_39 
REMARK       I    between atoms: C38_38  and  N4_92 
REMARK       I    between atoms: C39_39  and  S2_96 
REMARK       I    between atoms: C40_40  and  C41_41 
REMARK       I    between atoms: C40_40  and  S2_96 
REMARK       I    between atoms: C41_41  and  C42_42 
REMARK       I    between atoms: C42_42  and  O12_78 
REMARK       I    between atoms: C43_43  and  C66_66 
REMARK       I    between atoms: C43_43  and  O12_78 
REMARK       I    between atoms: C45_45  and  O19_85 
REMARK       I    between atoms: C46_46  and  N6_94 
REMARK       I    between atoms: C47_47  and  C48_48 
REMARK       I    between atoms: C48_48  and  C49_49 
REMARK       I    between atoms: C48_48  and  O17_83 
REMARK       I    between atoms: C49_49  and  C50_50 
REMARK       I    between atoms: C49_49  and  O16_82 
REMARK       I    between atoms: C50_50  and  N5_93 
REMARK       I    between atoms: C51_51  and  C52_52 
REMARK       I    between atoms: C51_51  and  N5_93 
REMARK       I    between atoms: C55_55  and  C58_58 
REMARK       I    between atoms: C61_61  and  O15_81 
REMARK       I    between atoms: C64_64  and  N6_94 
REMARK       I    between atoms: C66_66  and  O21_87 
USER                              x       y       z     vdW  Elec       q    Type
USER                           _______ _______ _______ _____ _____    ______ ____
ROOT
ATOM      1  C1  UNL     1      21.204   9.861   5.119+99.99 +0.00    +0.117 C 
ATOM      2  C2  UNL     1      19.769   9.989   4.688+99.99 +0.00    +0.214 C 
ATOM      3  C3  UNL     1      18.192   9.664   2.802 -0.42 +0.00    +0.145 C 
ATOM      4  C4  UNL     1      17.311   8.572   3.454 -0.51 +0.00    +0.149 C 
ATOM      5  C5  UNL     1      16.385   7.871   2.461 +0.01 +0.00    +0.114 C 
ATOM      6  C6  UNL     1      15.855   8.807   1.360 -0.13 +0.00    +0.255 C 
ATOM      7  C7  UNL     1      18.202   9.482   1.271 -0.25 +0.00    +0.182 C 
ATOM      8  C8  UNL     1      19.060  10.565   0.563 -0.44 +0.00    +0.179 C 
ATOM      9  C9  UNL     1      19.462  10.237  -0.895+28.52 +0.00    +0.167 C 
ATOM     10  C10 UNL     1      20.349   8.994  -1.065+26.77 +0.00    +0.157 C 
ATOM     11  C11 UNL     1      22.033   8.834   0.752 +0.33 +0.00    +0.251 C 
ATOM     12  C12 UNL     1      23.466   8.969   1.122 -0.43 +0.00    +0.032 A 
ATOM     13  C13 UNL     1      23.979   8.128   2.115 -0.40 +0.00    +0.018 A 
ATOM     14  C14 UNL     1      25.319   8.233   2.502 -0.52 +0.00    +0.013 A 
ATOM     15  C15 UNL     1      26.171   9.183   1.915 -0.45 -0.00    -0.026 A 
ATOM     16  C16 UNL     1      25.635  10.031   0.930 +8.97 +0.00    +0.013 A 
ATOM     17  C17 UNL     1      24.295   9.931   0.537 +3.99 +0.00    +0.018 A 
ATOM     18  C18 UNL     1      27.579   9.294   2.326 +3.93 -0.00    -0.026 A 
ATOM     19  C19 UNL     1      27.927   9.468   3.676+23.17 +0.00    +0.015 A 
ATOM     20  C20 UNL     1      29.264   9.573   4.066+99.99 +0.00    +0.037 A 
ATOM     21  C21 UNL     1      30.268   9.504   3.111+99.99 +0.00    +0.065 A 
ATOM     22  C22 UNL     1      29.957   9.332   1.767+99.99 +0.00    +0.037 A 
ATOM     23  C23 UNL     1      28.617   9.228   1.380+12.79 +0.00    +0.015 A 
ATOM     24  C24 UNL     1      15.254   7.892   0.242 +0.89 +0.00    +0.205 C 
ATOM     25  C25 UNL     1      14.261  10.617   1.196+99.99 +0.00    +0.172 C 
ATOM     26  C26 UNL     1      13.628  11.650   2.128+17.04 +0.00    +0.036 C 
ATOM     27  C27 UNL     1      14.691  12.315   3.004+45.92 +0.00    +0.076 C 
ATOM     28  C28 UNL     1      15.347  13.814   5.296+14.84 +0.00    +0.093 C 
ATOM     29  C29 UNL     1      16.231  12.651   5.772+99.99 +0.00    +0.133 C 
ATOM     30  C30 UNL     1      14.863  11.586   7.528 +5.65 +0.00    +0.251 C 
ATOM     31  C31 UNL     1      13.985  10.436   7.895 +0.36 +0.00    +0.032 A 
ATOM     32  C32 UNL     1      13.462   9.557   6.940 +0.75 +0.00    +0.018 A 
ATOM     33  C33 UNL     1      12.622   8.514   7.338 -0.48 +0.00    +0.018 A 
ATOM     34  C34 UNL     1      12.284   8.346   8.683 +4.53 +0.00    +0.032 A 
ATOM     35  C35 UNL     1      12.793   9.225   9.643+25.20 +0.00    +0.018 A 
ATOM     36  C36 UNL     1      13.639  10.268   9.246 +4.85 +0.00    +0.018 A 
ATOM     37  C37 UNL     1      11.373   7.230   9.046+99.99 +0.00    +0.251 C 
ATOM     38  C38 UNL     1      10.998   5.323  10.539+99.99 +0.00    +0.133 C 
ATOM     39  C39 UNL     1      11.469   4.133   9.693+15.76 +0.00    +0.093 C 
ATOM     40  C40 UNL     1      14.163   4.648   9.046+15.55 +0.00    +0.076 C 
ATOM     41  C41 UNL     1      14.731   3.902   7.840 +5.56 +0.00    +0.036 C 
ATOM     42  C42 UNL     1      13.713   3.580   6.748 +0.83 +0.00    +0.172 C 
ATOM     43  C43 UNL     1      12.479   4.772   5.013 +1.20 +0.00    +0.255 C 
ATOM     44  C44 UNL     1      13.589   4.813   3.948+99.99 +0.00    +0.114 C 
ATOM     45  C45 UNL     1      13.039   5.123   2.568+99.99 +0.00    +0.149 C 
ATOM     46  C46 UNL     1      12.209   6.419   2.588 -0.19 +0.00    +0.145 C 
ATOM     47  C47 UNL     1      11.136   6.316   3.692 -0.25 +0.00    +0.182 C 
ATOM     48  C48 UNL     1      10.295   7.608   3.811 -0.35 +0.00    +0.179 C 
ATOM     49  C49 UNL     1       9.414   7.730   5.072 +8.96 +0.00    +0.167 C 
ATOM     50  C50 UNL     1       8.625   6.480   5.494 +4.35 +0.00    +0.157 C 
ATOM     51  C51 UNL     1       7.007   6.232   3.622 -0.06 +0.00    +0.251 C 
ATOM     52  C52 UNL     1       6.402   5.307   2.626 -0.15 +0.00    +0.032 A 
ATOM     53  C53 UNL     1       5.082   5.532   2.226 -0.19 +0.00    +0.018 A 
ATOM     54  C54 UNL     1       4.477   4.693   1.284 -0.15 +0.00    +0.013 A 
ATOM     55  C55 UNL     1       5.181   3.620   0.711 -0.10 -0.00    -0.026 A 
ATOM     56  C56 UNL     1       6.512   3.416   1.113 -0.10 +0.00    +0.013 A 
ATOM     57  C57 UNL     1       7.121   4.249   2.060 -0.12 +0.00    +0.018 A 
ATOM     58  C58 UNL     1       4.547   2.742  -0.286 -0.09 -0.00    -0.026 A 
ATOM     59  C59 UNL     1       4.549   1.345  -0.126 -0.15 +0.00    +0.015 A 
ATOM     60  C60 UNL     1       3.948   0.512  -1.073 +0.08 +0.00    +0.037 A 
ATOM     61  C61 UNL     1       3.340   1.066  -2.191 -0.07 +0.00    +0.065 A 
ATOM     62  C62 UNL     1       3.322   2.443  -2.378 -0.06 +0.00    +0.037 A 
ATOM     63  C63 UNL     1       3.924   3.274  -1.428 -0.12 +0.00    +0.015 A 
ATOM     64  C64 UNL     1      10.775   5.957   0.583 -0.22 +0.00    +0.214 C 
ATOM     65  C65 UNL     1      10.406   6.472  -0.781 -0.28 +0.00    +0.117 C 
ATOM     66  C66 UNL     1      11.512   3.536   4.819 +0.13 +0.00    +0.205 C 
ATOM     67  O1  UNL     1      18.873  10.337   5.452+99.99 -0.00    -0.274 OA
ATOM     68  O2  UNL     1      16.865   9.631   0.765 -0.28 -0.00    -0.336 OA
ATOM     69  O3  UNL     1      21.217   8.452   1.586 +5.55 -0.00    -0.268 OA
ATOM     70  O4  UNL     1      31.558   9.610   3.535 +1.92 -0.00    -0.361 OA
ATOM     71  O5  UNL     1      18.299  10.085  -1.721+28.89 -0.00    -0.391 OA
ATOM     72  O6  UNL     1      18.306  11.800   0.528 -0.29 -0.00    -0.390 OA
ATOM     73  O7  UNL     1      14.072   7.694  -0.010 +0.58 -0.00    -0.646 OA
ATOM     74  O8  UNL     1      16.208   7.270  -0.495 +0.56 -0.00    -0.772 OA
ATOM     75  O9  UNL     1      14.907   9.644   2.009 +4.97 -0.00    -0.346 OA
ATOM     76  O10 UNL     1      15.004  12.525   8.306+10.55 -0.00    -0.268 OA
ATOM     77  O11 UNL     1      10.460   6.897   8.298+99.99 -0.00    -0.268 OA
ATOM     78  O12 UNL     1      13.115   4.791   6.302 -0.32 -0.00    -0.346 OA
ATOM     79  O13 UNL     1      11.753   6.012   4.954 -0.15 -0.00    -0.336 OA
ATOM     80  O14 UNL     1       6.599   7.385   3.728 +6.82 -0.00    -0.268 OA
ATOM     81  O15 UNL     1       2.766   0.217  -3.090 -0.04 -0.00    -0.361 OA
ATOM     82  O16 UNL     1       8.536   8.858   4.858+99.99 -0.00    -0.391 OA
ATOM     83  O17 UNL     1      11.146   8.777   3.771 -0.22 -0.00    -0.390 OA
ATOM     84  O18 UNL     1      10.305   4.922   1.043 +0.37 -0.00    -0.274 OA
ATOM     85  O19 UNL     1      14.136   5.261   1.652+99.99 -0.00    -0.393 OA
ATOM     86  O20 UNL     1      10.289   3.531   4.881 -0.08 -0.00    -0.646 OA
ATOM     87  O21 UNL     1      12.155   2.376   4.551 +3.67 -0.00    -0.772 OA
ATOM     88  O22 UNL     1      16.571   9.129   4.549 -0.16 -0.00    -0.393 OA
ATOM     89  N1  UNL     1      19.536   9.643   3.381 +0.33 -0.00    -0.352 N 
ATOM     90  N2  UNL     1      21.697   9.155  -0.544 +0.13 -0.00    -0.354 N 
ATOM     91  N3  UNL     1      15.492  11.526   6.306+99.99 -0.00    -0.356 N 
ATOM     92  N4  UNL     1      11.667   6.569  10.222 +3.84 -0.00    -0.356 N 
ATOM     93  N5  UNL     1       8.024   5.731   4.400 -0.06 -0.00    -0.354 N 
ATOM     94  N6  UNL     1      11.694   6.727   1.250 -0.19 -0.00    -0.352 N 
ATOM     95  S1  UNL     1      13.903  13.390   4.239+81.76 -0.00    -0.167 SA
ATOM     96  S2  UNL     1      13.161   3.574  10.130+99.99 -0.00    -0.167 SA
ATOM     97  H65 UNL     1      32.147   9.545   2.765 -0.01 +0.00    +0.217 HD
ATOM     98  H66 UNL     1      17.768  10.891  -1.572 +0.42 +0.00    +0.210 HD
ATOM     99  H67 UNL     1      17.366  11.531   0.560 +0.18 +0.00    +0.210 HD
ATOM    100  H68 UNL     1      15.724   6.762  -1.176 +0.14 +0.00    +0.167 HD
ATOM    101  H69 UNL     1       2.374   0.744  -3.805 +0.03 +0.00    +0.217 HD
ATOM    102  H70 UNL     1       7.722   8.502   4.434 +7.34 +0.00    +0.210 HD
ATOM    103  H71 UNL     1      10.569   9.514   4.061 -0.05 +0.00    +0.210 HD
ATOM    104  H72 UNL     1      13.746   5.664   0.851 +0.29 +0.00    +0.210 HD
ATOM    105  H73 UNL     1      11.430   1.719   4.459 -0.06 +0.00    +0.167 HD
ATOM    106  H74 UNL     1      17.243   9.558   5.129 +0.15 +0.00    +0.210 HD
ATOM    107  H75 UNL     1      20.266   9.127   2.882 +0.10 +0.00    +0.163 HD
ATOM    108  H76 UNL     1      22.432   9.333  -1.217 +0.21 +0.00    +0.162 HD
ATOM    109  H77 UNL     1      15.405  10.705   5.717 +9.14 +0.00    +0.162 HD
ATOM    110  H78 UNL     1      12.552   6.755  10.676 +0.22 +0.00    +0.162 HD
ATOM    111  H79 UNL     1       8.226   4.736   4.385 +0.09 +0.00    +0.162 HD
ATOM    112  H80 UNL     1      12.150   7.494   0.761 +0.12 +0.00    +0.163 HD
ENDROOT
TORSDOF 44
TER
