USER    Run = 1
USER    DPF = ligand_57_receptor.dpf
USER  
USER    Estimated Free Energy of Binding    =  -12.93 kcal/mol  [=(1)+(2)+(3)-(4)]
USER    Estimated Inhibition Constant, Ki   =  330.82 pM (picomolar)  [Temperature = 298.15 K]
USER    
USER    (1) Final Intermolecular Energy     =  -14.13 kcal/mol
USER        vdW + Hbond + desolv Energy     =  -14.13 kcal/mol
USER        Electrostatic Energy            =   +0.00 kcal/mol
USER    (2) Final Total Internal Energy     =   -1.92 kcal/mol
USER    (3) Torsional Free Energy           =   +1.19 kcal/mol
USER    (4) Unbound System's Energy  [=(2)] =   -1.92 kcal/mol
USER    
USER    
USER    NEWDPF move ligand_57.pdbqt
USER    NEWDPF about 0.000000 0.000000 0.000000
USER    NEWDPF tran0 12.534165 9.270277 3.796130
USER    NEWDPF quaternion0 0.413304 0.282426 0.369071 -0.783072
USER    NEWDPF axisangle0 0.664550 0.454111 0.593427 -76.914577
USER    NEWDPF quat0 0.664550 0.454111 0.593427 -76.914577
USER    NEWDPF dihe0 122.47 162.38 178.21 -23.52 -150.98 180.00 -82.11 165.83 180.00 179.10 180.00 175.52 
USER  keepresnum = 1 
USER  
REMARK  12 active torsions:
REMARK  status: ('A' for Active; 'I' for Inactive)
REMARK    1  A    between atoms: C3_3  and  C23_23 
REMARK    2  A    between atoms: C5_5  and  C8_8 
REMARK       I    between atoms: C8_8  and  N1_33 
REMARK    3  A    between atoms: C9_9  and  N1_33 
REMARK    4  A    between atoms: C11_11  and  C22_22 
REMARK    5  A    between atoms: C12_12  and  C15_15 
REMARK    6  A    between atoms: C15_15  and  N2_34 
REMARK    7  A    between atoms: C20_20  and  C21_21 
REMARK    8  A    between atoms: C20_20  and  N3_35 
REMARK    9  A    between atoms: C21_21  and  O2_32 
REMARK   10  A    between atoms: C24_24  and  C25_25 
REMARK   11  A    between atoms: C27_27  and  C30_30 
REMARK   12  A    between atoms: C28_28  and  N5_38 
USER                              x       y       z     vdW  Elec       q    Type
USER                           _______ _______ _______ _____ _____    ______ ____
ROOT
ATOM      1  C8  UNL     1      15.733   8.266   3.793 -0.39 +0.00    +0.256 C 
ATOM      2  O1  UNL     1      16.123   7.529   4.690 -0.66 -0.00    -0.267 OA
ATOM      3  N1  UNL     1      14.486   8.262   3.194 -0.23 -0.00    -0.323 N 
ATOM      4  H28 UNL     1      14.369   8.843   2.375 -0.45 +0.00    +0.169 HD
ENDROOT
BRANCH   1   5
ATOM      5  C5  UNL     1      16.692   9.260   3.235 -0.49 +0.00    +0.033 A 
ATOM      6  C4  UNL     1      18.066   8.997   3.168 -0.49 +0.00    +0.038 A 
ATOM      7  C3  UNL     1      18.938   9.954   2.633 -0.40 +0.00    +0.025 A 
ATOM      8  C2  UNL     1      18.441  11.180   2.153 -0.48 -0.00    -0.043 A 
ATOM      9  C1  UNL     1      19.352  12.227   1.570 -0.73 +0.00    +0.049 C 
ATOM     10  C7  UNL     1      17.060  11.422   2.207 -0.54 +0.00    +0.009 A 
ATOM     11  C6  UNL     1      16.190  10.467   2.739 -0.41 +0.00    +0.017 A 
BRANCH   7  12
ATOM     12  C23 UNL     1      20.337   9.644   2.579 -0.41 -0.00    -0.061 C 
ATOM     13  C24 UNL     1      21.509   9.384   2.534 -0.45 -0.00    -0.060 C 
BRANCH  13  14
ATOM     14  C25 UNL     1      22.901   9.069   2.486 -0.44 +0.00    +0.034 A 
ATOM     15  C26 UNL     1      23.388   8.117   1.597 -0.40 +0.00    +0.038 A 
ATOM     16  C27 UNL     1      24.759   7.836   1.585 -0.42 +0.00    +0.018 A 
ATOM     17  C28 UNL     1      25.608   8.514   2.471 -0.48 +0.00    +0.089 A 
ATOM     18  N4  UNL     1      25.137   9.450   3.323 -0.31 -0.00    -0.355 N 
ATOM     19  C29 UNL     1      23.807   9.702   3.322 -0.49 +0.00    +0.110 A 
ATOM     20  H4  UNL     1      25.766   9.953   3.950 +0.09 +0.00    +0.166 HD
BRANCH  16  21
ATOM     21  C30 UNL     1      25.235   6.804   0.643 -0.40 +0.00    +0.095 C 
ATOM     22  N6  UNL     1      26.474   6.684   0.288 -0.08 -0.00    -0.407 N 
ATOM     23  H31 UNL     1      26.573   5.895  -0.365 +0.10 +0.00    +0.155 HD
ATOM     24  H6  UNL     1      27.238   7.281   0.608 +0.10 +0.00    +0.155 HD
ENDBRANCH  16  21
BRANCH  17  25
ATOM     25  N5  UNL     1      27.001   8.342   2.452 -0.32 -0.00    -0.288 NA
ATOM     26  H29 UNL     1      27.415   9.259   2.256 +0.05 +0.00    +0.125 HD
ATOM     27  H30 UNL     1      27.307   8.156   3.404 -0.46 +0.00    +0.125 HD
ENDBRANCH  17  25
ENDBRANCH  13  14
ENDBRANCH   7  12
ENDBRANCH   1   5
BRANCH   3  28
ATOM     28  C9  UNL     1      13.375   7.465   3.542 -0.42 +0.00    +0.035 A 
ATOM     29  C10 UNL     1      13.509   6.632   4.660 -0.39 +0.00    +0.046 A 
ATOM     30  C11 UNL     1      12.458   5.794   5.095 -0.29 +0.00    +0.058 A 
ATOM     31  C12 UNL     1      11.250   5.782   4.364 -0.28 -0.00    -0.015 A 
ATOM     32  C13 UNL     1      11.124   6.624   3.246 -0.33 +0.00    +0.012 A 
ATOM     33  C14 UNL     1      12.174   7.453   2.840 -0.33 +0.00    +0.030 A 
BRANCH  30  34
ATOM     34  C22 UNL     1      12.690   4.920   6.312 -0.23 +0.00    +0.418 C 
ATOM     35  F1  UNL     1      11.923   5.266   7.381 -0.11 -0.00    -0.166 F 
ATOM     36  F2  UNL     1      13.983   4.888   6.741 -0.23 -0.00    -0.166 F 
ATOM     37  F3  UNL     1      12.378   3.609   6.066 -0.17 -0.00    -0.166 F 
ENDBRANCH  30  34
BRANCH  31  38
ATOM     38  C15 UNL     1      10.079   4.893   4.741 -0.16 +0.00    +0.311 C 
BRANCH  38  39
ATOM     39  N2  UNL     1       8.974   5.639   5.349 -0.22 +0.00    +0.096 N 
ATOM     40  C16 UNL     1       8.181   4.840   6.302 -0.24 +0.00    +0.303 C 
ATOM     41  C17 UNL     1       7.173   3.862   5.650 -0.03 +0.00    +0.302 C 
ATOM     42  N3  UNL     1       6.342   4.434   4.564 -0.20 +0.00    +0.093 N 
ATOM     43  C18 UNL     1       6.602   5.878   4.425 -0.01 +0.00    +0.302 C 
ATOM     44  C19 UNL     1       8.102   6.238   4.311 -0.03 +0.00    +0.303 C 
BRANCH  42  45
ATOM     45  C20 UNL     1       6.512   3.667   3.316 -0.10 +0.00    +0.298 C 
BRANCH  45  46
ATOM     46  C21 UNL     1       7.542   2.524   3.381 -0.17 +0.00    +0.194 C 
BRANCH  46  47
ATOM     47  O2  UNL     1       8.821   2.938   2.901 -0.14 -0.00    -0.399 OA
ATOM     48  H27 UNL     1       9.391   2.152   2.879 -0.44 +0.00    +0.209 HD
ENDBRANCH  46  47
ENDBRANCH  45  46
ENDBRANCH  42  45
ENDBRANCH  38  39
ENDBRANCH  31  38
ENDBRANCH   3  28
TORSDOF 12
TER
