USER    Run = 1
USER    DPF = ligand_242_receptor.dpf
USER  
USER    Estimated Free Energy of Binding    =  +4.99e+006 kcal/mol  [=(1)+(2)+(3)-(4)]
USER    
USER    (1) Final Intermolecular Energy     =  +4.99e+006 kcal/mol
USER        vdW + Hbond + desolv Energy     =  +2.72e+006 kcal/mol
USER        Electrostatic Energy            =  +2.27e+006 kcal/mol
USER    (2) Final Total Internal Energy     =   +0.00 kcal/mol
USER    (3) Torsional Free Energy           =   +1.19 kcal/mol
USER    (4) Unbound System's Energy  [=(2)] =   +0.00 kcal/mol
USER    
USER    
USER    NEWDPF move ligand_242.pdbqt
USER    NEWDPF about 0.000000 0.000000 0.000000
USER    NEWDPF tran0 16.873857 7.640145 1.442452
USER    NEWDPF quaternion0 0.137899 0.922760 -0.291675 0.210771
USER    NEWDPF axisangle0 0.141068 0.943965 -0.298378 155.664875
USER    NEWDPF quat0 0.141068 0.943965 -0.298378 155.664875
USER  keepresnum = 1 
USER  
REMARK  0 active torsions:
REMARK  status: ('A' for Active; 'I' for Inactive)
REMARK       I    between atoms: C2_2  and  N1_89 
REMARK       I    between atoms: C3_3  and  N1_89 
REMARK       I    between atoms: C4_4  and  O20_88 
REMARK       I    between atoms: C6_6  and  C25_25 
REMARK       I    between atoms: C6_6  and  O8_76 
REMARK       I    between atoms: C7_7  and  C8_8 
REMARK       I    between atoms: C8_8  and  C9_9 
REMARK       I    between atoms: C8_8  and  O5_73 
REMARK       I    between atoms: C9_9  and  C10_10 
REMARK       I    between atoms: C9_9  and  O4_72 
REMARK       I    between atoms: C10_10  and  N2_90 
REMARK       I    between atoms: C11_11  and  C12_12 
REMARK       I    between atoms: C11_11  and  N2_90 
REMARK       I    between atoms: C12_12  and  C13_13 
REMARK       I    between atoms: C16_16  and  C19_19 
REMARK       I    between atoms: C25_25  and  O7_75 
REMARK       I    between atoms: C26_26  and  C27_27 
REMARK       I    between atoms: C26_26  and  O8_76 
REMARK       I    between atoms: C27_27  and  C28_28 
REMARK       I    between atoms: C28_28  and  S1_95 
REMARK       I    between atoms: C29_29  and  C30_30 
REMARK       I    between atoms: C29_29  and  S1_95 
REMARK       I    between atoms: C30_30  and  N3_91 
REMARK       I    between atoms: C31_31  and  C32_32 
REMARK       I    between atoms: C31_31  and  N3_91 
REMARK       I    between atoms: C35_35  and  C38_38 
REMARK       I    between atoms: C38_38  and  N4_92 
REMARK       I    between atoms: C39_39  and  C40_40 
REMARK       I    between atoms: C39_39  and  N4_92 
REMARK       I    between atoms: C40_40  and  S2_96 
REMARK       I    between atoms: C41_41  and  C42_42 
REMARK       I    between atoms: C41_41  and  S2_96 
REMARK       I    between atoms: C42_42  and  C43_43 
REMARK       I    between atoms: C43_43  and  O11_79 
REMARK       I    between atoms: C44_44  and  C68_68 
REMARK       I    between atoms: C44_44  and  O11_79 
REMARK       I    between atoms: C46_46  and  O17_85 
REMARK       I    between atoms: C47_47  and  N6_94 
REMARK       I    between atoms: C48_48  and  C49_49 
REMARK       I    between atoms: C49_49  and  C50_50 
REMARK       I    between atoms: C49_49  and  O15_83 
REMARK       I    between atoms: C50_50  and  C51_51 
REMARK       I    between atoms: C50_50  and  O14_82 
REMARK       I    between atoms: C51_51  and  N5_93 
REMARK       I    between atoms: C52_52  and  C53_53 
REMARK       I    between atoms: C52_52  and  N5_93 
REMARK       I    between atoms: C53_53  and  C54_54 
REMARK       I    between atoms: C57_57  and  C60_60 
REMARK       I    between atoms: C66_66  and  N6_94 
REMARK       I    between atoms: C68_68  and  O19_87 
USER                              x       y       z     vdW  Elec       q    Type
USER                           _______ _______ _______ _____ _____    ______ ____
ROOT
ATOM      1  C1  UNL     1      30.576   5.295  -3.106 -0.08 +0.00    +0.117 C 
ATOM      2  C2  UNL     1      29.118   4.923  -3.160 -0.08 +0.00    +0.214 C 
ATOM      3  C3  UNL     1      26.811   5.875  -3.392+99.99 +0.00    +0.145 C 
ATOM      4  C4  UNL     1      26.180   7.271  -3.257+99.99 +0.00    +0.149 C 
ATOM      5  C5  UNL     1      24.672   7.148  -3.352+17.58 +0.00    +0.114 C 
ATOM      6  C6  UNL     1      24.132   6.346  -2.156 -0.28 +0.00    +0.255 C 
ATOM      7  C7  UNL     1      26.086   4.860  -2.464 +0.84 +0.00    +0.182 C 
ATOM      8  C8  UNL     1      25.542   3.642  -3.262 +1.23 +0.00    +0.179 C 
ATOM      9  C9  UNL     1      25.096   2.423  -2.418+21.12 +0.00    +0.167 C 
ATOM     10  C10 UNL     1      26.182   1.896  -1.466+92.14 +0.00    +0.157 C 
ATOM     11  C11 UNL     1      27.531   0.293  -2.768+71.36 +0.00    +0.221 C 
ATOM     12  C12 UNL     1      28.821   0.114  -3.547 +0.35 +0.00    +0.141 C 
ATOM     13  C13 UNL     1      30.057   0.132  -2.680 +0.80 -0.00    -0.049 A 
ATOM     14  C14 UNL     1      31.017   1.139  -2.828 -0.14 +0.00    +0.008 A 
ATOM     15  C15 UNL     1      32.158   1.156  -2.021 -0.08 +0.00    +0.013 A 
ATOM     16  C16 UNL     1      32.372   0.169  -1.046+84.23 -0.00    -0.026 A 
ATOM     17  C17 UNL     1      31.406  -0.839  -0.909+49.18 +0.00    +0.013 A 
ATOM     18  C18 UNL     1      30.263  -0.860  -1.715+50.99 +0.00    +0.008 A 
ATOM     19  C19 UNL     1      33.574   0.191  -0.195+99.99+99.99    -0.026 A 
ATOM     20  C20 UNL     1      34.859   0.247  -0.758+99.99+99.99    +0.012 A 
ATOM     21  C21 UNL     1      36.000   0.268   0.049+99.99+99.99    +0.001 A 
ATOM     22  C22 UNL     1      35.873   0.234   1.436+99.99+99.99    +0.000 A 
ATOM     23  C23 UNL     1      34.608   0.180   2.015+99.99+99.99    +0.001 A 
ATOM     24  C24 UNL     1      33.468   0.157   1.205+99.99+99.99    +0.012 A 
ATOM     25  C25 UNL     1      23.848   7.329  -0.972 -0.44 +0.00    +0.205 C 
ATOM     26  C26 UNL     1      21.848   6.302  -2.946+99.99 +0.00    +0.172 C 
ATOM     27  C27 UNL     1      20.737   5.294  -3.231+99.99 +0.00    +0.036 C 
ATOM     28  C28 UNL     1      19.446   6.000  -3.626+99.99 +0.00    +0.076 C 
ATOM     29  C29 UNL     1      17.885   3.864  -2.605+99.99 +0.00    +0.093 C 
ATOM     30  C30 UNL     1      17.477   4.689  -1.386+99.99 +0.00    +0.133 C 
ATOM     31  C31 UNL     1      15.694   6.194  -0.609+99.99 +0.00    +0.251 C 
ATOM     32  C32 UNL     1      14.604   7.134  -0.990 +2.39 +0.00    +0.032 A 
ATOM     33  C33 UNL     1      13.857   6.975  -2.165+42.67 +0.00    +0.018 A 
ATOM     34  C34 UNL     1      12.838   7.882  -2.473+99.99 +0.00    +0.018 A 
ATOM     35  C35 UNL     1      12.544   8.942  -1.606+99.99 +0.00    +0.032 A 
ATOM     36  C36 UNL     1      13.295   9.104  -0.435+99.99 +0.00    +0.018 A 
ATOM     37  C37 UNL     1      14.314   8.198  -0.126+12.45 +0.00    +0.018 A 
ATOM     38  C38 UNL     1      11.448   9.878  -1.972+99.99 +0.00    +0.251 C 
ATOM     39  C39 UNL     1       9.546  11.211  -1.187+99.76 +0.00    +0.133 C 
ATOM     40  C40 UNL     1       9.081  12.070  -0.010+99.99 +0.00    +0.093 C 
ATOM     41  C41 UNL     1      11.528  13.560   0.110+99.99 +0.00    +0.076 C 
ATOM     42  C42 UNL     1      12.110  13.437   1.518+99.99 +0.00    +0.036 C 
ATOM     43  C43 UNL     1      11.673  12.184   2.260+14.96 +0.00    +0.172 C 
ATOM     44  C44 UNL     1      12.113  10.918   4.262+99.99 +0.00    +0.255 C 
ATOM     45  C45 UNL     1      12.129   9.539   3.569 +7.17 +0.00    +0.114 C 
ATOM     46  C46 UNL     1      10.775   9.001   3.105 +9.21 +0.00    +0.149 C 
ATOM     47  C47 UNL     1       9.549   9.528   3.890 +4.02 +0.00    +0.145 C 
ATOM     48  C48 UNL     1      10.010  10.172   5.205+27.32 +0.00    +0.182 C 
ATOM     49  C49 UNL     1       8.830  10.788   6.002+99.99 +0.00    +0.179 C 
ATOM     50  C50 UNL     1       9.230  11.024   7.471+99.99 +0.00    +0.167 C 
ATOM     51  C51 UNL     1       8.215  11.876   8.262+99.99 +0.00    +0.157 C 
ATOM     52  C52 UNL     1       6.333  10.310   8.725+26.51 +0.00    +0.221 C 
ATOM     53  C53 UNL     1       4.846  10.062   8.535 -0.15 +0.00    +0.141 C 
ATOM     54  C54 UNL     1       3.976  11.273   8.772 +7.58 -0.00    -0.049 A 
ATOM     55  C55 UNL     1       3.293  11.880   7.713 -0.35 +0.00    +0.008 A 
ATOM     56  C56 UNL     1       2.503  13.012   7.936 -0.25 +0.00    +0.013 A 
ATOM     57  C57 UNL     1       2.374  13.567   9.220 +0.93 -0.00    -0.026 A 
ATOM     58  C58 UNL     1       3.062  12.947  10.274+99.99 +0.00    +0.013 A 
ATOM     59  C59 UNL     1       3.851  11.815  10.057+99.99 +0.00    +0.008 A 
ATOM     60  C60 UNL     1       1.543  14.760   9.452+99.99+99.99    -0.026 A 
ATOM     61  C61 UNL     1       2.068  15.895  10.092+99.99+99.99    +0.012 A 
ATOM     62  C62 UNL     1       1.280  17.029  10.312+99.99+99.99    +0.001 A 
ATOM     63  C63 UNL     1      -0.048  17.046   9.894+99.99+99.99    +0.000 A 
ATOM     64  C64 UNL     1      -0.589  15.932   9.258+99.99+99.99    +0.001 A 
ATOM     65  C65 UNL     1       0.200  14.799   9.038+99.99+99.99    +0.012 A 
ATOM     66  C66 UNL     1       7.872   7.930   3.013 +0.19 +0.00    +0.214 C 
ATOM     67  C67 UNL     1       6.900   6.841   3.373 +0.47 +0.00    +0.117 C 
ATOM     68  C68 UNL     1      13.200  10.898   5.380+99.99 +0.00    +0.205 C 
ATOM     69  O1  UNL     1      28.750   3.752  -3.211 -0.11 -0.00    -0.274 OA
ATOM     70  O2  UNL     1      25.134   5.479  -1.589 -0.31 -0.00    -0.336 OA
ATOM     71  O3  UNL     1      26.661  -0.573  -2.724 +5.05 -0.00    -0.273 OA
ATOM     72  O4  UNL     1      23.908   2.747  -1.684+99.99 -0.00    -0.391 OA
ATOM     73  O5  UNL     1      24.445   4.043  -4.096+12.05 -0.00    -0.390 OA
ATOM     74  O6  UNL     1      24.272   8.473  -0.862 +0.07 -0.00    -0.646 OA
ATOM     75  O7  UNL     1      23.063   6.812   0.000 +0.06 -0.00    -0.772 OA
ATOM     76  O8  UNL     1      22.997   5.568  -2.532+47.95 -0.00    -0.346 OA
ATOM     77  O9  UNL     1      16.033   6.083   0.565+99.99 -0.00    -0.268 OA
ATOM     78  O10 UNL     1      11.169  10.059  -3.152 -0.36 -0.00    -0.268 OA
ATOM     79  O11 UNL     1      12.516  11.987   3.389+99.99 -0.00    -0.346 OA
ATOM     80  O12 UNL     1      10.873  11.272   4.873+99.99 -0.00    -0.336 OA
ATOM     81  O13 UNL     1       7.065   9.499   9.290 +1.73 -0.00    -0.273 OA
ATOM     82  O14 UNL     1       9.452   9.748   8.093 +9.04 -0.00    -0.391 OA
ATOM     83  O15 UNL     1       8.421  12.011   5.376+99.99 -0.00    -0.390 OA
ATOM     84  O16 UNL     1       8.063   8.296   1.856 +0.30 -0.00    -0.274 OA
ATOM     85  O17 UNL     1      10.591   9.231   1.697+99.99 -0.00    -0.393 OA
ATOM     86  O18 UNL     1      13.019  11.027   6.582+99.99 -0.00    -0.646 OA
ATOM     87  O19 UNL     1      14.456  10.687   4.916+99.99 -0.00    -0.772 OA
ATOM     88  O20 UNL     1      26.682   8.114  -4.301+99.99 -0.00    -0.393 OA
ATOM     89  N1  UNL     1      28.261   5.998  -3.134 +2.58 -0.00    -0.352 N 
ATOM     90  N2  UNL     1      27.401   1.514  -2.145 +2.27 -0.00    -0.358 N 
ATOM     91  N3  UNL     1      16.305   5.508  -1.637+99.99 -0.00    -0.356 N 
ATOM     92  N4  UNL     1      10.768  10.470  -0.924+99.99 -0.00    -0.356 N 
ATOM     93  N5  UNL     1       6.829  11.449   8.140+99.99 -0.00    -0.358 N 
ATOM     94  N6  UNL     1       8.563   8.460   4.079 +5.60 -0.00    -0.352 N 
ATOM     95  S1  UNL     1      18.119   4.853  -4.134 +3.34 -0.00    -0.167 SA
ATOM     96  S2  UNL     1       9.720  13.791   0.046+99.99 -0.00    -0.167 SA
ATOM     97  H71 UNL     1      23.591   1.921  -1.277+99.99 +0.00    +0.210 HD
ATOM     98  H72 UNL     1      23.690   4.131  -3.469+23.35 +0.00    +0.210 HD
ATOM     99  H73 UNL     1      23.041   7.498   0.697 +0.12 +0.00    +0.167 HD
ATOM    100  H74 UNL     1       8.680   9.559   8.673 +0.12 +0.00    +0.210 HD
ATOM    101  H75 UNL     1       9.250  12.461   5.112+29.19 +0.00    +0.210 HD
ATOM    102  H76 UNL     1       9.707   8.836   1.488 +0.81 +0.00    +0.210 HD
ATOM    103  H77 UNL     1      15.016  10.754   5.718+36.75 +0.00    +0.167 HD
ATOM    104  H78 UNL     1      26.277   8.993  -4.186+99.99 +0.00    +0.210 HD
ATOM    105  H79 UNL     1      28.651   6.887  -3.432 +0.21 +0.00    +0.163 HD
ATOM    106  H80 UNL     1      28.082   2.243  -2.379 +0.00 +0.00    +0.162 HD
ATOM    107  H81 UNL     1      16.189   5.850  -2.584+99.99 +0.00    +0.162 HD
ATOM    108  H82 UNL     1      10.839  10.003  -0.019+99.99 +0.00    +0.162 HD
ATOM    109  H83 UNL     1       6.184  12.094   7.697 +1.95 +0.00    +0.162 HD
ATOM    110  H84 UNL     1       8.511   7.985   4.975 +2.49 +0.00    +0.163 HD
ENDROOT
TORSDOF 44
TER
