USER    Run = 1
USER    DPF = ligand_96_receptor.dpf
USER  
USER    Estimated Free Energy of Binding    =  +2.70e+003 kcal/mol  [=(1)+(2)+(3)-(4)]
USER    
USER    (1) Final Intermolecular Energy     =  +2.70e+003 kcal/mol
USER        vdW + Hbond + desolv Energy     =  +2.70e+003 kcal/mol
USER        Electrostatic Energy            =   +0.00 kcal/mol
USER    (2) Final Total Internal Energy     = +146.52 kcal/mol
USER    (3) Torsional Free Energy           =   +1.19 kcal/mol
USER    (4) Unbound System's Energy  [=(2)] = +146.52 kcal/mol
USER    
USER    
USER    NEWDPF move ligand_96.pdbqt
USER    NEWDPF about 0.000000 0.000000 0.000000
USER    NEWDPF tran0 9.870588 -0.860000 0.930606
USER    NEWDPF quaternion0 -0.104604 0.797020 -0.587751 -0.091471
USER    NEWDPF axisangle0 -0.105044 0.800375 -0.590225 -169.503544
USER    NEWDPF quat0 -0.105044 0.800375 -0.590225 -169.503544
USER    NEWDPF dihe0 -72.00 -180.00 -76.93 164.74 48.95 -158.52 10.72 0.55 -180.00 161.20 161.20 120.88 -98.50 -139.21 103.92 30.59 -174.80 112.34 15.26 115.63 -144.68 -180.00 -180.00 -158.91 180.00 -11.92 110.83 113.77 
USER  keepresnum = 1 
USER  
REMARK  28 active torsions:
REMARK  status: ('A' for Active; 'I' for Inactive)
REMARK    1  A    between atoms: C4_4  and  C5_5 
REMARK       I    between atoms: C5_5  and  N3_60 
REMARK    2  A    between atoms: C6_6  and  N3_60 
REMARK    3  A    between atoms: C8_8  and  C9_9 
REMARK       I    between atoms: C9_9  and  N6_64 
REMARK    4  A    between atoms: C10_10  and  N6_64 
REMARK    5  A    between atoms: C12_12  and  C14_14 
REMARK       I    between atoms: C14_14  and  N8_66 
REMARK    6  A    between atoms: C15_15  and  N8_66 
REMARK    7  A    between atoms: C17_17  and  C19_19 
REMARK       I    between atoms: C19_19  and  N10_68 
REMARK    8  A    between atoms: C20_20  and  C21_21 
REMARK    9  A    between atoms: C20_20  and  N10_68 
REMARK   10  A    between atoms: C21_21  and  C22_22 
REMARK   11  A    between atoms: C22_22  and  C23_23 
REMARK   12  A    between atoms: C22_22  and  N22_81 
REMARK       I    between atoms: C23_23  and  N11_69 
REMARK   13  A    between atoms: C24_24  and  N11_69 
REMARK   14  A    between atoms: C26_26  and  C27_27 
REMARK       I    between atoms: C27_27  and  N14_73 
REMARK   15  A    between atoms: C28_28  and  N14_73 
REMARK   16  A    between atoms: C30_30  and  C32_32 
REMARK       I    between atoms: C32_32  and  N16_75 
REMARK   17  A    between atoms: C33_33  and  N16_75 
REMARK   18  A    between atoms: C35_35  and  C37_37 
REMARK       I    between atoms: C37_37  and  N18_77 
REMARK   19  A    between atoms: C38_38  and  N18_77 
REMARK   20  A    between atoms: C40_40  and  C42_42 
REMARK       I    between atoms: C42_42  and  N20_79 
REMARK   21  A    between atoms: C43_43  and  C44_44 
REMARK   22  A    between atoms: C43_43  and  N20_79 
REMARK   23  A    between atoms: C44_44  and  C45_45 
REMARK   24  A    between atoms: C45_45  and  C46_46 
REMARK   25  A    between atoms: C46_46  and  C47_47 
REMARK   26  A    between atoms: C47_47  and  C48_48 
REMARK   27  A    between atoms: C48_48  and  C49_49 
REMARK   28  A    between atoms: C49_49  and  N21_80 
USER                              x       y       z     vdW  Elec       q    Type
USER                           _______ _______ _______ _____ _____    ______ ____
ROOT
ATOM      1  C23 UNL     1       5.322   4.783   0.055 -0.14 +0.00    +0.256 C 
ATOM      2  N11 UNL     1       6.567   4.225  -0.142 -0.04 -0.00    -0.310 N 
ATOM      3  O5  UNL     1       4.999   5.530   0.979 -0.20 -0.00    -0.271 OA
ATOM      4  H62 UNL     1       6.734   3.603  -0.920 +0.05 +0.00    +0.170 HD
ENDROOT
BRANCH   2   5
ATOM      5  C24 UNL     1       7.661   4.426   0.653 -0.07 +0.00    +0.125 A 
ATOM      6  C25 UNL     1       8.344   3.550   1.458 -0.10 +0.00    +0.140 A 
ATOM      7  N12 UNL     1       9.351   4.288   2.012 +0.09 -0.00    -0.339 N 
ATOM      8  C26 UNL     1       9.250   5.573   1.533 -0.10 +0.00    +0.178 A 
ATOM      9  C53 UNL     1      10.344   3.791   2.935+19.22 +0.00    +0.157 C 
ATOM     10  N13 UNL     1       8.216   5.674   0.703 -0.04 -0.00    -0.323 N 
ATOM     11  H13 UNL     1       7.904   6.508   0.207 +0.08 +0.00    +0.169 HD
BRANCH   8  12
ATOM     12  C27 UNL     1      10.120   6.698   1.854 -0.19 +0.00    +0.290 C 
ATOM     13  N14 UNL     1      11.114   6.332   2.743 -0.15 -0.00    -0.319 N 
ATOM     14  H63 UNL     1      11.096   5.362   3.044 -0.13 +0.00    +0.169 HD
ATOM     15  O6  UNL     1       9.969   7.821   1.382 +0.04 -0.00    -0.264 OA
BRANCH  13  16
ATOM     16  C28 UNL     1      12.095   7.155   3.246 -0.37 +0.00    +0.053 A 
ATOM     17  C29 UNL     1      12.208   8.479   2.904 +1.72 +0.00    +0.120 A 
ATOM     18  N15 UNL     1      13.280   9.009   3.577 +0.44 -0.00    -0.354 N 
ATOM     19  C30 UNL     1      13.886   8.038   4.361 -0.39 +0.00    +0.105 A 
ATOM     20  C52 UNL     1      13.704  10.390   3.457+99.99 +0.00    +0.156 C 
ATOM     21  C31 UNL     1      13.139   6.879   4.160 -0.37 +0.00    +0.066 A 
BRANCH  19  22
ATOM     22  C32 UNL     1      15.057   8.268   5.206 +1.89 +0.00    +0.273 C 
ATOM     23  N16 UNL     1      16.154   8.776   4.532 -0.08 -0.00    -0.320 N 
ATOM     24  H64 UNL     1      16.069   8.968   3.545 +0.12 +0.00    +0.169 HD
ATOM     25  O7  UNL     1      15.044   8.034   6.412+60.55 -0.00    -0.266 OA
BRANCH  23  26
ATOM     26  C33 UNL     1      17.376   9.075   5.099 +2.90 +0.00    +0.053 A 
ATOM     27  C34 UNL     1      17.546  10.094   6.005+46.59 +0.00    +0.120 A 
ATOM     28  N17 UNL     1      18.867  10.126   6.375+99.99 -0.00    -0.354 N 
ATOM     29  C35 UNL     1      19.578   9.137   5.715+99.99 +0.00    +0.105 A 
ATOM     30  C51 UNL     1      19.414  11.079   7.322+71.13 +0.00    +0.156 C 
ATOM     31  C36 UNL     1      18.645   8.476   4.920 +5.83 +0.00    +0.066 A 
BRANCH  29  32
ATOM     32  C37 UNL     1      21.014   8.899   5.882+26.90 +0.00    +0.273 C 
ATOM     33  N18 UNL     1      21.662   8.502   4.727+75.93 -0.00    -0.320 N 
ATOM     34  H65 UNL     1      21.129   8.428   3.874 +0.16 +0.00    +0.169 HD
ATOM     35  O8  UNL     1      21.572   9.054   6.964 +0.36 -0.00    -0.266 OA
BRANCH  33  36
ATOM     36  C38 UNL     1      23.008   8.209   4.623+32.93 +0.00    +0.053 A 
ATOM     37  C39 UNL     1      23.684   7.490   5.583+47.66 +0.00    +0.120 A 
ATOM     38  N19 UNL     1      24.998   7.389   5.199 +2.66 -0.00    -0.354 N 
ATOM     39  C40 UNL     1      25.176   7.987   3.967 -0.21 +0.00    +0.104 A 
ATOM     40  C50 UNL     1      26.037   6.816   6.028+53.70 +0.00    +0.156 C 
ATOM     41  C41 UNL     1      23.950   8.541   3.625 -0.29 +0.00    +0.066 A 
BRANCH  39  42
ATOM     42  C42 UNL     1      26.405   8.071   3.207 -0.32 +0.00    +0.268 C 
ATOM     43  N20 UNL     1      26.228   8.491   1.905 -0.22 -0.00    -0.356 N 
ATOM     44  H66 UNL     1      25.344   8.930   1.684 +0.13 +0.00    +0.162 HD
ATOM     45  O9  UNL     1      27.510   7.833   3.680 +6.31 -0.00    -0.266 OA
BRANCH  43  46
ATOM     46  C43 UNL     1      27.357   8.771   1.043 -0.23 +0.00    +0.123 C 
BRANCH  46  47
ATOM     47  C44 UNL     1      27.974   7.505   0.445 -0.39 +0.00    +0.020 C 
BRANCH  47  48
ATOM     48  C45 UNL     1      27.791   7.430  -1.075 -0.32 +0.00    +0.002 C 
BRANCH  48  49
ATOM     49  C46 UNL     1      28.228   6.089  -1.672 -0.30 +0.00    +0.000 C 
BRANCH  49  50
ATOM     50  C47 UNL     1      27.213   5.504  -2.657 +3.66 +0.00    +0.002 C 
BRANCH  50  51
ATOM     51  C48 UNL     1      26.870   4.054  -2.297 -0.27 +0.00    +0.030 C 
BRANCH  51  52
ATOM     52  C49 UNL     1      27.844   3.443  -1.287 -0.16 +0.00    +0.267 C 
BRANCH  52  53
ATOM     53  N21 UNL     1      28.114   2.041  -1.576 +0.26 +0.00    +0.078 N 
ATOM     54  H67 UNL     1      28.043   1.492  -0.722 -0.30 +0.00    +0.312 HD
ATOM     55  H68 UNL     1      29.073   1.941  -1.906 +0.03 +0.00    +0.312 HD
ENDBRANCH  52  53
ENDBRANCH  51  52
ENDBRANCH  50  51
ENDBRANCH  49  50
ENDBRANCH  48  49
ENDBRANCH  47  48
ENDBRANCH  46  47
ENDBRANCH  43  46
ENDBRANCH  39  42
ENDBRANCH  33  36
ENDBRANCH  29  32
ENDBRANCH  23  26
ENDBRANCH  19  22
ENDBRANCH  13  16
ENDBRANCH   8  12
ENDBRANCH   2   5
BRANCH   1  56
ATOM     56  C22 UNL     1       4.286   4.332  -1.002 -0.10 +0.00    +0.310 C 
BRANCH  56  57
ATOM     57  C21 UNL     1       2.984   5.131  -0.871+11.45 +0.00    +0.065 C 
BRANCH  57  58
ATOM     58  C20 UNL     1       3.188   6.640  -0.716+99.99 +0.00    +0.125 C 
BRANCH  58  59
ATOM     59  N10 UNL     1       4.513   7.042  -1.143+13.32 -0.00    -0.356 N 
ATOM     60  C19 UNL     1       5.521   7.321  -0.245 +3.15 +0.00    +0.268 C 
ATOM     61  O4  UNL     1       5.330   7.256   0.968 +0.60 -0.00    -0.266 OA
ATOM     62  H61 UNL     1       4.694   7.131  -2.132 +6.54 +0.00    +0.162 HD
BRANCH  60  63
ATOM     63  C17 UNL     1       6.796   7.702  -0.836 +1.14 +0.00    +0.104 A 
ATOM     64  C18 UNL     1       8.093   7.433  -0.413 -0.36 +0.00    +0.066 A 
ATOM     65  C15 UNL     1       9.006   8.011  -1.325 -0.32 +0.00    +0.053 A 
ATOM     66  C16 UNL     1       8.258   8.635  -2.292+13.59 +0.00    +0.120 A 
ATOM     67  N9  UNL     1       6.930   8.447  -1.996 +4.13 -0.00    -0.354 N 
ATOM     68  C54 UNL     1       5.842   8.967  -2.801+99.99 +0.00    +0.156 C 
BRANCH  65  69
ATOM     69  N8  UNL     1      10.386   8.011  -1.326 +0.04 -0.00    -0.320 N 
ATOM     70  C14 UNL     1      11.184   7.131  -0.619 +0.01 +0.00    +0.273 C 
ATOM     71  O3  UNL     1      10.777   6.188   0.051 -0.23 -0.00    -0.266 OA
ATOM     72  H60 UNL     1      10.838   8.656  -1.958 -0.30 +0.00    +0.169 HD
BRANCH  70  73
ATOM     73  C12 UNL     1      12.598   7.413  -0.777 +1.74 +0.00    +0.105 A 
ATOM     74  C13 UNL     1      13.246   8.609  -0.500+99.99 +0.00    +0.066 A 
ATOM     75  C10 UNL     1      14.622   8.447  -0.774+11.94 +0.00    +0.053 A 
ATOM     76  C11 UNL     1      14.787   7.167  -1.254 +6.66 +0.00    +0.120 A 
ATOM     77  N7  UNL     1      13.555   6.560  -1.288 +0.09 -0.00    -0.354 N 
ATOM     78  C55 UNL     1      13.315   5.252  -1.857+99.99 +0.00    +0.156 C 
BRANCH  75  79
ATOM     79  N6  UNL     1      15.669   9.330  -0.636 +2.91 -0.00    -0.319 N 
ATOM     80  C9  UNL     1      16.630   9.305   0.356 -0.34 +0.00    +0.290 C 
ATOM     81  O2  UNL     1      16.701   8.479   1.260 -0.38 -0.00    -0.264 OA
ATOM     82  H59 UNL     1      15.762  10.080  -1.315+25.00 +0.00    +0.169 HD
BRANCH  80  83
ATOM     83  C8  UNL     1      17.584  10.397   0.201 -0.32 +0.00    +0.178 A 
ATOM     84  N4  UNL     1      17.412  11.705   0.592 -0.19 -0.00    -0.339 N 
ATOM     85  C7  UNL     1      18.545  12.395   0.264 +0.14 +0.00    +0.140 A 
ATOM     86  C56 UNL     1      16.246  12.261   1.236 +0.23 +0.00    +0.157 C 
ATOM     87  C6  UNL     1      19.370  11.471  -0.323 -0.17 +0.00    +0.125 A 
ATOM     88  N5  UNL     1      18.777  10.240  -0.360 +0.20 -0.00    -0.323 N 
ATOM     89  H5  UNL     1      19.169   9.379  -0.741 +0.19 +0.00    +0.169 HD
BRANCH  87  90
ATOM     90  N3  UNL     1      20.625  11.618  -0.839 +0.67 -0.00    -0.305 N 
ATOM     91  C5  UNL     1      21.534  10.614  -1.083+47.05 +0.00    +0.291 C 
ATOM     92  O1  UNL     1      21.349   9.419  -0.870 +1.39 -0.00    -0.264 OA
ATOM     93  H58 UNL     1      20.915  12.563  -1.063 +0.12 +0.00    +0.170 HD
BRANCH  91  94
ATOM     94  C4  UNL     1      22.777  11.140  -1.638+11.59 +0.00    +0.176 A 
ATOM     95  N1  UNL     1      23.811  10.415  -2.182 +5.45 -0.00    -0.342 N 
ATOM     96  C1  UNL     1      23.873   8.980  -2.313+25.57 +0.00    +0.157 C 
ATOM     97  C2  UNL     1      24.780  11.294  -2.582+99.99 +0.00    +0.109 A 
ATOM     98  C3  UNL     1      24.292  12.537  -2.260+85.28 +0.00    +0.107 A 
ATOM     99  N2  UNL     1      23.055  12.438  -1.678 +1.63 -0.00    -0.346 N 
ATOM    100  H2  UNL     1      22.469  13.203  -1.346 -0.23 +0.00    +0.167 HD
ENDBRANCH  91  94
ENDBRANCH  87  90
ENDBRANCH  80  83
ENDBRANCH  75  79
ENDBRANCH  70  73
ENDBRANCH  65  69
ENDBRANCH  60  63
ENDBRANCH  58  59
ENDBRANCH  57  58
ENDBRANCH  56  57
BRANCH  56 101
ATOM    101  N22 UNL     1       4.880   4.411  -2.350 +0.60 +0.00    +0.092 N 
ATOM    102  H69 UNL     1       5.882   4.242  -2.320 -0.19 +0.00    +0.313 HD
ATOM    103  H70 UNL     1       4.466   3.671  -2.928 +0.03 +0.00    +0.313 HD
ENDBRANCH  56 101
ENDBRANCH   1  56
TORSDOF 28
TER
