USER    Run = 1
USER    DPF = ligand_198_receptor.dpf
USER  
USER    Estimated Free Energy of Binding    =  +4.50e+003 kcal/mol  [=(1)+(2)+(3)-(4)]
USER    
USER    (1) Final Intermolecular Energy     =  +4.50e+003 kcal/mol
USER        vdW + Hbond + desolv Energy     =  +4.50e+003 kcal/mol
USER        Electrostatic Energy            =   +0.00 kcal/mol
USER    (2) Final Total Internal Energy     =   +0.00 kcal/mol
USER    (3) Torsional Free Energy           =   +1.19 kcal/mol
USER    (4) Unbound System's Energy  [=(2)] =   +0.00 kcal/mol
USER    
USER    
USER    NEWDPF move ligand_198.pdbqt
USER    NEWDPF about 0.000000 0.000000 0.000000
USER    NEWDPF tran0 17.294219 7.430168 2.395631
USER    NEWDPF quaternion0 -0.209400 0.502164 -0.839032 0.002785
USER    NEWDPF axisangle0 -0.209401 0.502166 -0.839035 179.680867
USER    NEWDPF quat0 -0.209401 0.502166 -0.839035 179.680867
USER  keepresnum = 1 
USER  
REMARK  0 active torsions:
REMARK  status: ('A' for Active; 'I' for Inactive)
REMARK       I    between atoms: C3_3  and  S2_69 
REMARK       I    between atoms: C6_6  and  N1_44 
REMARK       I    between atoms: C7_7  and  C8_8 
REMARK       I    between atoms: C7_7  and  N1_44 
REMARK       I    between atoms: C8_8  and  C9_9 
REMARK       I    between atoms: C9_9  and  C10_10 
REMARK       I    between atoms: C10_10  and  C11_11 
REMARK       I    between atoms: C11_11  and  C12_12 
REMARK       I    between atoms: C12_12  and  C13_13 
REMARK       I    between atoms: C13_13  and  N2_45 
REMARK       I    between atoms: C14_14  and  N2_45 
REMARK       I    between atoms: C17_17  and  S1_68 
REMARK       I    between atoms: C20_20  and  S1_68 
REMARK       I    between atoms: C21_21  and  O12_57 
REMARK       I    between atoms: C22_22  and  O11_56 
REMARK       I    between atoms: C23_23  and  O5_50 
REMARK       I    between atoms: C24_24  and  C25_25 
REMARK       I    between atoms: C25_25  and  O4_49 
REMARK       I    between atoms: C26_26  and  O5_50 
REMARK       I    between atoms: C27_27  and  O10_55 
REMARK       I    between atoms: C28_28  and  O9_54 
REMARK       I    between atoms: C29_29  and  O8_53 
REMARK       I    between atoms: C30_30  and  C31_31 
REMARK       I    between atoms: C31_31  and  O7_52 
REMARK       I    between atoms: C32_32  and  S2_69 
REMARK       I    between atoms: C33_33  and  O22_67 
REMARK       I    between atoms: C34_34  and  O21_66 
REMARK       I    between atoms: C35_35  and  O15_60 
REMARK       I    between atoms: C36_36  and  C37_37 
REMARK       I    between atoms: C37_37  and  O14_59 
REMARK       I    between atoms: C38_38  and  O15_60 
REMARK       I    between atoms: C39_39  and  O20_65 
REMARK       I    between atoms: C40_40  and  O19_64 
REMARK       I    between atoms: C41_41  and  O18_63 
REMARK       I    between atoms: C42_42  and  C43_43 
REMARK       I    between atoms: C43_43  and  O17_62 
USER                              x       y       z     vdW  Elec       q    Type
USER                           _______ _______ _______ _____ _____    ______ ____
ROOT
ATOM      1  C1  UNL     1      13.102   9.311   4.397+10.18 +0.00    +0.031 A 
ATOM      2  C2  UNL     1      12.561   8.652   5.509 +0.83 +0.00    +0.021 A 
ATOM      3  C3  UNL     1      12.999   7.375   5.861 -0.42 +0.00    +0.003 A 
ATOM      4  C4  UNL     1      14.008   6.775   5.103 -0.45 +0.00    +0.021 A 
ATOM      5  C5  UNL     1      14.549   7.433   3.995 -0.44 +0.00    +0.031 A 
ATOM      6  C6  UNL     1      14.097   8.707   3.630 -0.21 +0.00    +0.034 A 
ATOM      7  C7  UNL     1      14.410  10.540   1.943+39.65 +0.00    +0.222 C 
ATOM      8  C8  UNL     1      15.316  10.823   0.752 +0.89 +0.00    +0.103 C 
ATOM      9  C9  UNL     1      15.045  12.159   0.063 +1.12 +0.00    +0.009 C 
ATOM     10  C10 UNL     1      15.498  13.396   0.848+99.99 +0.00    +0.001 C 
ATOM     11  C11 UNL     1      16.920  13.891   0.544+56.79 +0.00    +0.009 C 
ATOM     12  C12 UNL     1      18.038  13.103   1.225 -0.24 +0.00    +0.103 C 
ATOM     13  C13 UNL     1      18.577  11.933   0.415 -0.37 +0.00    +0.222 C 
ATOM     14  C14 UNL     1      20.187  10.037   0.746 -0.34 +0.00    +0.034 A 
ATOM     15  C15 UNL     1      20.004   9.404  -0.481 +4.14 +0.00    +0.031 A 
ATOM     16  C16 UNL     1      20.723   8.243  -0.796+28.48 +0.00    +0.021 A 
ATOM     17  C17 UNL     1      21.643   7.700   0.105+61.17 +0.00    +0.003 A 
ATOM     18  C18 UNL     1      21.811   8.322   1.343 +6.21 +0.00    +0.021 A 
ATOM     19  C19 UNL     1      21.094   9.483   1.657 -0.11 +0.00    +0.031 A 
ATOM     20  C20 UNL     1      24.178   6.466   0.334 -0.38 +0.00    +0.219 C 
ATOM     21  C21 UNL     1      25.108   5.331  -0.136 -0.42 +0.00    +0.188 C 
ATOM     22  C22 UNL     1      26.552   5.792   0.028 -0.29 +0.00    +0.181 C 
ATOM     23  C23 UNL     1      26.840   7.001  -0.869 -0.27 +0.00    +0.187 C 
ATOM     24  C24 UNL     1      25.626   7.962  -0.955 +1.80 +0.00    +0.178 C 
ATOM     25  C25 UNL     1      24.939   7.919  -2.331+28.71 +0.00    +0.198 C 
ATOM     26  C26 UNL     1      28.749   8.419  -1.222 +1.77 +0.00    +0.292 C 
ATOM     27  C27 UNL     1      29.792   7.493  -1.897 -0.19 +0.00    +0.204 C 
ATOM     28  C28 UNL     1      30.914   8.307  -2.558 -0.19 +0.00    +0.183 C 
ATOM     29  C29 UNL     1      30.533   9.781  -2.717 +1.64 +0.00    +0.180 C 
ATOM     30  C30 UNL     1      30.109  10.392  -1.369 +9.23 +0.00    +0.179 C 
ATOM     31  C31 UNL     1      29.245  11.646  -1.595+99.99 +0.00    +0.198 C 
ATOM     32  C32 UNL     1      10.541   6.541   6.943 +0.22 +0.00    +0.219 C 
ATOM     33  C33 UNL     1      10.081   5.874   5.624 -0.22 +0.00    +0.188 C 
ATOM     34  C34 UNL     1       9.985   4.342   5.730 -0.32 +0.00    +0.181 C 
ATOM     35  C35 UNL     1       9.198   3.922   6.985 -0.42 +0.00    +0.187 C 
ATOM     36  C36 UNL     1       9.815   4.616   8.218 -0.35 +0.00    +0.178 C 
ATOM     37  C37 UNL     1       9.078   4.300   9.523+12.15 +0.00    +0.198 C 
ATOM     38  C38 UNL     1       6.860   3.366   7.157 +1.24 +0.00    +0.292 C 
ATOM     39  C39 UNL     1       6.470   2.517   5.922+99.99 +0.00    +0.204 C 
ATOM     40  C40 UNL     1       5.349   3.233   5.181 -0.12 +0.00    +0.183 C 
ATOM     41  C41 UNL     1       4.102   3.264   6.072 -0.30 +0.00    +0.180 C 
ATOM     42  C42 UNL     1       4.456   3.551   7.552 +1.53 +0.00    +0.179 C 
ATOM     43  C43 UNL     1       4.281   2.328   8.470+99.99 +0.00    +0.198 C 
ATOM     44  N1  UNL     1      14.698   9.303   2.502 +2.20 -0.00    -0.327 N 
ATOM     45  N2  UNL     1      19.506  11.205   1.145 -0.27 -0.00    -0.327 N 
ATOM     46  O1  UNL     1      13.560  11.332   2.328+13.48 -0.00    -0.273 OA
ATOM     47  O2  UNL     1      18.204  11.693  -0.727 +5.34 -0.00    -0.273 OA
ATOM     48  O3  UNL     1      24.684   7.781   0.107 -0.19 -0.00    -0.362 OA
ATOM     49  O4  UNL     1      25.852   8.314  -3.351+99.99 -0.00    -0.398 OA
ATOM     50  O5  UNL     1      27.972   7.671  -0.282 -0.18 -0.00    -0.348 OA
ATOM     51  O6  UNL     1      29.417   9.463  -0.518 +1.27 -0.00    -0.348 OA
ATOM     52  O7  UNL     1      29.120  12.384  -0.381 +8.81 -0.00    -0.398 OA
ATOM     53  O8  UNL     1      31.631  10.502  -3.296 +6.22 -0.00    -0.390 OA
ATOM     54  O9  UNL     1      31.205   7.771  -3.862 -0.07 -0.00    -0.390 OA
ATOM     55  O10 UNL     1      30.393   6.617  -0.920 -0.02 -0.00    -0.388 OA
ATOM     56  O11 UNL     1      27.438   4.719  -0.332 -0.22 -0.00    -0.390 OA
ATOM     57  O12 UNL     1      24.912   4.129   0.625 -0.50 -0.00    -0.389 OA
ATOM     58  O13 UNL     1       9.801   6.048   8.074 +2.33 -0.00    -0.362 OA
ATOM     59  O14 UNL     1       9.055   2.901   9.787 +4.27 -0.00    -0.398 OA
ATOM     60  O15 UNL     1       7.835   4.356   6.806 -0.26 -0.00    -0.348 OA
ATOM     61  O16 UNL     1       5.762   4.108   7.707 -0.23 -0.00    -0.348 OA
ATOM     62  O17 UNL     1       2.947   1.839   8.448 +0.07 -0.00    -0.398 OA
ATOM     63  O18 UNL     1       3.223   4.286   5.569 -0.05 -0.00    -0.390 OA
ATOM     64  O19 UNL     1       5.064   2.527   3.959 -0.10 -0.00    -0.390 OA
ATOM     65  O20 UNL     1       7.564   2.240   5.040+17.95 -0.00    -0.388 OA
ATOM     66  O21 UNL     1      11.281   3.738   5.733 -0.26 -0.00    -0.390 OA
ATOM     67  O22 UNL     1       8.790   6.403   5.253 +0.31 -0.00    -0.389 OA
ATOM     68  S1  UNL     1      22.504   6.212  -0.379 +0.78 -0.00    -0.095 SA
ATOM     69  S2  UNL     1      12.354   6.497   7.271 -0.50 -0.00    -0.095 SA
ATOM     70  H47 UNL     1      15.415   8.756   2.040 -0.15 +0.00    +0.169 HD
ATOM     71  H48 UNL     1      19.735  11.559   2.065 +0.14 +0.00    +0.169 HD
ATOM     72  H49 UNL     1      25.347   8.344  -4.185+99.99 +0.00    +0.209 HD
ATOM     73  H50 UNL     1      28.481  13.097  -0.542 +1.12 +0.00    +0.209 HD
ATOM     74  H51 UNL     1      32.370  10.485  -2.658 +0.06 +0.00    +0.210 HD
ATOM     75  H52 UNL     1      31.796   8.417  -4.293 +0.07 +0.00    +0.210 HD
ATOM     76  H53 UNL     1      29.660   6.340  -0.331 +0.09 +0.00    +0.210 HD
ATOM     77  H54 UNL     1      27.114   3.940   0.165 +0.11 +0.00    +0.210 HD
ATOM     78  H55 UNL     1      23.990   3.846   0.477 +0.15 +0.00    +0.210 HD
ATOM     79  H56 UNL     1       8.727   2.798  10.698 +0.66 +0.00    +0.209 HD
ATOM     80  H57 UNL     1       2.375   2.524   8.838 -0.49 +0.00    +0.209 HD
ATOM     81  H58 UNL     1       2.762   3.911   4.799 +0.07 +0.00    +0.210 HD
ATOM     82  H59 UNL     1       4.609   3.163   3.376 +0.08 +0.00    +0.210 HD
ATOM     83  H60 UNL     1       7.144   1.969   4.198 -0.38 +0.00    +0.210 HD
ATOM     84  H61 UNL     1      11.656   3.863   4.844 +0.11 +0.00    +0.210 HD
ATOM     85  H62 UNL     1       8.150   6.045   5.908 +0.13 +0.00    +0.210 HD
ENDROOT
TORSDOF 34
TER
