USER    Run = 1
USER    DPF = ligand_404_receptor.dpf
USER  
USER    Estimated Free Energy of Binding    =  -10.41 kcal/mol  [=(1)+(2)+(3)-(4)]
USER    Estimated Inhibition Constant, Ki   =   23.36 nM (nanomolar)  [Temperature = 298.15 K]
USER    
USER    (1) Final Intermolecular Energy     =  -11.60 kcal/mol
USER        vdW + Hbond + desolv Energy     =  -11.60 kcal/mol
USER        Electrostatic Energy            =   +0.00 kcal/mol
USER    (2) Final Total Internal Energy     =   -1.74 kcal/mol
USER    (3) Torsional Free Energy           =   +1.19 kcal/mol
USER    (4) Unbound System's Energy  [=(2)] =   -1.74 kcal/mol
USER    
USER    
USER    NEWDPF move ligand_404.pdbqt
USER    NEWDPF about 0.000000 0.000000 0.000000
USER    NEWDPF tran0 17.781290 8.106819 3.808317
USER    NEWDPF quaternion0 0.151915 -0.987598 -0.038257 0.010449
USER    NEWDPF axisangle0 0.151923 -0.987651 -0.038260 178.802604
USER    NEWDPF quat0 0.151923 -0.987651 -0.038260 178.802604
USER    NEWDPF dihe0 66.25 159.39 -103.68 -48.40 17.53 155.39 179.39 -170.62 -93.74 -157.62 60.24 146.88 
USER  keepresnum = 1 
USER  
REMARK  12 active torsions:
REMARK  status: ('A' for Active; 'I' for Inactive)
REMARK    1  A    between atoms: C3_3  and  N8_39 
REMARK    2  A    between atoms: C5_5  and  C6_6 
REMARK       I    between atoms: C6_6  and  N2_32 
REMARK    3  A    between atoms: C7_7  and  N2_32 
REMARK    4  A    between atoms: C10_10  and  C12_12 
REMARK       I    between atoms: C12_12  and  N4_34 
REMARK    5  A    between atoms: C13_13  and  C14_14 
REMARK    6  A    between atoms: C13_13  and  N4_34 
REMARK    7  A    between atoms: C14_14  and  N5_35 
REMARK       I    between atoms: C15_15  and  N6_37 
REMARK       I    between atoms: C15_15  and  N7_38 
REMARK    8  A    between atoms: C16_16  and  C17_17 
REMARK       I    between atoms: C16_16  and  N8_39 
REMARK    9  A    between atoms: C19_19  and  N10_41 
REMARK   10  A    between atoms: C22_22  and  C23_23 
REMARK       I    between atoms: C22_22  and  N10_41 
REMARK   11  A    between atoms: C25_25  and  N12_43 
REMARK   12  A    between atoms: C28_28  and  C29_29 
REMARK       I    between atoms: C28_28  and  N12_43 
USER                              x       y       z     vdW  Elec       q    Type
USER                           _______ _______ _______ _____ _____    ______ ____
ROOT
ATOM      1  C1  UNL     1      19.201  11.516   0.986 -0.56 +0.00    +0.156 C 
ATOM      2  C2  UNL     1      17.477   9.992   1.941 -0.37 +0.00    +0.120 A 
ATOM      3  C3  UNL     1      17.437   8.955   2.841 -0.48 +0.00    +0.053 A 
ATOM      4  C4  UNL     1      18.761   8.755   3.292 -0.41 +0.00    +0.066 A 
ATOM      5  C5  UNL     1      19.595   9.686   2.677 -0.29 +0.00    +0.105 A 
ATOM      6  N1  UNL     1      18.777  10.426   1.841 -0.17 -0.00    -0.354 N 
ENDROOT
BRANCH   3   7
ATOM      7  N8  UNL     1      16.270   8.291   3.165 -0.29 -0.00    -0.320 N 
ATOM      8  C16 UNL     1      15.004   8.848   3.154 -0.22 +0.00    +0.273 C 
ATOM      9  O3  UNL     1      14.760   9.999   2.800 +0.09 -0.00    -0.266 OA
ATOM     10  H33 UNL     1      16.362   7.308   3.370 -0.04 +0.00    +0.169 HD
BRANCH   8  11
ATOM     11  C17 UNL     1      13.951   7.930   3.581 -0.38 +0.00    +0.105 A 
ATOM     12  C18 UNL     1      12.671   7.734   3.068 -0.26 +0.00    +0.066 A 
ATOM     13  C19 UNL     1      12.023   6.723   3.820 -0.34 +0.00    +0.053 A 
ATOM     14  C20 UNL     1      12.917   6.308   4.773 -0.28 +0.00    +0.120 A 
ATOM     15  N9  UNL     1      14.078   7.024   4.621 -0.23 -0.00    -0.354 N 
ATOM     16  C21 UNL     1      15.245   6.849   5.461 +0.25 +0.00    +0.156 C 
BRANCH  13  17
ATOM     17  N10 UNL     1      10.741   6.260   3.592 -0.12 -0.00    -0.320 N 
ATOM     18  C22 UNL     1       9.981   6.501   2.462 -0.19 +0.00    +0.273 C 
ATOM     19  O4  UNL     1      10.366   7.078   1.452 -0.24 -0.00    -0.266 OA
ATOM     20  H34 UNL     1      10.363   5.626   4.280 +0.10 +0.00    +0.169 HD
BRANCH  18  21
ATOM     21  C23 UNL     1       8.648   5.933   2.553 -0.17 +0.00    +0.105 A 
ATOM     22  C24 UNL     1       7.968   5.602   3.717 -0.18 +0.00    +0.066 A 
ATOM     23  C25 UNL     1       6.690   5.104   3.368 -0.16 +0.00    +0.053 A 
ATOM     24  C26 UNL     1       6.630   5.101   1.995 -0.10 +0.00    +0.120 A 
ATOM     25  N11 UNL     1       7.830   5.553   1.509 -0.02 -0.00    -0.354 N 
ATOM     26  C27 UNL     1       8.184   5.532   0.104 -0.13 +0.00    +0.156 C 
BRANCH  23  27
ATOM     27  N12 UNL     1       5.724   4.699   4.268 -0.06 -0.00    -0.321 N 
ATOM     28  C28 UNL     1       5.942   4.325   5.579 -0.23 +0.00    +0.262 C 
ATOM     29  O5  UNL     1       7.032   4.280   6.144 -0.27 -0.00    -0.267 OA
ATOM     30  H35 UNL     1       4.772   4.687   3.925 +0.07 +0.00    +0.169 HD
BRANCH  28  31
ATOM     31  C29 UNL     1       4.679   3.948   6.319 -0.39 +0.00    +0.069 C 
ATOM     32  C30 UNL     1       4.266   4.727   7.330 -0.35 +0.00    +0.037 C 
ATOM     33 BR1  UNL     1       3.713   2.420   5.834 -0.55 -0.00    -0.046 Br
ENDBRANCH  28  31
ENDBRANCH  23  27
ENDBRANCH  18  21
ENDBRANCH  13  17
ENDBRANCH   8  11
ENDBRANCH   3   7
BRANCH   5  34
ATOM     34  C6  UNL     1      21.037   9.882   2.818 -0.23 +0.00    +0.274 C 
ATOM     35  N2  UNL     1      21.764   8.703   2.777 -0.14 -0.00    -0.307 N 
ATOM     36  H27 UNL     1      21.241   7.854   2.950 +0.19 +0.00    +0.170 HD
ATOM     37  O1  UNL     1      21.522  10.993   3.004 +0.21 -0.00    -0.266 OA
BRANCH  35  38
ATOM     38  C7  UNL     1      23.139   8.606   2.918 -0.37 +0.00    +0.110 C 
ATOM     39  C8  UNL     1      23.848   9.045   4.016 -0.57 +0.00    +0.051 C 
ATOM     40  C9  UNL     1      25.221   8.880   3.735 -0.55 +0.00    +0.039 C 
ATOM     41  C10 UNL     1      25.348   8.293   2.483 -0.51 +0.00    +0.104 C 
ATOM     42  N3  UNL     1      24.047   8.016   2.058 -0.16 -0.00    -0.333 N 
ATOM     43  C11 UNL     1      23.742   7.091   0.982 -0.38 +0.00    +0.158 C 
BRANCH  41  44
ATOM     44  C12 UNL     1      26.557   7.965   1.736 -0.33 +0.00    +0.268 C 
ATOM     45  N4  UNL     1      26.349   7.190   0.617 -0.13 -0.00    -0.354 N 
ATOM     46  H28 UNL     1      25.481   6.677   0.544 +0.12 +0.00    +0.162 HD
ATOM     47  O2  UNL     1      27.685   8.321   2.065 -0.36 -0.00    -0.266 OA
BRANCH  45  48
ATOM     48  C13 UNL     1      27.455   6.604  -0.114 -0.28 +0.00    +0.142 C 
BRANCH  48  49
ATOM     49  C14 UNL     1      27.113   6.449  -1.597 -0.26 +0.00    +0.141 C 
BRANCH  49  50
ATOM     50  N5  UNL     1      26.834   5.035  -1.877 -0.10 -0.00    -0.370 N 
ATOM     51  C15 UNL     1      25.728   4.549  -1.457 -0.44 +0.00    +0.121 C 
ATOM     52  N6  UNL     1      25.434   3.251  -1.682 -0.39 -0.00    -0.279 NA
ATOM     53  N7  UNL     1      24.725   5.136  -0.769 -0.30 -0.00    -0.279 NA
ATOM     54  H29 UNL     1      26.243   2.769  -2.060 +0.05 +0.00    +0.126 HD
ATOM     55  H30 UNL     1      25.096   2.781  -0.850 +0.09 +0.00    +0.126 HD
ATOM     56  H31 UNL     1      23.814   4.799  -1.060 +0.07 +0.00    +0.126 HD
ATOM     57  H32 UNL     1      24.749   6.147  -0.771 +0.09 +0.00    +0.126 HD
ATOM     58  H5  UNL     1      27.501   4.458  -2.390 +0.08 +0.00    +0.161 HD
ENDBRANCH  49  50
ENDBRANCH  48  49
ENDBRANCH  45  48
ENDBRANCH  41  44
ENDBRANCH  35  38
ENDBRANCH   5  34
TORSDOF 12
TER
