USER    Run = 1
USER    DPF = ligand_190_receptor.dpf
USER  
USER    Estimated Free Energy of Binding    =   -8.59 kcal/mol  [=(1)+(2)+(3)-(4)]
USER    Estimated Inhibition Constant, Ki   =  502.18 nM (nanomolar)  [Temperature = 298.15 K]
USER    
USER    (1) Final Intermolecular Energy     =   -9.79 kcal/mol
USER        vdW + Hbond + desolv Energy     =   -9.79 kcal/mol
USER        Electrostatic Energy            =   +0.00 kcal/mol
USER    (2) Final Total Internal Energy     =   -3.07 kcal/mol
USER    (3) Torsional Free Energy           =   +1.19 kcal/mol
USER    (4) Unbound System's Energy  [=(2)] =   -3.07 kcal/mol
USER    
USER    
USER    NEWDPF move ligand_190.pdbqt
USER    NEWDPF about 0.000000 0.000000 0.000000
USER    NEWDPF tran0 12.728176 6.811282 4.282127
USER    NEWDPF quaternion0 -0.202652 0.021645 0.343900 -0.916622
USER    NEWDPF axisangle0 -0.506941 0.054145 0.860279 -47.125608
USER    NEWDPF quat0 -0.506941 0.054145 0.860279 -47.125608
USER    NEWDPF dihe0 106.11 -56.50 79.26 -177.62 -45.71 -45.87 104.14 159.13 33.80 84.08 -46.61 
USER  keepresnum = 1 
USER  
REMARK  11 active torsions:
REMARK  status: ('A' for Active; 'I' for Inactive)
REMARK    1  A    between atoms: C2_2  and  C5_5 
REMARK    2  A    between atoms: C5_5  and  C6_6 
REMARK    3  A    between atoms: C5_5  and  N6_49 
REMARK       I    between atoms: C6_6  and  N1_44 
REMARK    4  A    between atoms: C11_11  and  C12_12 
REMARK       I    between atoms: C12_12  and  N2_45 
REMARK    5  A    between atoms: C15_15  and  N3_46 
REMARK    6  A    between atoms: C17_17  and  C18_18 
REMARK       I    between atoms: C17_17  and  N3_46 
REMARK    7  A    between atoms: C21_21  and  C24_24 
REMARK       I    between atoms: C24_24  and  N4_47 
REMARK    8  A    between atoms: C25_25  and  N4_47 
REMARK    9  A    between atoms: C30_30  and  C32_32 
REMARK   10  A    between atoms: C35_35  and  C36_36 
REMARK       I    between atoms: C35_35  and  N6_49 
REMARK   11  A    between atoms: C36_36  and  N7_50 
USER                              x       y       z     vdW  Elec       q    Type
USER                           _______ _______ _______ _____ _____    ______ ____
ROOT
ATOM      1  C6  UNL     1       7.405   3.603   5.162 +0.00 +0.00    +0.244 C 
ATOM      2  C7  UNL     1       9.388   4.560   4.150 -0.23 +0.00    +0.166 C 
ATOM      3  C8  UNL     1       9.863   5.674   3.246 -0.22 -0.00    -0.032 A 
ATOM      4  C9  UNL     1       9.014   6.282   2.309 -0.23 -0.00    -0.048 A 
ATOM      5  C10 UNL     1       7.569   5.866   2.211 -0.20 +0.00    +0.074 C 
ATOM      6  C11 UNL     1       7.336   4.447   2.751 -0.11 +0.00    +0.183 C 
ATOM      7  C13 UNL     1       9.505   7.308   1.496 -0.28 +0.00    +0.010 A 
ATOM      8  C14 UNL     1      10.839   7.711   1.594 +1.45 +0.00    +0.030 A 
ATOM      9  C15 UNL     1      11.701   7.105   2.515 -0.34 +0.00    +0.035 A 
ATOM     10  C16 UNL     1      11.205   6.089   3.332 -0.26 +0.00    +0.039 A 
ATOM     11  O1  UNL     1       8.110   3.264   6.121 -0.15 -0.00    -0.271 OA
ATOM     12  N1  UNL     1       7.948   4.299   4.089 -0.08 -0.00    -0.332 N 
ENDROOT
BRANCH   9  13
ATOM     13  N3  UNL     1      13.036   7.564   2.544 -0.01 -0.00    -0.323 N 
ATOM     14  C17 UNL     1      13.760   7.967   3.652 -0.33 +0.00    +0.256 C 
ATOM     15  O3  UNL     1      13.348   8.075   4.801 -0.29 -0.00    -0.267 OA
ATOM     16  H39 UNL     1      13.480   7.661   1.642 -0.19 +0.00    +0.169 HD
BRANCH  14  17
ATOM     17  C18 UNL     1      15.176   8.350   3.377 -0.46 +0.00    +0.032 A 
ATOM     18  C19 UNL     1      16.187   7.759   4.147 -0.48 +0.00    +0.018 A 
ATOM     19  C20 UNL     1      17.529   8.082   3.924 -0.52 +0.00    +0.018 A 
ATOM     20  C21 UNL     1      17.869   9.005   2.927 -0.48 +0.00    +0.032 A 
ATOM     21  C22 UNL     1      16.860   9.569   2.132 -0.47 +0.00    +0.018 A 
ATOM     22  C23 UNL     1      15.518   9.243   2.353 -0.15 +0.00    +0.018 A 
BRANCH  20  23
ATOM     23  C24 UNL     1      19.286   9.382   2.648 -0.23 +0.00    +0.256 C 
ATOM     24  O4  UNL     1      19.498  10.215   1.776 -0.30 -0.00    -0.267 OA
ATOM     25  N4  UNL     1      20.225   8.766   3.455 -0.11 -0.00    -0.323 N 
ATOM     26  H40 UNL     1      19.879   8.206   4.221 +0.11 +0.00    +0.169 HD
BRANCH  25  27
ATOM     27  C25 UNL     1      21.629   8.897   3.386 -0.04 +0.00    +0.035 A 
ATOM     28  C26 UNL     1      22.296   8.144   2.409 +0.32 +0.00    +0.039 A 
ATOM     29  C27 UNL     1      23.691   8.220   2.257 -0.37 -0.00    -0.022 A 
ATOM     30  C28 UNL     1      24.429   9.049   3.115 -0.54 -0.00    -0.048 A 
ATOM     31  C31 UNL     1      24.380   7.357   1.226 -0.25 +0.00    +0.309 C 
ATOM     32  C29 UNL     1      25.924   9.170   2.953 -0.61 +0.00    +0.082 C 
ATOM     33  C33 UNL     1      23.765   9.810   4.082 -0.63 +0.00    +0.010 A 
ATOM     34  C30 UNL     1      26.513   8.026   2.115 -0.35 +0.00    +0.285 C 
ATOM     35  N5  UNL     1      25.733   7.811   0.883 -0.33 +0.00    +0.099 N 
ATOM     36  H41 UNL     1      26.183   7.079   0.330 +0.23 +0.00    +0.317 HD
ATOM     37  C34 UNL     1      22.375   9.732   4.217 -0.17 +0.00    +0.030 A 
BRANCH  34  38
ATOM     38  C32 UNL     1      27.936   8.380   1.720 -0.15 +0.00    +0.267 C 
ATOM     39  O5  UNL     1      28.294   8.526   0.553 -0.25 -0.00    -0.305 OA
ENDBRANCH  34  38
ENDBRANCH  25  27
ENDBRANCH  20  23
ENDBRANCH  14  17
ENDBRANCH   9  13
BRANCH   6  40
ATOM     40  C12 UNL     1       7.805   3.383   1.725 -0.10 +0.00    +0.238 C 
ATOM     41  O2  UNL     1       7.234   3.168   0.658 -0.05 -0.00    -0.271 OA
ATOM     42  N2  UNL     1       8.822   2.557   2.113 -0.09 -0.00    -0.368 N 
ATOM     43  H37 UNL     1       8.961   2.335   3.100 -0.39 +0.00    +0.159 HD
ATOM     44  H38 UNL     1       8.997   1.776   1.495 +0.01 +0.00    +0.159 HD
ENDBRANCH   6  40
BRANCH   1  45
ATOM     45  C5  UNL     1       5.883   3.284   5.194 +0.21 +0.00    +0.184 C 
BRANCH  45  46
ATOM     46  C2  UNL     1       5.439   2.260   4.100 -0.18 -0.00    -0.022 C 
ATOM     47  C1  UNL     1       4.824   3.025   2.906 -0.16 +0.00    +0.017 C 
ATOM     48  C3  UNL     1       4.360   1.302   4.642 -0.32 +0.00    +0.017 C 
ATOM     49  C4  UNL     1       6.612   1.409   3.574 -0.10 +0.00    +0.017 C 
ENDBRANCH  45  46
BRANCH  45  50
ATOM     50  N6  UNL     1       5.194   4.568   5.045 -0.08 -0.00    -0.346 N 
ATOM     51  C35 UNL     1       4.290   4.993   5.996 -0.21 +0.00    +0.246 C 
ATOM     52  O6  UNL     1       3.892   4.265   6.904 -0.35 -0.00    -0.272 OA
ATOM     53  H42 UNL     1       5.727   5.346   4.654 +0.07 +0.00    +0.163 HD
BRANCH  51  54
ATOM     54  C36 UNL     1       3.857   6.459   5.855 -0.07 +0.00    +0.371 C 
BRANCH  54  55
ATOM     55  N7  UNL     1       3.137   6.915   7.065 -0.24 +0.00    +0.087 N 
ATOM     56  C37 UNL     1       3.748   8.130   7.589 -0.16 +0.00    +0.307 C 
ATOM     57  H43 UNL     1       3.205   6.179   7.771 +0.13 +0.00    +0.315 HD
ENDBRANCH  54  55
ENDBRANCH  51  54
ENDBRANCH  45  50
ENDBRANCH   1  45
TORSDOF 11
TER
