USER    Run = 1
USER    DPF = ligand_270_receptor.dpf
USER  
USER    Estimated Free Energy of Binding    = +289.91 kcal/mol  [=(1)+(2)+(3)-(4)]
USER    
USER    (1) Final Intermolecular Energy     = +288.72 kcal/mol
USER        vdW + Hbond + desolv Energy     = +288.72 kcal/mol
USER        Electrostatic Energy            =   +0.00 kcal/mol
USER    (2) Final Total Internal Energy     =   -3.67 kcal/mol
USER    (3) Torsional Free Energy           =   +1.19 kcal/mol
USER    (4) Unbound System's Energy  [=(2)] =   -3.67 kcal/mol
USER    
USER    
USER    NEWDPF move ligand_270.pdbqt
USER    NEWDPF about 0.000000 0.000000 0.000000
USER    NEWDPF tran0 18.939234 6.202519 2.985517
USER    NEWDPF quaternion0 -0.063915 -0.112019 -0.988071 -0.084157
USER    NEWDPF axisangle0 -0.064142 -0.112418 -0.991589 -170.344940
USER    NEWDPF quat0 -0.064142 -0.112418 -0.991589 -170.344940
USER    NEWDPF dihe0 116.23 -156.21 -25.00 -49.45 -179.47 132.65 180.00 168.65 -21.47 37.66 145.14 145.51 180.00 -179.96 -26.04 112.68 -122.65 -73.93 76.82 
USER  keepresnum = 1 
USER  
REMARK  19 active torsions:
REMARK  status: ('A' for Active; 'I' for Inactive)
REMARK    1  A    between atoms: C2_2  and  O1_63 
REMARK    2  A    between atoms: C3_3  and  C56_56 
REMARK    3  A    between atoms: C7_7  and  N1_71 
REMARK    4  A    between atoms: C8_8  and  N2_73 
REMARK    5  A    between atoms: C9_9  and  O7_69 
REMARK    6  A    between atoms: C10_10  and  C18_18 
REMARK       I    between atoms: C18_18  and  N3_75 
REMARK    7  A    between atoms: C19_19  and  N3_75 
REMARK    8  A    between atoms: C22_22  and  C25_25 
REMARK    9  A    between atoms: C28_28  and  N4_76 
REMARK   10  A    between atoms: C31_31  and  C32_32 
REMARK       I    between atoms: C31_31  and  N4_76 
REMARK   11  A    between atoms: C40_40  and  N5_77 
REMARK   12  A    between atoms: C41_41  and  O4_66 
REMARK   13  A    between atoms: C42_42  and  N6_79 
REMARK   14  A    between atoms: C46_46  and  C49_49 
REMARK   15  A    between atoms: C47_47  and  O5_67 
REMARK   16  A    between atoms: C49_49  and  O6_68 
REMARK   17  A    between atoms: C50_50  and  N7_81 
REMARK   18  A    between atoms: C56_56  and  O8_70 
REMARK   19  A    between atoms: C57_57  and  N8_83 
USER                              x       y       z     vdW  Elec       q    Type
USER                           _______ _______ _______ _____ _____    ______ ____
ROOT
ATOM      1  C19 UNL     1      21.561   8.741   2.559 +0.14 +0.00    +0.035 A 
ATOM      2  C20 UNL     1      20.616   9.771   2.527 -0.39 +0.00    +0.030 A 
ATOM      3  C21 UNL     1      19.296   9.545   2.937 -0.32 +0.00    +0.014 A 
ATOM      4  C22 UNL     1      18.884   8.282   3.387 -0.33 -0.00    -0.026 A 
ATOM      5  C23 UNL     1      19.841   7.257   3.412+21.29 +0.00    +0.014 A 
ATOM      6  C24 UNL     1      21.162   7.481   3.003+49.18 +0.00    +0.030 A 
ENDROOT
BRANCH   4   7
ATOM      7  C25 UNL     1      17.496   8.042   3.815 -0.52 -0.00    -0.026 A 
ATOM      8  C26 UNL     1      17.182   7.018   4.721 +8.30 +0.00    +0.014 A 
ATOM      9  C27 UNL     1      15.860   6.790   5.125 +2.03 +0.00    +0.030 A 
ATOM     10  C28 UNL     1      14.816   7.580   4.632 -0.45 +0.00    +0.035 A 
ATOM     11  C29 UNL     1      15.116   8.600   3.733 -0.45 +0.00    +0.030 A 
ATOM     12  C30 UNL     1      16.440   8.827   3.331 -0.52 +0.00    +0.014 A 
BRANCH  10  13
ATOM     13  N4  UNL     1      13.517   7.282   5.088 -0.22 -0.00    -0.323 N 
ATOM     14  C31 UNL     1      13.050   7.260   6.386 -0.30 +0.00    +0.259 C 
ATOM     15  O3  UNL     1      13.714   7.511   7.388 -0.23 -0.00    -0.267 OA
ATOM     16  H46 UNL     1      12.830   7.056   4.373 +0.11 +0.00    +0.169 HD
BRANCH  14  17
ATOM     17  C32 UNL     1      11.603   6.894   6.564 -0.30 +0.00    +0.068 A 
ATOM     18  C33 UNL     1      11.239   6.295   7.782 +1.60 +0.00    +0.032 A 
ATOM     19  C34 UNL     1       9.916   5.907   8.053 +3.42 -0.00    -0.022 A 
ATOM     20  C35 UNL     1       9.585   5.303   9.277 +3.82 +0.00    +0.012 A 
ATOM     21  C39 UNL     1       8.910   6.122   7.084 +0.68 +0.00    +0.005 A 
ATOM     22  C36 UNL     1       8.275   4.910   9.553 +4.55 +0.00    +0.001 A 
ATOM     23  C37 UNL     1       7.278   5.115   8.607 +5.95 +0.00    +0.001 A 
ATOM     24  C38 UNL     1       7.592   5.713   7.387 -0.20 +0.00    +0.014 A 
ATOM     25  C40 UNL     1       9.262   6.738   5.858 +5.37 +0.00    +0.093 A 
ATOM     26  C41 UNL     1      10.603   7.108   5.611 -0.22 +0.00    +0.110 A 
BRANCH  25  27
ATOM     27  N5  UNL     1       8.285   6.938   4.854 +3.42 -0.00    -0.297 N 
ATOM     28  N6  UNL     1       7.968   5.847   4.326 -0.09 -0.00    -0.297 N 
ATOM     29  H6  UNL     1       8.250   4.926   4.663 +0.11 +0.00    +0.187 HD
ATOM     30  H5  UNL     1       7.894   7.844   4.595 +0.85 +0.00    +0.187 HD
BRANCH  28  31
ATOM     31  C42 UNL     1       7.163   6.089   3.196 -0.17 +0.00    +0.082 A 
ATOM     32  C43 UNL     1       7.611   6.970   2.198 -0.32 +0.00    +0.034 A 
ATOM     33  C44 UNL     1       6.841   7.212   1.057 -0.41 +0.00    +0.003 A 
ATOM     34  C45 UNL     1       5.616   6.568   0.898 -0.08 +0.00    +0.019 A 
ATOM     35  C46 UNL     1       5.158   5.696   1.891 -0.19 +0.00    +0.050 A 
ATOM     36  C47 UNL     1       5.904   5.481   3.054 -0.14 +0.00    +0.110 A 
BRANCH  35  37
ATOM     37  C49 UNL     1       3.887   5.005   1.675 -0.01 +0.00    +0.153 C 
ATOM     38  N7  UNL     1       3.577   4.010   0.916 -0.04 -0.00    -0.336 N 
ATOM     39  H7  UNL     1       2.622   3.653   0.883 +0.02 +0.00    +0.168 HD
BRANCH  37  40
ATOM     40  O6  UNL     1       2.915   5.571   2.410 -0.23 -0.00    -0.345 OA
ATOM     41  H42 UNL     1       3.162   5.444   3.342 +0.05 +0.00    +0.219 HD
ENDBRANCH  37  40
BRANCH  38  42
ATOM     42  C50 UNL     1       4.589   3.433   0.135 -0.11 +0.00    +0.034 A 
ATOM     43  C51 UNL     1       5.366   2.390   0.645 -0.11 +0.00    +0.029 A 
ATOM     44  C52 UNL     1       6.377   1.815  -0.128 -0.13 +0.00    +0.002 A 
ATOM     45  C53 UNL     1       6.624   2.293  -1.415 -0.09 +0.00    +0.000 A 
ATOM     46  C54 UNL     1       5.867   3.348  -1.924 -0.10 +0.00    +0.002 A 
ATOM     47  C55 UNL     1       4.860   3.921  -1.146 -0.13 +0.00    +0.029 A 
ENDBRANCH  38  42
ENDBRANCH  35  37
BRANCH  36  48
ATOM     48  O5  UNL     1       5.438   4.617   4.016 -0.06 -0.00    -0.353 OA
ATOM     49  C48 UNL     1       6.151   3.380   3.964 -0.17 +0.00    +0.210 C 
ENDBRANCH  36  48
ENDBRANCH  28  31
ENDBRANCH  25  27
BRANCH  26  50
ATOM     50  O4  UNL     1      10.900   7.689   4.395 -0.21 -0.00    -0.357 OA
ATOM     51  H41 UNL     1      10.166   7.433   3.798 +0.13 +0.00    +0.217 HD
ENDBRANCH  26  50
ENDBRANCH  14  17
ENDBRANCH  10  13
ENDBRANCH   4   7
BRANCH   1  52
ATOM     52  N3  UNL     1      22.867   9.049   2.122 -0.20 -0.00    -0.323 N 
ATOM     53  C18 UNL     1      23.974   9.306   2.909 -0.39 +0.00    +0.259 C 
ATOM     54  O2  UNL     1      24.001   9.406   4.133 -0.72 -0.00    -0.267 OA
ATOM     55  H45 UNL     1      22.969   9.170   1.122 +0.13 +0.00    +0.169 HD
BRANCH  53  56
ATOM     56  C10 UNL     1      25.250   9.548   2.178 -0.49 +0.00    +0.068 A 
ATOM     57  C9  UNL     1      26.182   8.511   2.044 -0.43 +0.00    +0.110 A 
ATOM     58  C8  UNL     1      27.403   8.721   1.372 -0.17 +0.00    +0.093 A 
ATOM     59  C17 UNL     1      27.703  10.005   0.842+35.00 +0.00    +0.005 A 
ATOM     60  C12 UNL     1      26.741  11.039   0.949+44.65 -0.00    -0.022 A 
ATOM     61  C16 UNL     1      28.926  10.302   0.203+23.98 +0.00    +0.014 A 
ATOM     62  C11 UNL     1      25.522  10.796   1.602 +1.89 +0.00    +0.032 A 
ATOM     63  C13 UNL     1      27.014  12.305   0.402+34.61 +0.00    +0.012 A 
ATOM     64  C14 UNL     1      28.227  12.567  -0.233+14.52 +0.00    +0.001 A 
ATOM     65  C15 UNL     1      29.186  11.566  -0.329+32.51 +0.00    +0.001 A 
BRANCH  57  66
ATOM     66  O7  UNL     1      25.945   7.262   2.576 -0.24 -0.00    -0.357 OA
ATOM     67  H43 UNL     1      25.415   7.372   3.397 +0.16 +0.00    +0.217 HD
ENDBRANCH  57  66
BRANCH  58  68
ATOM     68  N2  UNL     1      28.340   7.668   1.256 -0.21 -0.00    -0.297 N 
ATOM     69  N1  UNL     1      29.232   7.791   2.127 -0.28 -0.00    -0.297 N 
ATOM     70  H1  UNL     1      29.241   8.520   2.842 -0.01 +0.00    +0.187 HD
ATOM     71  H2  UNL     1      28.296   6.919   0.565 +0.10 +0.00    +0.187 HD
BRANCH  69  72
ATOM     72  C7  UNL     1      30.223   6.794   1.994 -0.29 +0.00    +0.082 A 
ATOM     73  C2  UNL     1      30.267   5.977   0.847 -0.18 +0.00    +0.110 A 
ATOM     74  C3  UNL     1      31.217   4.945   0.755 -0.15 +0.00    +0.050 A 
ATOM     75  C4  UNL     1      32.115   4.717   1.807 -0.22 +0.00    +0.019 A 
ATOM     76  C5  UNL     1      32.075   5.515   2.947 -0.08 +0.00    +0.003 A 
ATOM     77  C6  UNL     1      31.134   6.541   3.038 +2.36 +0.00    +0.034 A 
BRANCH  73  78
ATOM     78  O1  UNL     1      29.317   6.088  -0.142 -0.07 -0.00    -0.353 OA
ATOM     79  C1  UNL     1      28.444   4.961  -0.177 -0.18 +0.00    +0.210 C 
ENDBRANCH  73  78
BRANCH  74  80
ATOM     80  C56 UNL     1      31.314   4.057  -0.416 -0.06 +0.00    +0.153 C 
ATOM     81  N8  UNL     1      30.813   2.865  -0.448 -0.05 -0.00    -0.336 N 
ATOM     82  H8  UNL     1      30.305   2.506   0.361 +0.08 +0.00    +0.168 HD
BRANCH  80  83
ATOM     83  O8  UNL     1      32.050   4.607  -1.403 +0.01 -0.00    -0.345 OA
ATOM     84  H44 UNL     1      31.786   5.527  -1.554 +0.04 +0.00    +0.219 HD
ENDBRANCH  80  83
BRANCH  81  85
ATOM     85  C57 UNL     1      30.964   2.067  -1.586 -0.15 +0.00    +0.034 A 
ATOM     86  C58 UNL     1      29.930   1.965  -2.519 -0.13 +0.00    +0.029 A 
ATOM     87  C59 UNL     1      30.077   1.162  -3.651 -0.11 +0.00    +0.002 A 
ATOM     88  C60 UNL     1      31.266   0.464  -3.859 -0.10 +0.00    +0.000 A 
ATOM     89  C61 UNL     1      32.309   0.574  -2.941 -0.07 +0.00    +0.002 A 
ATOM     90  C62 UNL     1      32.159   1.378  -1.809 -0.12 +0.00    +0.029 A 
ENDBRANCH  81  85
ENDBRANCH  74  80
ENDBRANCH  69  72
ENDBRANCH  58  68
ENDBRANCH  53  56
ENDBRANCH   1  52
TORSDOF 19
TER
