USER    Run = 1
USER    DPF = ligand_478_receptor.dpf
USER  
USER    Estimated Free Energy of Binding    =  +7.05e+004 kcal/mol  [=(1)+(2)+(3)-(4)]
USER    
USER    (1) Final Intermolecular Energy     =  +7.05e+004 kcal/mol
USER        vdW + Hbond + desolv Energy     =  +7.05e+004 kcal/mol
USER        Electrostatic Energy            =   +0.00 kcal/mol
USER    (2) Final Total Internal Energy     =   +0.00 kcal/mol
USER    (3) Torsional Free Energy           =   +1.19 kcal/mol
USER    (4) Unbound System's Energy  [=(2)] =   +0.00 kcal/mol
USER    
USER    
USER    NEWDPF move ligand_478.pdbqt
USER    NEWDPF about 0.000000 0.000000 0.000000
USER    NEWDPF tran0 15.629699 8.102114 3.718432
USER    NEWDPF quaternion0 0.954329 0.115294 0.047926 0.271417
USER    NEWDPF axisangle0 0.991550 0.119791 0.049795 148.502760
USER    NEWDPF quat0 0.991550 0.119791 0.049795 148.502760
USER  keepresnum = 1 
USER  
REMARK  0 active torsions:
REMARK  status: ('A' for Active; 'I' for Inactive)
REMARK       I    between atoms: C3_3  and  C12_12 
REMARK       I    between atoms: C4_4  and  C6_6 
REMARK       I    between atoms: C5_5  and  N3_65 
REMARK       I    between atoms: C6_6  and  C7_7 
REMARK       I    between atoms: C6_6  and  N5_67 
REMARK       I    between atoms: C7_7  and  C8_8 
REMARK       I    between atoms: C8_8  and  N4_66 
REMARK       I    between atoms: C9_9  and  C10_10 
REMARK       I    between atoms: C9_9  and  N5_67 
REMARK       I    between atoms: C10_10  and  C11_11 
REMARK       I    between atoms: C10_10  and  N7_69 
REMARK       I    between atoms: C11_11  and  N6_68 
REMARK       I    between atoms: C12_12  and  N8_70 
REMARK       I    between atoms: C13_13  and  C14_14 
REMARK       I    between atoms: C13_13  and  C31_31 
REMARK       I    between atoms: C13_13  and  N8_70 
REMARK       I    between atoms: C14_14  and  C15_15 
REMARK       I    between atoms: C14_14  and  O4_94 
REMARK       I    between atoms: C18_18  and  O4_94 
REMARK       I    between atoms: C19_19  and  O9_99 
REMARK       I    between atoms: C20_20  and  O8_98 
REMARK       I    between atoms: C21_21  and  O7_97 
REMARK       I    between atoms: C22_22  and  C23_23 
REMARK       I    between atoms: C23_23  and  O6_96 
REMARK       I    between atoms: C24_24  and  O9_99 
REMARK       I    between atoms: C25_25  and  O15_105 
REMARK       I    between atoms: C26_26  and  O13_103 
REMARK       I    between atoms: C27_27  and  O12_102 
REMARK       I    between atoms: C28_28  and  C29_29 
REMARK       I    between atoms: C29_29  and  O11_101 
REMARK       I    between atoms: C30_30  and  N11_74 
REMARK       I    between atoms: C30_30  and  O13_103 
REMARK       I    between atoms: C31_31  and  N12_75 
REMARK       I    between atoms: C32_32  and  C34_34 
REMARK       I    between atoms: C32_32  and  N12_75 
REMARK       I    between atoms: C34_34  and  C35_35 
REMARK       I    between atoms: C34_34  and  O21_111 
REMARK       I    between atoms: C35_35  and  C37_37 
REMARK       I    between atoms: C37_37  and  N13_76 
REMARK       I    between atoms: C38_38  and  C39_39 
REMARK       I    between atoms: C38_38  and  C41_41 
REMARK       I    between atoms: C38_38  and  N13_76 
REMARK       I    between atoms: C39_39  and  O18_108 
REMARK       I    between atoms: C41_41  and  N14_77 
REMARK       I    between atoms: C42_42  and  C43_43 
REMARK       I    between atoms: C42_42  and  N14_77 
REMARK       I    between atoms: C43_43  and  C44_44 
REMARK       I    between atoms: C45_45  and  C47_47 
REMARK       I    between atoms: C48_48  and  C50_50 
REMARK       I    between atoms: C50_50  and  N17_82 
REMARK       I    between atoms: C51_51  and  C52_52 
REMARK       I    between atoms: C51_51  and  N17_82 
REMARK       I    between atoms: C52_52  and  C53_53 
REMARK       I    between atoms: C53_53  and  C54_54 
REMARK       I    between atoms: C54_54  and  N18_83 
REMARK       I    between atoms: C55_55  and  N18_83 
REMARK       I    between atoms: C55_55  and  N19_84 
REMARK       I    between atoms: C55_55  and  N23_90 
REMARK       I    between atoms: C56_56  and  C57_57 
REMARK       I    between atoms: C56_56  and  N19_84 
REMARK       I    between atoms: C57_57  and  C58_58 
REMARK       I    between atoms: C58_58  and  C59_59 
REMARK       I    between atoms: C59_59  and  N20_86 
REMARK       I    between atoms: C60_60  and  N21_88 
REMARK       I    between atoms: C60_60  and  N22_89 
USER                              x       y       z     vdW  Elec       q    Type
USER                           _______ _______ _______ _____ _____    ______ ____
ROOT
ATOM      1  C1  UNL     1      17.213   6.247   2.998+17.34 +0.00    +0.054 C 
ATOM      2  C2  UNL     1      16.252   6.420   1.867+99.99 +0.00    +0.009 A 
ATOM      3  C3  UNL     1      14.910   6.689   2.055+99.99 +0.00    +0.111 A 
ATOM      4  C4  UNL     1      14.488   6.757  -0.200 +6.15 +0.00    +0.117 A 
ATOM      5  C5  UNL     1      16.632   6.393   0.537+60.94 +0.00    +0.087 A 
ATOM      6  C6  UNL     1      13.486   6.888  -1.348 +2.44 +0.00    +0.296 C 
ATOM      7  C7  UNL     1      12.598   8.139  -1.214+92.26 +0.00    +0.146 C 
ATOM      8  C8  UNL     1      11.610   8.109  -0.070+58.66 +0.00    +0.217 C 
ATOM      9  C9  UNL     1      12.494   4.705  -0.621 +5.44 +0.00    +0.315 C 
ATOM     10  C10 UNL     1      11.574   3.530  -1.035 +3.93 +0.00    +0.336 C 
ATOM     11  C11 UNL     1      12.313   2.515  -1.928+99.99 +0.00    +0.250 C 
ATOM     12  C12 UNL     1      14.287   6.939   3.408 +1.03 +0.00    +0.269 C 
ATOM     13  C13 UNL     1      12.483   8.324   4.439 -0.18 +0.00    +0.212 C 
ATOM     14  C14 UNL     1      10.926   8.398   4.448 -0.31 +0.00    +0.207 C 
ATOM     15  C15 UNL     1      10.247   7.303   3.674 -0.34 +0.00    +0.057 A 
ATOM     16  C16 UNL     1       9.111   7.300   2.896 -0.29 +0.00    +0.116 A 
ATOM     17  C17 UNL     1       9.854   5.297   2.834 -0.09 +0.00    +0.180 A 
ATOM     18  C18 UNL     1      10.482   9.349   6.620 +3.06 +0.00    +0.293 C 
ATOM     19  C19 UNL     1       9.294   9.314   7.614+46.14 +0.00    +0.211 C 
ATOM     20  C20 UNL     1       9.460  10.443   8.632+99.99 +0.00    +0.183 C 
ATOM     21  C21 UNL     1      10.836  10.374   9.304+62.14 +0.00    +0.180 C 
ATOM     22  C22 UNL     1      11.922  10.381   8.221 +2.24 +0.00    +0.179 C 
ATOM     23  C23 UNL     1      13.327  10.254   8.824 -0.06 +0.00    +0.198 C 
ATOM     24  C24 UNL     1       8.272   7.147   7.833+40.80 +0.00    +0.292 C 
ATOM     25  C25 UNL     1       6.979   7.327   8.659 +6.28 +0.00    +0.205 C 
ATOM     26  C26 UNL     1       5.913   6.316   8.221 +3.82 +0.00    +0.198 C 
ATOM     27  C27 UNL     1       6.493   4.892   8.196 +7.09 +0.00    +0.181 C 
ATOM     28  C28 UNL     1       7.896   4.787   7.557 -0.43 +0.00    +0.179 C 
ATOM     29  C29 UNL     1       7.930   4.618   6.027 -0.30 +0.00    +0.198 C 
ATOM     30  C30 UNL     1       4.277   6.172   6.509 -0.18 +0.00    +0.358 C 
ATOM     31  C31 UNL     1      13.035   9.759   4.309+99.99 +0.00    +0.243 C 
ATOM     32  C32 UNL     1      13.543  11.642   2.775+99.99 +0.00    +0.110 C 
ATOM     33  C33 UNL     1      12.491  12.692   3.146+99.99 +0.00    +0.035 C 
ATOM     34  C34 UNL     1      14.030  11.810   1.304 +3.01 +0.00    +0.153 C 
ATOM     35  C35 UNL     1      15.049  10.751   0.843 +4.72 +0.00    +0.104 C 
ATOM     36  C36 UNL     1      15.606  11.056  -0.551+61.77 +0.00    +0.022 C 
ATOM     37  C37 UNL     1      16.178  10.556   1.837 -0.37 +0.00    +0.224 C 
ATOM     38  C38 UNL     1      17.957  11.650   3.126 -0.01 +0.00    +0.205 C 
ATOM     39  C39 UNL     1      19.293  12.362   2.826 +1.22 +0.00    +0.146 C 
ATOM     40  C40 UNL     1      19.155  13.821   2.397 +1.32 +0.00    +0.042 C 
ATOM     41  C41 UNL     1      17.191  12.360   4.261+99.99 +0.00    +0.243 C 
ATOM     42  C42 UNL     1      16.934  12.478   6.730+99.99 +0.00    +0.129 C 
ATOM     43  C43 UNL     1      17.857  13.605   7.219+99.99 +0.00    +0.084 C 
ATOM     44  C44 UNL     1      19.262  13.110   7.426+99.99 +0.00    +0.052 A 
ATOM     45  C45 UNL     1      21.138  11.993   7.025+39.47 +0.00    +0.073 A 
ATOM     46  C46 UNL     1      21.501  12.591   8.211 +2.30 +0.00    +0.083 A 
ATOM     47  C47 UNL     1      22.018  11.000   6.173+39.54 +0.00    +0.102 A 
ATOM     48  C48 UNL     1      22.446   9.617   4.472 +0.08 +0.00    +0.108 A 
ATOM     49  C49 UNL     1      23.642   9.519   5.167 -0.02 +0.00    +0.087 A 
ATOM     50  C50 UNL     1      22.088   8.933   3.220 -0.18 +0.00    +0.268 C 
ATOM     51  C51 UNL     1      22.582   7.014   1.737 +8.68 +0.00    +0.123 C 
ATOM     52  C52 UNL     1      21.498   5.991   2.064+99.99 +0.00    +0.021 C 
ATOM     53  C53 UNL     1      21.320   4.939   0.966+99.99 +0.00    +0.021 C 
ATOM     54  C54 UNL     1      22.497   3.971   0.821 +6.42 +0.00    +0.122 C 
ATOM     55  C55 UNL     1      23.660   3.259   2.892+14.91 +0.00    +0.146 C 
ATOM     56  C56 UNL     1      25.637   4.140   3.828+99.99 +0.00    +0.122 C 
ATOM     57  C57 UNL     1      26.743   5.124   3.443+99.99 +0.00    +0.021 C 
ATOM     58  C58 UNL     1      26.238   6.566   3.343 +8.72 +0.00    +0.021 C 
ATOM     59  C59 UNL     1      27.374   7.578   3.214 +1.55 +0.00    +0.121 C 
ATOM     60  C60 UNL     1      29.044   8.480   4.601+99.99 +0.00    +0.121 C 
ATOM     61  N1  UNL     1      14.015   6.831   1.045+33.95 -0.00    -0.339 N 
ATOM     62  H1  UNL     1      13.024   6.988   1.230 -0.07 +0.00    +0.167 HD
ATOM     63  N2  UNL     1      15.776   6.534  -0.493+44.98 -0.00    -0.335 N 
ATOM     64  H2  UNL     1      16.097   6.473  -1.460 +1.01 +0.00    +0.168 HD
ATOM     65  N3  UNL     1      17.963   6.208   0.156+99.99 -0.00    -0.288 NA
ATOM     66  N4  UNL     1      10.471   7.401  -0.326 -0.07 -0.00    -0.370 N 
ATOM     67  N5  UNL     1      12.710   5.662  -1.737 +1.29 +0.00    +0.098 N 
ATOM     68  N6  UNL     1      11.486   1.596  -2.516 +0.48 -0.00    -0.368 N 
ATOM     69  N7  UNL     1      10.358   4.004  -1.756 -0.19 +0.00    +0.093 N 
ATOM     70  N8  UNL     1      13.045   7.546   3.327 -0.22 -0.00    -0.340 N 
ATOM     71  N9  UNL     1       8.879   6.050   2.372 -0.05 -0.00    -0.360 N 
ATOM     72  H9  UNL     1       8.116   5.767   1.758 +0.08 +0.00    +0.166 HD
ATOM     73  N10 UNL     1      10.682   6.000   3.659 -0.09 -0.00    -0.352 N 
ATOM     74  N11 UNL     1       3.995   6.594   5.257 +0.01 -0.00    -0.346 N 
ATOM     75  N12 UNL     1      13.019  10.305   3.035+77.00 -0.00    -0.352 N 
ATOM     76  N13 UNL     1      17.046  11.611   1.977 -0.25 -0.00    -0.345 N 
ATOM     77  N14 UNL     1      17.417  11.846   5.511+99.99 -0.00    -0.359 N 
ATOM     78  N15 UNL     1      19.872  12.313   6.577+99.99 -0.00    -0.351 N 
ATOM     79  H15 UNL     1      19.465  11.977   5.705+99.99 +0.00    +0.166 HD
ATOM     80  N16 UNL     1      21.533  10.484   5.064+99.99 -0.00    -0.344 N 
ATOM     81  H16 UNL     1      20.609  10.693   4.686+99.99 +0.00    +0.167 HD
ATOM     82  N17 UNL     1      22.879   7.855   2.878 +0.52 -0.00    -0.356 N 
ATOM     83  N18 UNL     1      22.625   3.156   2.015 -0.02 -0.00    -0.367 N 
ATOM     84  N19 UNL     1      24.574   4.156   2.824 +6.02 -0.00    -0.367 N 
ATOM     85  H19 UNL     1      24.560   4.862   2.089 +0.11 +0.00    +0.162 HD
ATOM     86  N20 UNL     1      28.005   7.740   4.521+99.99 -0.00    -0.372 N 
ATOM     87  H20 UNL     1      27.627   7.276   5.347+12.55 +0.00    +0.161 HD
ATOM     88  N21 UNL     1      29.669   8.637   5.787+99.99 -0.00    -0.279 NA
ATOM     89  N22 UNL     1      29.687   9.183   3.643+17.76 -0.00    -0.279 NA
ATOM     90  N23 UNL     1      23.520   2.280   3.823+92.10 -0.00    -0.274 NA
ATOM     91  O1  UNL     1      11.785   8.676   1.006+99.99 -0.00    -0.274 OA
ATOM     92  O2  UNL     1      13.526   2.481  -2.099+99.99 -0.00    -0.271 OA
ATOM     93  O3  UNL     1      14.810   6.632   4.469 -0.20 -0.00    -0.266 OA
ATOM     94  O4  UNL     1      10.351   8.232   5.743 +0.03 -0.00    -0.345 OA
ATOM     95  O5  UNL     1      11.730   9.286   7.304 -0.17 -0.00    -0.348 OA
ATOM     96  O6  UNL     1      14.332  10.620   7.873 +0.14 -0.00    -0.398 OA
ATOM     97  O7  UNL     1      10.964  11.500  10.180+14.81 -0.00    -0.390 OA
ATOM     98  O8  UNL     1       8.447  10.435   9.653+63.58 -0.00    -0.390 OA
ATOM     99  O9  UNL     1       9.254   8.065   8.336+99.99 -0.00    -0.346 OA
ATOM    100  O10 UNL     1       8.781   5.827   7.995 -0.14 -0.00    -0.348 OA
ATOM    101  O11 UNL     1       7.246   5.637   5.315 -0.09 -0.00    -0.398 OA
ATOM    102  O12 UNL     1       6.583   4.474   9.574+99.99 -0.00    -0.390 OA
ATOM    103  O13 UNL     1       5.418   6.754   6.936 -0.22 -0.00    -0.293 OA
ATOM    104  O14 UNL     1       3.601   5.365   7.122 -0.25 -0.00    -0.239 OA
ATOM    105  O15 UNL     1       6.467   8.676   8.544 +0.33 -0.00    -0.388 OA
ATOM    106  O16 UNL     1      13.351  10.427   5.294+99.99 -0.00    -0.271 OA
ATOM    107  O17 UNL     1      16.280   9.513   2.477 -0.29 -0.00    -0.273 OA
ATOM    108  O18 UNL     1      19.994  11.690   1.768 -0.29 -0.00    -0.393 OA
ATOM    109  O19 UNL     1      16.444  13.317   4.046 +7.08 -0.00    -0.271 OA
ATOM    110  O20 UNL     1      21.128   9.291   2.538 -0.32 -0.00    -0.266 OA
ATOM    111  O21 UNL     1      12.917  11.756   0.393+12.73 -0.00    -0.393 OA
ATOM    112  S1  UNL     1      20.201  13.563   8.791 +7.72 -0.00    -0.086 SA
ATOM    113  S2  UNL     1      23.602  10.500   6.578+19.46 -0.00    -0.080 SA
ATOM    114  H64 UNL     1      17.998   6.283  -0.857+75.02 +0.00    +0.125 HD
ATOM    115  H65 UNL     1      18.557   6.907   0.597+99.99 +0.00    +0.125 HD
ATOM    116  H66 UNL     1       9.854   7.209   0.458 +0.09 +0.00    +0.159 HD
ATOM    117  H67 UNL     1      10.483   6.720  -1.075 +0.09 +0.00    +0.159 HD
ATOM    118  H68 UNL     1      13.306   5.156  -2.405 +1.47 +0.00    +0.317 HD
ATOM    119  H69 UNL     1      11.897   1.011  -3.230 +0.08 +0.00    +0.159 HD
ATOM    120  H70 UNL     1      10.523   1.896  -2.643 +0.08 +0.00    +0.159 HD
ATOM    121  H71 UNL     1       9.796   4.545  -1.099 +0.14 +0.00    +0.314 HD
ATOM    122  H72 UNL     1      10.697   4.688  -2.443 +0.16 +0.00    +0.314 HD
ATOM    123  H73 UNL     1      12.765   7.812   2.380 -0.15 +0.00    +0.163 HD
ATOM    124  H74 UNL     1      11.511   5.653   4.129 +0.08 +0.00    +0.166 HD
ATOM    125  H75 UNL     1       3.290   6.072   4.758 +0.05 +0.00    +0.161 HD
ATOM    126  H76 UNL     1       4.765   6.985   4.734 +0.15 +0.00    +0.161 HD
ATOM    127  H77 UNL     1      12.589   9.799   2.259 +3.41 +0.00    +0.163 HD
ATOM    128  H78 UNL     1      16.768  12.515   1.620 +0.13 +0.00    +0.163 HD
ATOM    129  H79 UNL     1      18.236  11.253   5.629 +1.50 +0.00    +0.162 HD
ATOM    130  H80 UNL     1      23.507   7.465   3.567 +0.59 +0.00    +0.162 HD
ATOM    131  H81 UNL     1      22.295   2.206   1.892 -0.25 +0.00    +0.162 HD
ATOM    132  H82 UNL     1      29.289   7.980   6.461+23.00 +0.00    +0.126 HD
ATOM    133  H83 UNL     1      30.672   8.517   5.708+99.99 +0.00    +0.126 HD
ATOM    134  H84 UNL     1      30.037  10.069   3.989+99.99 +0.00    +0.126 HD
ATOM    135  H85 UNL     1      29.155   9.313   2.792 +1.85 +0.00    +0.126 HD
ATOM    136  H86 UNL     1      22.553   2.151   4.097+16.07 +0.00    +0.127 HD
ATOM    137  H87 UNL     1      24.101   2.401   4.642+16.90 +0.00    +0.127 HD
ATOM    138  H88 UNL     1      14.011  10.344   6.984 +0.19 +0.00    +0.209 HD
ATOM    139  H89 UNL     1      10.125  11.515  10.686+99.99 +0.00    +0.210 HD
ATOM    140  H90 UNL     1       7.771   9.768   9.400 +0.12 +0.00    +0.210 HD
ATOM    141  H91 UNL     1       7.614   5.642   4.407 +0.11 +0.00    +0.209 HD
ATOM    142  H92 UNL     1       6.904   3.556   9.595+99.99 +0.00    +0.210 HD
ATOM    143  H93 UNL     1       5.839   8.657   7.796 +0.12 +0.00    +0.210 HD
ATOM    144  H94 UNL     1      20.251  10.801   2.106 +0.17 +0.00    +0.210 HD
ATOM    145  H95 UNL     1      12.354  12.529   0.566+13.31 +0.00    +0.210 HD
ENDROOT
TORSDOF 52
TER
