USER    Run = 1
USER    DPF = ligand_260_receptor.dpf
USER  
USER    Estimated Free Energy of Binding    = +256.11 kcal/mol  [=(1)+(2)+(3)-(4)]
USER    
USER    (1) Final Intermolecular Energy     = +254.91 kcal/mol
USER        vdW + Hbond + desolv Energy     = +254.91 kcal/mol
USER        Electrostatic Energy            =   +0.00 kcal/mol
USER    (2) Final Total Internal Energy     = +141.24 kcal/mol
USER    (3) Torsional Free Energy           =   +1.19 kcal/mol
USER    (4) Unbound System's Energy  [=(2)] = +141.24 kcal/mol
USER    
USER    
USER    NEWDPF move ligand_260.pdbqt
USER    NEWDPF about 0.000000 0.000000 0.000000
USER    NEWDPF tran0 14.362900 7.753731 -1.823805
USER    NEWDPF quaternion0 0.727984 0.036134 -0.073545 -0.680679
USER    NEWDPF axisangle0 0.993725 0.049324 -0.100392 -94.206512
USER    NEWDPF quat0 0.993725 0.049324 -0.100392 -94.206512
USER    NEWDPF dihe0 135.84 -39.46 -129.02 -18.99 -115.82 166.09 96.76 149.91 -180.00 74.36 75.26 49.29 121.93 173.46 -97.41 173.46 -155.53 66.60 -74.00 180.00 -180.00 -41.81 177.36 -24.17 -82.53 29.60 164.20 -65.69 
USER  keepresnum = 1 
USER  
REMARK  28 active torsions:
REMARK  status: ('A' for Active; 'I' for Inactive)
REMARK    1  A    between atoms: C2_2  and  C4_4 
REMARK    2  A    between atoms: C6_6  and  N13_74 
REMARK    3  A    between atoms: C7_7  and  N5_65 
REMARK    4  A    between atoms: C9_9  and  C10_10 
REMARK    5  A    between atoms: C9_9  and  N5_65 
REMARK    6  A    between atoms: C15_15  and  C16_16 
REMARK    7  A    between atoms: C23_23  and  N7_68 
REMARK    8  A    between atoms: C25_25  and  C26_26 
REMARK       I    between atoms: C25_25  and  N7_68 
REMARK    9  A    between atoms: C27_27  and  C28_28 
REMARK   10  A    between atoms: C28_28  and  N8_69 
REMARK   11  A    between atoms: C30_30  and  C31_31 
REMARK   12  A    between atoms: C30_30  and  N8_69 
REMARK   13  A    between atoms: C31_31  and  O2_77 
REMARK   14  A    between atoms: C32_32  and  C33_33 
REMARK   15  A    between atoms: C32_32  and  O2_77 
REMARK   16  A    between atoms: C33_33  and  O3_78 
REMARK   17  A    between atoms: C34_34  and  C35_35 
REMARK   18  A    between atoms: C34_34  and  O3_78 
REMARK   19  A    between atoms: C35_35  and  O4_79 
REMARK   20  A    between atoms: C36_36  and  C37_37 
REMARK   21  A    between atoms: C36_36  and  O4_79 
REMARK   22  A    between atoms: C37_37  and  N9_70 
REMARK   23  A    between atoms: C38_38  and  C39_39 
REMARK       I    between atoms: C38_38  and  N9_70 
REMARK   24  A    between atoms: C39_39  and  N10_71 
REMARK   25  A    between atoms: C40_40  and  N10_71 
REMARK   26  A    between atoms: C48_48  and  N11_72 
REMARK   27  A    between atoms: C52_52  and  O9_84 
REMARK   28  A    between atoms: C55_55  and  N14_75 
USER                              x       y       z     vdW  Elec       q    Type
USER                           _______ _______ _______ _____ _____    ______ ____
ROOT
ATOM      1  C25 UNL     1      12.330   6.120   0.123 -0.34 +0.00    +0.245 C 
ATOM      2  N7  UNL     1      11.225   6.425  -0.641 -0.19 -0.00    -0.324 N 
ATOM      3  O1  UNL     1      12.663   5.025   0.559 +1.63 -0.00    -0.268 OA
ATOM      4  H64 UNL     1      11.176   7.363  -1.012 +0.07 +0.00    +0.169 HD
ENDROOT
BRANCH   1   5
ATOM      5  C26 UNL     1      13.227   7.283   0.357 +2.02 +0.00    +0.072 C 
ATOM      6  C27 UNL     1      14.551   7.174   0.568+39.57 +0.00    +0.008 C 
BRANCH   6   7
ATOM      7  C28 UNL     1      15.524   8.306   0.767 +0.51 +0.00    +0.299 C 
BRANCH   7   8
ATOM      8  N8  UNL     1      14.918   9.566   1.225+52.92 +0.00    +0.089 N 
ATOM      9  C29 UNL     1      15.866  10.678   1.062 -0.23 +0.00    +0.310 C 
BRANCH   8  10
ATOM     10  C30 UNL     1      14.492   9.487   2.641 +8.69 +0.00    +0.298 C 
BRANCH  10  11
ATOM     11  C31 UNL     1      12.975   9.269   2.820+15.54 +0.00    +0.198 C 
BRANCH  11  12
ATOM     12  O2  UNL     1      12.595   7.892   2.890 -0.17 -0.00    -0.387 OA
BRANCH  12  13
ATOM     13  C32 UNL     1      13.626   7.040   3.405 -0.23 +0.00    +0.193 C 
BRANCH  13  14
ATOM     14  C33 UNL     1      14.940   7.822   3.492 -0.34 +0.00    +0.193 C 
BRANCH  14  15
ATOM     15  O3  UNL     1      15.810   7.598   2.376 +1.67 -0.00    -0.387 OA
BRANCH  15  16
ATOM     16  C34 UNL     1      17.194   7.543   2.732 -0.37 +0.00    +0.193 C 
BRANCH  16  17
ATOM     17  C35 UNL     1      17.350   6.840   4.085 +9.89 +0.00    +0.193 C 
BRANCH  17  18
ATOM     18  O4  UNL     1      17.930   7.690   5.080 +1.80 -0.00    -0.387 OA
BRANCH  18  19
ATOM     19  C36 UNL     1      18.566   8.864   4.572 +0.94 +0.00    +0.187 C 
BRANCH  19  20
ATOM     20  C37 UNL     1      20.097   8.829   4.694 +7.62 +0.00    +0.148 C 
BRANCH  20  21
ATOM     21  N9  UNL     1      20.724   9.982   4.078+25.87 -0.00    -0.358 N 
ATOM     22  C38 UNL     1      20.350  10.438   2.829 +0.11 +0.00    +0.230 C 
ATOM     23  O5  UNL     1      19.627   9.811   2.057 -0.28 -0.00    -0.272 OA
ATOM     24  H65 UNL     1      21.169  10.674   4.674 +8.19 +0.00    +0.162 HD
BRANCH  22  25
ATOM     25  C39 UNL     1      20.901  11.831   2.488 +4.20 +0.00    +0.195 C 
BRANCH  25  26
ATOM     26  N10 UNL     1      20.657  12.162   1.069 +0.26 -0.00    -0.283 NA
ATOM     27  H66 UNL     1      20.474  13.167   0.954 +0.18 +0.00    +0.128 HD
BRANCH  26  28
ATOM     28  C40 UNL     1      21.570  11.711   0.111 +1.30 +0.00    +0.025 A 
ATOM     29  C41 UNL     1      21.726  12.309  -1.150 +0.88 +0.00    +0.024 A 
ATOM     30  C42 UNL     1      22.728  11.895  -2.058+16.68 +0.00    +0.003 A 
ATOM     31  C43 UNL     1      23.625  10.883  -1.721+12.30 +0.00    +0.018 A 
ATOM     32  C44 UNL     1      23.485  10.317  -0.472 +4.10 +0.00    +0.050 A 
ATOM     33  C45 UNL     1      22.499  10.720   0.413 +1.08 +0.00    +0.069 A 
ATOM     34  C47 UNL     1      24.269   9.272   0.179 +0.95 +0.00    +0.262 A 
ATOM     35  C46 UNL     1      22.655   9.910   1.624 +0.13 +0.00    +0.264 A 
ATOM     36  N11 UNL     1      23.692   9.047   1.399 -0.23 -0.00    -0.271 N 
ATOM     37  O6  UNL     1      21.964  10.025   2.621 -0.30 -0.00    -0.267 OA
ATOM     38  O7  UNL     1      25.248   8.744  -0.312 +0.41 -0.00    -0.267 OA
BRANCH  36  39
ATOM     39  C48 UNL     1      24.260   8.141   2.393 -0.36 +0.00    +0.145 C 
ATOM     40  C49 UNL     1      24.731   8.863   3.659 -0.63 +0.00    +0.039 C 
ATOM     41  C50 UNL     1      25.247   7.854   4.677 +0.73 +0.00    +0.105 C 
ATOM     42  C51 UNL     1      26.241   6.865   4.100 +2.01 +0.00    +0.219 C 
ATOM     43  N12 UNL     1      26.039   6.465   2.808 +1.47 -0.00    -0.333 N 
ATOM     44  O8  UNL     1      27.123   6.348   4.779+15.16 -0.00    -0.274 OA
ATOM     45  C52 UNL     1      25.450   7.334   1.833 -0.30 +0.00    +0.243 C 
ATOM     46  H67 UNL     1      26.770   5.852   2.467 +2.01 +0.00    +0.165 HD
BRANCH  45  47
ATOM     47  O9  UNL     1      25.051   6.488   0.774 -0.17 -0.00    -0.375 OA
ATOM     48  H70 UNL     1      24.829   7.074   0.030 +0.16 +0.00    +0.212 HD
ENDBRANCH  45  47
ENDBRANCH  36  39
ENDBRANCH  26  28
ENDBRANCH  25  26
ENDBRANCH  22  25
ENDBRANCH  20  21
ENDBRANCH  19  20
ENDBRANCH  18  19
ENDBRANCH  17  18
ENDBRANCH  16  17
ENDBRANCH  15  16
ENDBRANCH  14  15
ENDBRANCH  13  14
ENDBRANCH  12  13
ENDBRANCH  11  12
ENDBRANCH  10  11
ENDBRANCH   8  10
ENDBRANCH   7   8
ENDBRANCH   6   7
ENDBRANCH   1   5
BRANCH   2  49
ATOM     49  C23 UNL     1      10.177   5.559  -1.015 -0.21 +0.00    +0.035 A 
ATOM     50  C22 UNL     1       8.896   5.872  -0.556 -0.18 +0.00    +0.030 A 
ATOM     51  C21 UNL     1       7.806   5.058  -0.878 -0.05 +0.00    +0.017 A 
ATOM     52  C20 UNL     1       7.969   3.893  -1.660 -0.12 +0.00    +0.002 A 
ATOM     53  C16 UNL     1       6.925   3.004  -2.011 -0.09 +0.00    +0.054 A 
ATOM     54  C19 UNL     1       9.264   3.577  -2.118 -0.16 -0.00    -0.020 A 
ATOM     55  N6  UNL     1       7.115   1.881  -2.751 -0.03 -0.00    -0.364 N 
ATOM     56  C17 UNL     1       8.366   1.623  -3.174 +0.93 +0.00    +0.089 A 
ATOM     57  H6  UNL     1       6.340   1.258  -2.977 +0.04 +0.00    +0.165 HD
ATOM     58  C18 UNL     1       9.455   2.427  -2.889 +5.95 +0.00    +0.029 A 
ATOM     59  C24 UNL     1      10.350   4.413  -1.794 -0.16 +0.00    +0.042 A 
BRANCH  53  60
ATOM     60  C15 UNL     1       5.528   3.206  -1.594 -0.10 -0.00    -0.001 A 
ATOM     61  C10 UNL     1       5.187   3.908  -0.414 -0.14 -0.00    -0.027 A 
ATOM     62  C11 UNL     1       3.828   4.087  -0.091 -0.11 +0.00    +0.010 A 
ATOM     63  C12 UNL     1       2.822   3.567  -0.904 -0.10 +0.00    +0.001 A 
ATOM     64  C13 UNL     1       3.154   2.859  -2.052 -0.09 +0.00    +0.001 A 
ATOM     65  C14 UNL     1       4.496   2.678  -2.393 -0.08 +0.00    +0.014 A 
BRANCH  61  66
ATOM     66  C9  UNL     1       6.236   4.506   0.499 -0.11 +0.00    +0.177 C 
BRANCH  66  67
ATOM     67  N5  UNL     1       5.635   5.466   1.401 -0.13 -0.00    -0.220 N 
ATOM     68  H63 UNL     1       4.616   5.476   1.395 +0.04 +0.00    +0.178 HD
BRANCH  67  69
ATOM     69  C7  UNL     1       6.183   5.767   2.633 +0.09 +0.00    +0.716 A 
ATOM     70  N2  UNL     1       5.499   6.190   3.655 -0.16 -0.00    -0.021 N 
ATOM     71  C6  UNL     1       6.142   6.470   4.852 +4.89 +0.00    +0.696 A 
ATOM     72  H2  UNL     1       4.490   6.315   3.576 +0.07 +0.00    +0.203 HD
ATOM     73  N1  UNL     1       7.435   6.333   5.020 +0.43 -0.00    -0.173 N 
ATOM     74  C5  UNL     1       8.174   5.898   3.971 -0.14 +0.00    +0.168 A 
ATOM     75  H1  UNL     1       7.873   6.549   5.916 +0.31 +0.00    +0.186 HD
ATOM     76  C4  UNL     1       9.518   5.649   3.772 -0.24 +0.00    +0.009 A 
ATOM     77  N3  UNL     1       7.564   5.614   2.787 -0.16 -0.00    -0.069 N 
ATOM     78  C8  UNL     1       9.592   5.229   2.416 -0.10 +0.00    +0.119 A 
ATOM     79  N4  UNL     1       8.404   5.216   1.800 -0.04 -0.00    -0.289 N 
ATOM     80  H4  UNL     1       8.186   4.971   0.834 +0.08 +0.00    +0.187 HD
BRANCH  71  81
ATOM     81  N13 UNL     1       5.352   6.921   5.898 +5.09 -0.00    -0.217 N 
ATOM     82  C53 UNL     1       3.946   7.259   5.654 +1.41 +0.00    +0.143 C 
ATOM     83  C54 UNL     1       3.230   7.724   6.923 -0.29 +0.00    +0.055 C 
ATOM     84  C55 UNL     1       4.142   8.655   7.714 -0.25 +0.00    +0.221 C 
ATOM     85  C56 UNL     1       5.431   7.939   8.138 +0.57 +0.00    +0.055 C 
ATOM     86  C57 UNL     1       5.743   6.706   7.285 -0.02 +0.00    +0.143 C 
BRANCH  84  87
ATOM     87  N14 UNL     1       3.438   9.213   8.873 -0.01 +0.00    +0.083 N 
ATOM     88  H68 UNL     1       2.665   8.604   9.141 +0.14 +0.00    +0.313 HD
ATOM     89  H69 UNL     1       4.068   9.239   9.674 +0.53 +0.00    +0.313 HD
ENDBRANCH  84  87
ENDBRANCH  71  81
BRANCH  76  90
ATOM     90  C2  UNL     1      10.653   5.787   4.741 -0.33 +0.00    +0.016 C 
ATOM     91  C1  UNL     1      10.902   7.246   5.127 -0.41 +0.00    +0.015 C 
ATOM     92  C3  UNL     1      11.936   5.143   4.214 +1.42 +0.00    +0.015 C 
ENDBRANCH  76  90
ENDBRANCH  67  69
ENDBRANCH  66  67
ENDBRANCH  61  66
ENDBRANCH  53  60
ENDBRANCH   2  49
TORSDOF 28
TER
