USER    Run = 1
USER    DPF = ligand_196_receptor.dpf
USER  
USER    Estimated Free Energy of Binding    = +540.66 kcal/mol  [=(1)+(2)+(3)-(4)]
USER    
USER    (1) Final Intermolecular Energy     = +539.46 kcal/mol
USER        vdW + Hbond + desolv Energy     = +539.46 kcal/mol
USER        Electrostatic Energy            =   +0.00 kcal/mol
USER    (2) Final Total Internal Energy     = +157.35 kcal/mol
USER    (3) Torsional Free Energy           =   +1.19 kcal/mol
USER    (4) Unbound System's Energy  [=(2)] = +157.35 kcal/mol
USER    
USER    
USER    NEWDPF move ligand_196.pdbqt
USER    NEWDPF about 0.000000 0.000000 0.000000
USER    NEWDPF tran0 15.261180 7.601204 4.606792
USER    NEWDPF quaternion0 0.391933 0.745189 0.374826 0.388056
USER    NEWDPF axisangle0 0.425258 0.808551 0.406696 134.332829
USER    NEWDPF quat0 0.425258 0.808551 0.406696 134.332829
USER    NEWDPF dihe0 -180.00 66.22 173.87 -17.41 170.34 -61.98 119.54 -56.11 -56.78 -38.54 -121.35 -92.43 -179.96 -179.96 180.00 180.00 -21.54 -53.14 -180.00 177.55 180.00 -97.73 -180.00 -9.06 -6.72 -4.97 19.09 100.24 
USER  keepresnum = 1 
USER  
REMARK  28 active torsions:
REMARK  status: ('A' for Active; 'I' for Inactive)
REMARK    1  A    between atoms: C2_2  and  N1_72 
REMARK    2  A    between atoms: C3_3  and  N1_72 
REMARK    3  A    between atoms: C3_3  and  O1_77 
REMARK    4  A    between atoms: C4_4  and  O1_77 
REMARK    5  A    between atoms: C6_6  and  O13_89 
REMARK    6  A    between atoms: C16_16  and  O11_87 
REMARK    7  A    between atoms: C17_17  and  C19_19 
REMARK    8  A    between atoms: C21_21  and  O5_81 
REMARK    9  A    between atoms: C22_22  and  O4_80 
REMARK   10  A    between atoms: C23_23  and  O3_79 
REMARK   11  A    between atoms: C26_26  and  C27_27 
REMARK   12  A    between atoms: C26_26  and  O5_81 
REMARK   13  A    between atoms: C27_27  and  C28_28 
REMARK   14  A    between atoms: C27_27  and  C29_29 
REMARK   15  A    between atoms: C28_28  and  O6_82 
REMARK   16  A    between atoms: C44_44  and  C45_45 
REMARK   17  A    between atoms: C45_45  and  N2_73 
REMARK   18  A    between atoms: C53_53  and  C54_54 
REMARK   19  A    between atoms: C54_54  and  N3_74 
REMARK   20  A    between atoms: C61_61  and  C62_62 
REMARK   21  A    between atoms: C62_62  and  C63_63 
REMARK   22  A    between atoms: C63_63  and  O9_85 
REMARK   23  A    between atoms: C64_64  and  C65_65 
REMARK   24  A    between atoms: C65_65  and  O10_86 
REMARK   25  A    between atoms: C66_66  and  O12_88 
REMARK   26  A    between atoms: C69_69  and  C70_70 
REMARK   27  A    between atoms: C69_69  and  O13_89 
REMARK   28  A    between atoms: C70_70  and  N5_76 
USER                              x       y       z     vdW  Elec       q    Type
USER                           _______ _______ _______ _____ _____    ______ ____
ROOT
ATOM      1  C27 UNL     1      17.358  10.484   3.909 -0.39 +0.00    +0.048 C 
ENDROOT
BRANCH   1   2
ATOM      2  C26 UNL     1      16.441   9.234   4.053 -0.37 +0.00    +0.183 C 
BRANCH   2   3
ATOM      3  O5  UNL     1      15.599   9.375   5.208 +2.07 -0.00    -0.348 OA
BRANCH   3   4
ATOM      4  C21 UNL     1      14.985   8.192   5.518 +5.66 +0.00    +0.105 A 
ATOM      5  C20 UNL     1      13.613   8.100   5.294 -0.38 +0.00    +0.047 A 
ATOM      6  C19 UNL     1      12.914   6.925   5.618 -0.39 -0.00    -0.044 A 
ATOM      7  C24 UNL     1      13.621   5.849   6.192 -0.46 +0.00    +0.047 A 
ATOM      8  C23 UNL     1      14.992   5.949   6.446 +1.78 +0.00    +0.104 A 
ATOM      9  C22 UNL     1      15.665   7.130   6.108+10.88 +0.00    +0.133 A 
BRANCH   6  10
ATOM     10  C17 UNL     1      11.421   6.844   5.331 -0.35 +0.00    +0.076 C 
ATOM     11  C16 UNL     1      11.112   6.003   4.076 -0.24 +0.00    +0.165 C 
ATOM     12  C15 UNL     1       9.671   5.538   4.017 -0.24 +0.00    +0.012 A 
ATOM     13  C10 UNL     1       9.142   4.832   2.907 -0.18 -0.00    -0.033 A 
ATOM     14  C14 UNL     1       8.821   5.797   5.106 -0.15 +0.00    +0.080 A 
ATOM     15  C9  UNL     1       9.994   4.362   1.744 +8.92 +0.00    +0.045 C 
ATOM     16  C11 UNL     1       7.775   4.450   2.893 -0.17 +0.00    +0.004 A 
ATOM     17  C8  UNL     1       9.234   4.383   0.414 -0.13 +0.00    +0.047 C 
ATOM     18  C7  UNL     1       7.905   3.677   0.517 -0.11 -0.00    -0.012 A 
ATOM     19  C6  UNL     1       7.339   2.999  -0.565 -0.06 +0.00    +0.078 A 
ATOM     20  C68 UNL     1       7.189   3.765   1.730 -0.13 -0.00    -0.002 A 
ATOM     21  C5  UNL     1       6.078   2.422  -0.460 -0.07 +0.00    +0.074 A 
ATOM     22  C4  UNL     1       5.369   2.517   0.738 -0.09 +0.00    +0.084 A 
ATOM     23  C67 UNL     1       5.898   3.203   1.842 -0.11 +0.00    +0.030 A 
ATOM     24  C66 UNL     1       5.201   3.286   3.183 -0.10 +0.00    +0.233 C 
ATOM     25  N4  UNL     1       5.563   4.462   3.963 -0.07 -0.00    -0.262 NA
ATOM     26  C12 UNL     1       6.952   4.734   3.995 -0.20 +0.00    +0.025 A 
ATOM     27  H80 UNL     1       5.133   5.260   3.495 +0.05 +0.00    +0.130 HD
ATOM     28  C13 UNL     1       7.473   5.440   5.076 -0.21 +0.00    +0.061 A 
ATOM     29  O2  UNL     1       9.226   6.414   6.261 +0.50 -0.00    -0.350 OA
ATOM     30  C18 UNL     1      10.627   6.289   6.507 -0.23 +0.00    +0.188 C 
BRANCH  11  31
ATOM     31  O11 UNL     1      11.400   6.804   2.925 -0.19 -0.00    -0.390 OA
ATOM     32  H86 UNL     1      10.575   6.882   2.414 +0.12 +0.00    +0.210 HD
ENDBRANCH  11  31
BRANCH  19  33
ATOM     33  O13 UNL     1       7.999   2.947  -1.763 -0.04 -0.00    -0.349 OA
BRANCH  33  34
ATOM     34  C69 UNL     1       7.863   4.177  -2.493 -0.02 +0.00    +0.205 C 
BRANCH  34  35
ATOM     35  C70 UNL     1       8.854   5.220  -1.954 -0.05 +0.00    +0.295 C 
BRANCH  35  36
ATOM     36  N5  UNL     1      10.035   5.362  -2.819 -0.20 +0.00    +0.081 N 
ATOM     37  C71 UNL     1      10.184   6.734  -3.281 -0.16 +0.00    +0.306 C 
ATOM     38  H81 UNL     1      10.871   5.085  -2.306 +0.17 +0.00    +0.315 HD
ENDBRANCH  35  36
ENDBRANCH  34  35
ENDBRANCH  33  34
ENDBRANCH  19  33
BRANCH  22  39
ATOM     39  O1  UNL     1       4.177   1.853   0.858 -0.08 -0.00    -0.321 OA
BRANCH  39  40
ATOM     40  C3  UNL     1       4.287   0.727   1.733 +0.09 +0.00    +0.444 C 
BRANCH  40  41
ATOM     41  N1  UNL     1       5.231   1.019   2.809 -0.29 +0.00    +0.106 N 
ATOM     42  H78 UNL     1       5.885   0.230   2.786 +0.18 +0.00    +0.318 HD
BRANCH  41  43
ATOM     43  C2  UNL     1       4.603   1.045   4.130 -0.26 +0.00    +0.268 C 
ATOM     44  C1  UNL     1       3.086   0.933   4.067 -0.28 +0.00    +0.037 C 
ENDBRANCH  41  43
ENDBRANCH  40  41
ENDBRANCH  39  40
ENDBRANCH  22  39
BRANCH  24  45
ATOM     45  O12 UNL     1       3.799   3.408   3.073 -0.02 -0.00    -0.377 OA
ATOM     46  H87 UNL     1       3.661   3.294   2.118 +0.06 +0.00    +0.212 HD
ENDBRANCH  24  45
ENDBRANCH   6  10
BRANCH   8  47
ATOM     47  O3  UNL     1      15.782   4.979   7.011+55.58 -0.00    -0.353 OA
ATOM     48  C25 UNL     1      15.119   3.960   7.752 +9.72 +0.00    +0.210 C 
ENDBRANCH   8  47
BRANCH   9  49
ATOM     49  O4  UNL     1      17.003   7.236   6.379+15.71 -0.00    -0.356 OA
ATOM     50  H82 UNL     1      17.302   8.036   5.904 +1.26 +0.00    +0.218 HD
ENDBRANCH   9  49
ENDBRANCH   3   4
ENDBRANCH   2   3
ENDBRANCH   1   2
BRANCH   1  51
ATOM     51  C28 UNL     1      16.471  11.716   4.187+17.02 +0.00    +0.172 C 
BRANCH  51  52
ATOM     52  O6  UNL     1      15.870  12.219   3.001 +0.54 -0.00    -0.400 OA
ATOM     53  H83 UNL     1      14.922  12.330   3.196 +0.32 +0.00    +0.209 HD
ENDBRANCH  51  52
ENDBRANCH   1  51
BRANCH   1  54
ATOM     54  C29 UNL     1      18.280  10.498   2.550 -0.52 +0.00    +0.007 C 
ATOM     55  C30 UNL     1      17.381  10.656   1.262 -0.55 +0.00    +0.028 C 
ATOM     56  C31 UNL     1      16.929  12.091   1.034 -0.59 -0.00    -0.020 C 
ATOM     57  C44 UNL     1      18.003  10.163  -0.088 -0.49 +0.00    +0.023 C 
ATOM     58  C32 UNL     1      17.603  13.156   1.485 -0.13 +0.00    +0.008 C 
ATOM     59  C33 UNL     1      18.845  12.980   2.237 -0.76 -0.00    -0.029 C 
ATOM     60  C34 UNL     1      19.257  11.699   2.666 +0.12 -0.00    -0.031 C 
ATOM     61  C38 UNL     1      19.627  14.106   2.517+20.39 +0.00    +0.012 C 
ATOM     62  C35 UNL     1      20.544  11.552   3.229+15.57 -0.00    -0.045 C 
ATOM     63  C36 UNL     1      21.289  12.705   3.542+40.23 +0.00    +0.008 C 
ATOM     64  C39 UNL     1      21.190  10.188   3.443 +1.50 +0.00    +0.027 C 
ATOM     65  C37 UNL     1      20.830  13.973   3.198+47.92 +0.00    +0.001 C 
ATOM     66  C40 UNL     1      20.116   9.135   3.688 +0.90 +0.00    +0.016 C 
ATOM     67  C58 UNL     1      22.121   9.693   2.280 -0.46 +0.00    +0.021 C 
ATOM     68  C41 UNL     1      19.137   9.172   2.497 -0.28 +0.00    +0.005 C 
ATOM     69  C42 UNL     1      19.889   8.891   1.153+26.15 -0.00    -0.004 C 
ATOM     70  C43 UNL     1      19.508   9.859   0.044 +0.12 +0.00    +0.013 C 
ATOM     71  C57 UNL     1      21.427   8.655   1.348 +6.16 +0.00    +0.005 C 
ATOM     72  C64 UNL     1      22.314   8.335   0.100 +0.11 +0.00    +0.022 C 
ATOM     73  C61 UNL     1      22.730   9.601  -0.717 +0.53 +0.00    +0.016 C 
ATOM     74  C60 UNL     1      23.105  10.737   0.205 +0.84 -0.00    -0.025 C 
ATOM     75  C59 UNL     1      22.868  10.758   1.523+20.54 -0.00    -0.025 C 
BRANCH  72  76
ATOM     76  C65 UNL     1      21.688   7.228  -0.767+10.57 +0.00    +0.169 C 
BRANCH  76  77
ATOM     77  O10 UNL     1      20.788   7.768  -1.728 +0.84 -0.00    -0.400 OA
ATOM     78  H85 UNL     1      20.330   7.016  -2.144 +0.04 +0.00    +0.209 HD
ENDBRANCH  76  77
ENDBRANCH  72  76
BRANCH  73  79
ATOM     79  C62 UNL     1      23.892   9.298  -1.694 +5.87 +0.00    +0.035 C 
BRANCH  79  80
ATOM     80  C63 UNL     1      24.550   7.935  -1.480 +0.98 +0.00    +0.165 C 
BRANCH  80  81
ATOM     81  O9  UNL     1      23.911   6.953  -2.289 -0.33 -0.00    -0.401 OA
ATOM     82  H84 UNL     1      23.147   7.373  -2.720 +0.20 +0.00    +0.209 HD
ENDBRANCH  80  81
ENDBRANCH  79  80
ENDBRANCH  73  79
BRANCH  57  83
ATOM     83  C45 UNL     1      17.126   9.079  -0.887 -0.27 +0.00    +0.048 C 
ATOM     84  C46 UNL     1      16.749   9.578  -2.314+44.50 +0.00    +0.032 C 
ATOM     85  C47 UNL     1      16.426   8.482  -3.344 +3.95 +0.00    +0.002 C 
ATOM     86  C48 UNL     1      16.113   7.122  -2.742 +6.78 +0.00    +0.000 C 
ATOM     87  C49 UNL     1      17.194   6.648  -1.775+12.84 +0.00    +0.002 C 
ATOM     88  C50 UNL     1      17.980   7.789  -1.120+36.53 +0.00    +0.032 C 
BRANCH  83  89
ATOM     89  N2  UNL     1      15.930   8.706  -0.044 -0.34 -0.00    -0.270 N 
ATOM     90  C51 UNL     1      15.199   7.569  -0.234 +0.74 +0.00    +0.251 A 
ATOM     91  C52 UNL     1      14.208   7.474   0.835 +9.86 +0.00    +0.089 A 
ATOM     92  O7  UNL     1      15.293   6.713  -1.095 +3.08 -0.00    -0.268 OA
ATOM     93  C53 UNL     1      14.380   8.518   1.645+81.22 +0.00    +0.043 A 
ATOM     94  C56 UNL     1      15.494   9.313   1.097 +2.27 +0.00    +0.259 A 
ATOM     95  O8  UNL     1      15.894  10.323   1.647 -0.33 -0.00    -0.267 OA
BRANCH  93  96
ATOM     96  C54 UNL     1      13.710   8.923   2.911 +6.19 +0.00    +0.313 C 
BRANCH  96  97
ATOM     97  N3  UNL     1      12.496   8.183   3.257 -0.33 +0.00    +0.083 N 
ATOM     98  C55 UNL     1      11.280   8.931   2.978+12.94 +0.00    +0.307 C 
ATOM     99  H79 UNL     1      12.523   7.867   4.225 +0.21 +0.00    +0.315 HD
ENDBRANCH  96  97
ENDBRANCH  93  96
ENDBRANCH  83  89
ENDBRANCH  57  83
ENDBRANCH   1  54
TORSDOF 28
TER
