USER    Run = 1
USER    DPF = ligand_43_receptor.dpf
USER  
USER    Estimated Free Energy of Binding    =  +92.45 kcal/mol  [=(1)+(2)+(3)-(4)]
USER    
USER    (1) Final Intermolecular Energy     =  +91.26 kcal/mol
USER        vdW + Hbond + desolv Energy     =  +91.26 kcal/mol
USER        Electrostatic Energy            =   +0.00 kcal/mol
USER    (2) Final Total Internal Energy     =  +31.34 kcal/mol
USER    (3) Torsional Free Energy           =   +1.19 kcal/mol
USER    (4) Unbound System's Energy  [=(2)] =  +31.34 kcal/mol
USER    
USER    
USER    NEWDPF move ligand_43.pdbqt
USER    NEWDPF about 0.000000 0.000000 0.000000
USER    NEWDPF tran0 21.549538 13.727410 -2.029810
USER    NEWDPF quaternion0 -0.031624 0.791142 -0.507205 0.340349
USER    NEWDPF axisangle0 -0.033632 0.841373 -0.539408 140.203772
USER    NEWDPF quat0 -0.033632 0.841373 -0.539408 140.203772
USER    NEWDPF dihe0 -180.00 2.86 -44.43 -110.87 -8.04 -172.29 85.37 -179.97 11.08 162.99 88.14 104.80 -82.15 -23.16 -176.02 -25.15 -180.00 -81.21 
USER  keepresnum = 1 
USER  
REMARK  18 active torsions:
REMARK  status: ('A' for Active; 'I' for Inactive)
REMARK    1  A    between atoms: C4_4  and  C5_5 
REMARK       I    between atoms: C5_5  and  N3_47 
REMARK    2  A    between atoms: C6_6  and  N3_47 
REMARK    3  A    between atoms: C8_8  and  C10_10 
REMARK       I    between atoms: C10_10  and  N5_49 
REMARK    4  A    between atoms: C11_11  and  N5_49 
REMARK    5  A    between atoms: C13_13  and  C15_15 
REMARK       I    between atoms: C15_15  and  N7_51 
REMARK    6  A    between atoms: C16_16  and  C17_17 
REMARK    7  A    between atoms: C16_16  and  N7_51 
REMARK    8  A    between atoms: C17_17  and  C18_18 
REMARK       I    between atoms: C18_18  and  N8_52 
REMARK    9  A    between atoms: C19_19  and  N8_52 
REMARK   10  A    between atoms: C21_21  and  C23_23 
REMARK       I    between atoms: C23_23  and  N10_54 
REMARK   11  A    between atoms: C24_24  and  N10_54 
REMARK   12  A    between atoms: C26_26  and  C28_28 
REMARK       I    between atoms: C28_28  and  N12_56 
REMARK   13  A    between atoms: C29_29  and  N12_56 
REMARK   14  A    between atoms: C32_32  and  C34_34 
REMARK       I    between atoms: C34_34  and  N14_58 
REMARK   15  A    between atoms: C35_35  and  C36_36 
REMARK   16  A    between atoms: C35_35  and  N14_58 
REMARK   17  A    between atoms: C36_36  and  C37_37 
REMARK   18  A    between atoms: C37_37  and  N15_59 
USER                              x       y       z     vdW  Elec       q    Type
USER                           _______ _______ _______ _____ _____    ______ ____
ROOT
ATOM      1  C18 UNL     1      25.518   8.692   0.078 +0.89 +0.00    +0.223 C 
ATOM      2  N8  UNL     1      24.705   9.592   0.751 +0.76 -0.00    -0.326 N 
ATOM      3  O4  UNL     1      25.315   8.218  -1.036 +1.00 -0.00    -0.273 OA
ATOM      4  H49 UNL     1      25.004   9.917   1.661 +0.13 +0.00    +0.169 HD
ENDROOT
BRANCH   2   5
ATOM      5  C19 UNL     1      23.529  10.130   0.264 +0.72 +0.00    +0.052 A 
ATOM      6  C20 UNL     1      23.371  11.154  -0.634 +4.10 +0.00    +0.120 A 
ATOM      7  N9  UNL     1      22.030  11.356  -0.836 +0.59 -0.00    -0.354 N 
ATOM      8  C21 UNL     1      21.290  10.481  -0.058 -0.16 +0.00    +0.105 A 
ATOM      9  C41 UNL     1      21.498  12.367  -1.726 +8.40 +0.00    +0.156 C 
ATOM     10  C22 UNL     1      22.225   9.700   0.618 -0.42 +0.00    +0.066 A 
BRANCH   8  11
ATOM     11  C23 UNL     1      19.831  10.437  -0.026 +0.13 +0.00    +0.273 C 
ATOM     12  N10 UNL     1      19.314   9.380   0.704 +0.93 -0.00    -0.320 N 
ATOM     13  H50 UNL     1      19.955   8.782   1.206 +0.88 +0.00    +0.169 HD
ATOM     14  O5  UNL     1      19.136  11.283  -0.585 -0.19 -0.00    -0.266 OA
BRANCH  12  15
ATOM     15  C24 UNL     1      17.970   9.108   0.869 +0.00 +0.00    +0.053 A 
ATOM     16  C25 UNL     1      17.141   9.866   1.658 -0.38 +0.00    +0.120 A 
ATOM     17  N11 UNL     1      15.880   9.326   1.604 -0.15 -0.00    -0.354 N 
ATOM     18  C26 UNL     1      15.866   8.218   0.772 -0.03 +0.00    +0.105 A 
ATOM     19  C40 UNL     1      14.742   9.871   2.318 +9.50 +0.00    +0.156 C 
ATOM     20  C27 UNL     1      17.178   8.070   0.329 +1.15 +0.00    +0.066 A 
BRANCH  18  21
ATOM     21  C28 UNL     1      14.689   7.411   0.479+10.42 +0.00    +0.273 C 
ATOM     22  N12 UNL     1      13.730   7.402   1.485 +1.85 -0.00    -0.320 N 
ATOM     23  H51 UNL     1      13.986   7.899   2.330 -0.26 +0.00    +0.169 HD
ATOM     24  O6  UNL     1      14.558   6.772  -0.561 +0.09 -0.00    -0.266 OA
BRANCH  22  25
ATOM     25  C29 UNL     1      12.520   6.764   1.470 -0.21 +0.00    +0.053 A 
ATOM     26  C30 UNL     1      12.023   6.061   0.432 -0.31 +0.00    +0.125 A 
ATOM     27  N13 UNL     1      10.699   5.534   0.802 -0.04 -0.00    -0.336 N 
ATOM     28  C31 UNL     1       9.928   4.854   0.048 -0.10 +0.00    +0.128 C 
ATOM     29  C32 UNL     1      10.478   6.001   2.192 -0.19 +0.00    +0.108 A 
ATOM     30  C33 UNL     1      11.557   6.713   2.575 -0.32 +0.00    +0.066 A 
BRANCH  29  31
ATOM     31  C34 UNL     1       9.291   5.650   3.017 -0.13 +0.00    +0.268 C 
ATOM     32  N14 UNL     1       8.617   4.505   2.671 -0.03 -0.00    -0.356 N 
ATOM     33  H52 UNL     1       8.903   3.921   1.896 -0.00 +0.00    +0.162 HD
ATOM     34  O7  UNL     1       8.981   6.366   3.963 -0.17 -0.00    -0.266 OA
BRANCH  32  35
ATOM     35  C35 UNL     1       7.453   4.049   3.424 -0.19 +0.00    +0.125 C 
BRANCH  35  36
ATOM     36  C36 UNL     1       7.526   4.477   4.887 -0.31 +0.00    +0.050 C 
BRANCH  36  37
ATOM     37  C37 UNL     1       6.246   5.181   5.358 -0.18 +0.00    +0.273 C 
BRANCH  37  38
ATOM     38  N15 UNL     1       5.029   4.370   5.209 -0.21 +0.00    +0.080 N 
ATOM     39  C38 UNL     1       5.384   2.986   4.872 +0.03 +0.00    +0.309 C 
ATOM     40  C39 UNL     1       4.135   4.907   4.177 -0.08 +0.00    +0.309 C 
ENDBRANCH  37  38
ENDBRANCH  36  37
ENDBRANCH  35  36
ENDBRANCH  32  35
ENDBRANCH  29  31
ENDBRANCH  22  25
ENDBRANCH  18  21
ENDBRANCH  12  15
ENDBRANCH   8  11
ENDBRANCH   2   5
BRANCH   1  41
ATOM     41  C17 UNL     1      26.740   8.326   0.902 -0.38 +0.00    +0.123 C 
BRANCH  41  42
ATOM     42  C16 UNL     1      26.665   8.879   2.321 -0.48 +0.00    +0.132 C 
BRANCH  42  43
ATOM     43  N7  UNL     1      25.336   8.773   2.891 -0.28 -0.00    -0.355 N 
ATOM     44  C15 UNL     1      24.469   9.843   2.932 -0.41 +0.00    +0.268 C 
ATOM     45  O3  UNL     1      24.754  10.914   2.400 +0.16 -0.00    -0.266 OA
ATOM     46  H48 UNL     1      25.181   7.999   3.524 +0.11 +0.00    +0.162 HD
BRANCH  44  47
ATOM     47  C13 UNL     1      23.242   9.615   3.678 -0.49 +0.00    +0.104 A 
ATOM     48  C14 UNL     1      22.004   9.150   3.242 -0.33 +0.00    +0.066 A 
ATOM     49  C11 UNL     1      21.124   9.075   4.349 +5.29 +0.00    +0.053 A 
ATOM     50  C12 UNL     1      21.828   9.513   5.441+10.50 +0.00    +0.120 A 
ATOM     51  N6  UNL     1      23.094   9.850   5.035 -0.30 -0.00    -0.354 N 
ATOM     52  C42 UNL     1      24.112  10.368   5.925 +8.07 +0.00    +0.156 C 
BRANCH  49  53
ATOM     53  N5  UNL     1      19.810   8.652   4.294 +0.48 -0.00    -0.320 N 
ATOM     54  C10 UNL     1      18.698   9.468   4.203 +3.12 +0.00    +0.273 C 
ATOM     55  O2  UNL     1      18.703  10.692   4.264+15.03 -0.00    -0.266 OA
ATOM     56  H47 UNL     1      19.653   7.661   4.414 +0.12 +0.00    +0.169 HD
BRANCH  54  57
ATOM     57  C8  UNL     1      17.461   8.715   4.089 -0.42 +0.00    +0.105 A 
ATOM     58  C9  UNL     1      16.233   9.046   4.646 +0.26 +0.00    +0.066 A 
ATOM     59  C6  UNL     1      15.300   8.035   4.315 -0.45 +0.00    +0.053 A 
ATOM     60  C7  UNL     1      15.965   7.125   3.529 +3.11 +0.00    +0.120 A 
ATOM     61  N4  UNL     1      17.254   7.564   3.355 -0.31 -0.00    -0.354 N 
ATOM     62  C43 UNL     1      18.200   6.939   2.455 +4.41 +0.00    +0.156 C 
BRANCH  59  63
ATOM     63  N3  UNL     1      13.983   8.011   4.717 -0.23 -0.00    -0.319 N 
ATOM     64  C5  UNL     1      13.463   7.353   5.815 -0.28 +0.00    +0.290 C 
ATOM     65  O1  UNL     1      14.105   6.691   6.626 -0.34 -0.00    -0.264 OA
ATOM     66  H46 UNL     1      13.302   8.511   4.152 +0.07 +0.00    +0.169 HD
BRANCH  64  67
ATOM     67  C4  UNL     1      12.019   7.541   5.910 -0.27 +0.00    +0.176 A 
ATOM     68  N1  UNL     1      11.154   6.884   6.755 -0.04 -0.00    -0.342 N 
ATOM     69  C1  UNL     1      11.505   5.870   7.719 -0.17 +0.00    +0.157 C 
ATOM     70  C2  UNL     1       9.892   7.356   6.518 +4.10 +0.00    +0.109 A 
ATOM     71  C3  UNL     1      10.039   8.292   5.524 +4.09 +0.00    +0.107 A 
ATOM     72  N2  UNL     1      11.353   8.405   5.153 -0.10 -0.00    -0.346 N 
ATOM     73  H2  UNL     1      11.741   9.026   4.442 +0.09 +0.00    +0.167 HD
ENDBRANCH  64  67
ENDBRANCH  59  63
ENDBRANCH  54  57
ENDBRANCH  49  53
ENDBRANCH  44  47
ENDBRANCH  42  43
ENDBRANCH  41  42
ENDBRANCH   1  41
TORSDOF 18
TER
