USER    Run = 1
USER    DPF = ligand_527_receptor.dpf
USER  
USER    Estimated Free Energy of Binding    =  +1.42e+003 kcal/mol  [=(1)+(2)+(3)-(4)]
USER    
USER    (1) Final Intermolecular Energy     =  +1.42e+003 kcal/mol
USER        vdW + Hbond + desolv Energy     =  +1.42e+003 kcal/mol
USER        Electrostatic Energy            =   +0.00 kcal/mol
USER    (2) Final Total Internal Energy     =   +0.00 kcal/mol
USER    (3) Torsional Free Energy           =   +1.19 kcal/mol
USER    (4) Unbound System's Energy  [=(2)] =   +0.00 kcal/mol
USER    
USER    
USER    NEWDPF move ligand_527.pdbqt
USER    NEWDPF about 0.000000 0.000000 0.000000
USER    NEWDPF tran0 14.220386 6.236659 4.293521
USER    NEWDPF quaternion0 0.876134 -0.244968 -0.413415 0.038312
USER    NEWDPF axisangle0 0.876778 -0.245148 -0.413718 175.608740
USER    NEWDPF quat0 0.876778 -0.245148 -0.413718 175.608740
USER  keepresnum = 1 
USER  
REMARK  0 active torsions:
REMARK  status: ('A' for Active; 'I' for Inactive)
REMARK       I    between atoms: C2_2  and  C3_3 
REMARK       I    between atoms: C3_3  and  C5_5 
REMARK       I    between atoms: C5_5  and  C6_6 
REMARK       I    between atoms: C5_5  and  N3_84 
REMARK       I    between atoms: C6_6  and  C7_7 
REMARK       I    between atoms: C6_6  and  O5_71 
REMARK       I    between atoms: C7_7  and  C8_8 
REMARK       I    between atoms: C8_8  and  N1_82 
REMARK       I    between atoms: C12_12  and  C13_13 
REMARK       I    between atoms: C13_13  and  C14_14 
REMARK       I    between atoms: C13_13  and  O4_70 
REMARK       I    between atoms: C14_14  and  C16_16 
REMARK       I    between atoms: C16_16  and  N2_83 
REMARK       I    between atoms: C17_17  and  C19_19 
REMARK       I    between atoms: C17_17  and  N2_83 
REMARK       I    between atoms: C19_19  and  C20_20 
REMARK       I    between atoms: C19_19  and  O3_69 
REMARK       I    between atoms: C29_29  and  C30_30 
REMARK       I    between atoms: C29_29  and  N3_84 
REMARK       I    between atoms: C30_30  and  C31_31 
REMARK       I    between atoms: C30_30  and  N6_87 
REMARK       I    between atoms: C31_31  and  C32_32 
REMARK       I    between atoms: C32_32  and  C33_33 
REMARK       I    between atoms: C33_33  and  N4_85 
REMARK       I    between atoms: C34_34  and  N4_85 
REMARK       I    between atoms: C34_34  and  N5_86 
REMARK       I    between atoms: C35_35  and  C36_36 
REMARK       I    between atoms: C35_35  and  N6_87 
REMARK       I    between atoms: C36_36  and  C37_37 
REMARK       I    between atoms: C36_36  and  N7_88 
REMARK       I    between atoms: C41_41  and  O10_76 
REMARK       I    between atoms: C41_41  and  N7_88 
REMARK       I    between atoms: C42_42  and  C43_43 
REMARK       I    between atoms: C42_42  and  O10_76 
REMARK       I    between atoms: C46_46  and  N8_89 
REMARK       I    between atoms: C49_49  and  C50_50 
REMARK       I    between atoms: C49_49  and  N8_89 
REMARK       I    between atoms: C50_50  and  N9_90 
REMARK       I    between atoms: C52_52  and  C53_53 
REMARK       I    between atoms: C52_52  and  N9_90 
REMARK       I    between atoms: C53_53  and  C54_54 
REMARK       I    between atoms: C53_53  and  N10_91 
REMARK       I    between atoms: C57_57  and  C58_58 
REMARK       I    between atoms: C57_57  and  N10_91 
REMARK       I    between atoms: C58_58  and  C59_59 
REMARK       I    between atoms: C59_59  and  C60_60 
REMARK       I    between atoms: C60_60  and  C61_61 
REMARK       I    between atoms: C61_61  and  C62_62 
REMARK       I    between atoms: C62_62  and  N11_92 
REMARK       I    between atoms: C63_63  and  O15_81 
USER                              x       y       z     vdW  Elec       q    Type
USER                           _______ _______ _______ _____ _____    ______ ____
ROOT
ATOM      1  C1  UNL     1       7.533  -0.088  10.124+10.46 +0.00    +0.005 C 
ATOM      2  C2  UNL     1       7.982   0.941   9.093+12.16 +0.00    +0.002 C 
ATOM      3  C3  UNL     1       8.804   2.100   9.695 +5.17 +0.00    +0.006 C 
ATOM      4  C4  UNL     1       7.962   2.906  10.697+17.72 +0.00    +0.012 C 
ATOM      5  C5  UNL     1       9.460   3.044   8.619 +0.75 +0.00    +0.119 C 
ATOM      6  C6  UNL     1      10.637   2.329   7.863 +1.70 +0.00    +0.152 C 
ATOM      7  C7  UNL     1      11.311   3.110   6.728 +0.33 +0.00    +0.137 C 
ATOM      8  C8  UNL     1      11.729   4.528   7.059 -0.36 +0.00    +0.222 C 
ATOM      9  C9  UNL     1      14.154   3.894   7.284 +0.09 +0.00    +0.126 C 
ATOM     10  C10 UNL     1      15.244   4.753   7.903+10.52 +0.00    +0.022 C 
ATOM     11  C11 UNL     1      15.067   6.089   7.193 +0.16 +0.00    +0.029 C 
ATOM     12  C12 UNL     1      13.541   6.228   7.072 -0.50 +0.00    +0.117 C 
ATOM     13  C13 UNL     1      13.044   7.088   5.862 -0.37 +0.00    +0.156 C 
ATOM     14  C14 UNL     1      12.872   8.594   6.159 -0.09 +0.00    +0.105 C 
ATOM     15  C15 UNL     1      11.802   8.875   7.214 -0.11 +0.00    +0.022 C 
ATOM     16  C16 UNL     1      14.190   9.238   6.552+11.32 +0.00    +0.224 C 
ATOM     17  C17 UNL     1      16.294  10.214   5.681+18.28 +0.00    +0.113 C 
ATOM     18  C18 UNL     1      16.591  11.265   4.613+12.77 +0.00    +0.035 C 
ATOM     19  C19 UNL     1      17.306   9.027   5.673+53.89 +0.00    +0.173 C 
ATOM     20  C20 UNL     1      18.748   9.353   6.029+99.99 -0.00    -0.028 A 
ATOM     21  C21 UNL     1      19.804   8.611   5.469+21.44 +0.00    +0.010 A 
ATOM     22  C22 UNL     1      21.134   8.874   5.802+37.31 +0.00    +0.001 A 
ATOM     23  C23 UNL     1      21.438   9.868   6.725+28.06 +0.00    +0.000 A 
ATOM     24  C24 UNL     1      20.409  10.589   7.324+95.10 +0.00    +0.001 A 
ATOM     25  C25 UNL     1      19.076  10.327   6.986+99.99 +0.00    +0.010 A 
ATOM     26  C26 UNL     1      13.614   5.815   3.919 +8.81 +0.00    +0.202 C 
ATOM     27  C27 UNL     1      12.193   0.685   8.633+72.64 +0.00    +0.202 C 
ATOM     28  C28 UNL     1       8.045   5.071   8.196 -0.31 +0.00    +0.153 C 
ATOM     29  C29 UNL     1       7.969   3.160   6.592 +2.41 +0.00    +0.242 C 
ATOM     30  C30 UNL     1       6.920   3.951   5.769 -0.18 +0.00    +0.176 C 
ATOM     31  C31 UNL     1       5.482   3.732   6.282 -0.37 +0.00    +0.036 C 
ATOM     32  C32 UNL     1       4.647   2.666   5.561 -0.22 +0.00    +0.022 C 
ATOM     33  C33 UNL     1       5.117   1.232   5.799+41.70 +0.00    +0.124 C 
ATOM     34  C34 UNL     1       5.177   0.291   3.557 -0.06 +0.00    +0.291 C 
ATOM     35  C35 UNL     1       6.862   4.609   3.384 -0.11 +0.00    +0.241 C 
ATOM     36  C36 UNL     1       7.145   4.134   1.935 -0.09 +0.00    +0.184 C 
ATOM     37  C37 UNL     1       8.636   3.826   1.592 -0.18 +0.00    +0.010 C 
ATOM     38  C38 UNL     1       9.666   4.331   2.610 +0.54 +0.00    +0.012 C 
ATOM     39  C39 UNL     1       8.844   2.319   1.391 -0.25 +0.00    +0.012 C 
ATOM     40  C40 UNL     1       5.129   4.646   0.553 -0.16 +0.00    +0.156 C 
ATOM     41  C41 UNL     1       6.872   6.329   0.707 -0.15 +0.00    +0.363 C 
ATOM     42  C42 UNL     1       8.518   7.976   1.089 +0.66 +0.00    +0.219 C 
ATOM     43  C43 UNL     1      10.025   7.970   1.008 +3.29 -0.00    -0.034 A 
ATOM     44  C44 UNL     1      10.659   7.409  -0.107 +0.04 +0.00    +0.011 A 
ATOM     45  C45 UNL     1      12.052   7.399  -0.199 +1.98 +0.00    +0.030 A 
ATOM     46  C46 UNL     1      12.842   7.946   0.820+99.99 +0.00    +0.034 A 
ATOM     47  C47 UNL     1      12.211   8.507   1.930+73.64 +0.00    +0.030 A 
ATOM     48  C48 UNL     1      10.814   8.515   2.026+36.20 +0.00    +0.011 A 
ATOM     49  C49 UNL     1      15.238   8.312   1.509 +1.98 +0.00    +0.244 C 
ATOM     50  C50 UNL     1      16.646   7.994   0.950 -0.07 +0.00    +0.172 C 
ATOM     51  C51 UNL     1      16.942   6.504   1.108+35.77 +0.00    +0.042 C 
ATOM     52  C52 UNL     1      18.864   9.065   0.956 +4.63 +0.00    +0.241 C 
ATOM     53  C53 UNL     1      19.907   9.822   1.804 -0.23 +0.00    +0.180 C 
ATOM     54  C54 UNL     1      19.539  11.317   1.931 -0.62 +0.00    +0.009 C 
ATOM     55  C55 UNL     1      20.427  12.011   2.968+10.16 +0.00    +0.012 C 
ATOM     56  C56 UNL     1      19.601  12.078   0.603 -0.75 +0.00    +0.012 C 
ATOM     57  C57 UNL     1      22.002   8.544   1.576 +0.87 +0.00    +0.218 C 
ATOM     58  C58 UNL     1      23.222   8.371   0.690 -0.45 +0.00    +0.103 C 
ATOM     59  C59 UNL     1      24.250   7.388   1.246 -0.49 +0.00    +0.009 C 
ATOM     60  C60 UNL     1      24.930   7.817   2.553 -0.47 +0.00    +0.002 C 
ATOM     61  C61 UNL     1      25.623   9.185   2.539 -0.65 +0.00    +0.020 C 
ATOM     62  C62 UNL     1      26.713   9.341   1.479 +0.15 +0.00    +0.129 C 
ATOM     63  C63 UNL     1      28.837   8.582   2.622 +2.70 +0.00    +0.266 A 
ATOM     64  C64 UNL     1      29.911   7.671   2.131 -0.36 +0.00    +0.060 A 
ATOM     65  C65 UNL     1      29.611   7.100   0.963 -0.25 +0.00    +0.096 A 
ATOM     66  C66 UNL     1      28.281   7.624   0.581 -0.19 +0.00    +0.264 A 
ATOM     67  O1  UNL     1      10.893   5.411   7.259 -0.22 -0.00    -0.273 OA
ATOM     68  O2  UNL     1      14.571   9.317   7.716+62.69 -0.00    -0.273 OA
ATOM     69  O3  UNL     1      17.252   8.399   4.375 -0.29 -0.00    -0.389 OA
ATOM     70  O4  UNL     1      13.901   6.964   4.706 -0.25 -0.00    -0.388 OA
ATOM     71  O5  UNL     1      11.648   1.984   8.838+21.00 -0.00    -0.388 OA
ATOM     72  O6  UNL     1       8.352   2.054   6.198+24.88 -0.00    -0.271 OA
ATOM     73  O7  UNL     1       6.050   1.046   3.155 -0.32 -0.00    -0.254 OA
ATOM     74  O8  UNL     1       6.479   5.744   3.666 -0.13 -0.00    -0.271 OA
ATOM     75  O9  UNL     1       6.212   7.131   0.053 -0.33 -0.00    -0.238 OA
ATOM     76  O10 UNL     1       8.077   6.625   1.250 -0.15 -0.00    -0.299 OA
ATOM     77  O11 UNL     1      15.074   8.836   2.611 -0.21 -0.00    -0.271 OA
ATOM     78  O12 UNL     1      19.060   8.779  -0.226 +5.36 -0.00    -0.271 OA
ATOM     79  O13 UNL     1      21.734   7.806   2.516 +3.33 -0.00    -0.274 OA
ATOM     80  O14 UNL     1      27.712   7.412  -0.475 -0.23 -0.00    -0.267 OA
ATOM     81  O15 UNL     1      28.318   8.151   3.854+51.39 -0.00    -0.372 OA
ATOM     82  N1  UNL     1      13.075   4.828   7.003 -0.27 -0.00    -0.345 N 
ATOM     83  N2  UNL     1      14.931   9.707   5.488 +7.93 -0.00    -0.354 N 
ATOM     84  N3  UNL     1       8.437   3.723   7.780 -0.31 -0.00    -0.347 N 
ATOM     85  N4  UNL     1       4.597   0.324   4.795 +0.44 -0.00    -0.348 N 
ATOM     86  N5  UNL     1       4.662  -0.695   2.782 +4.13 -0.00    -0.254 NA
ATOM     87  N6  UNL     1       7.082   3.655   4.353 -0.10 -0.00    -0.346 N 
ATOM     88  N7  UNL     1       6.473   5.022   0.953 -0.05 -0.00    -0.319 N 
ATOM     89  N8  UNL     1      14.238   7.880   0.646 +9.28 -0.00    -0.325 N 
ATOM     90  N9  UNL     1      17.676   8.791   1.597 -0.16 -0.00    -0.346 N 
ATOM     91  N10 UNL     1      21.221   9.618   1.196 -0.13 -0.00    -0.347 N 
ATOM     92  N11 UNL     1      27.824   8.413   1.626 -0.21 -0.00    -0.316 N 
ATOM     93 BR1  UNL     1      30.574   5.944  -0.083 -0.28 -0.00    -0.044 Br
ATOM     94 BR2  UNL     1      31.461   7.487   3.118+72.17 -0.00    -0.049 Br
ATOM     95  H92 UNL     1      16.307   8.167   4.251 +0.14 +0.00    +0.210 HD
ATOM     96  H93 UNL     1      27.712   7.423   3.641 -0.40 +0.00    +0.212 HD
ATOM     97  H94 UNL     1      14.662   9.412   4.547 +0.11 +0.00    +0.163 HD
ATOM     98  H95 UNL     1       4.303  -0.586   5.122 +0.29 +0.00    +0.163 HD
ATOM     99  H96 UNL     1       4.985  -0.658   1.823 +2.94 +0.00    +0.128 HD
ATOM    100  H97 UNL     1       3.669  -0.857   2.878 +0.04 +0.00    +0.128 HD
ATOM    101  H98 UNL     1       7.207   2.679   4.081 -0.14 +0.00    +0.163 HD
ATOM    102  H99 UNL     1      14.543   7.468  -0.228 -0.22 +0.00    +0.169 HD
ATOM    103  HA0 UNL     1      17.648   8.838   2.619 +0.12 +0.00    +0.163 HD
ATOM    104  HA1 UNL     1      21.276   9.864   0.215 +0.12 +0.00    +0.163 HD
ENDROOT
TORSDOF 40
TER
