USER    Run = 1
USER    DPF = ligand_358_receptor.dpf
USER  
USER    Estimated Free Energy of Binding    =   +6.06 kcal/mol  [=(1)+(2)+(3)-(4)]
USER    
USER    (1) Final Intermolecular Energy     =   +4.87 kcal/mol
USER        vdW + Hbond + desolv Energy     =   +4.87 kcal/mol
USER        Electrostatic Energy            =   +0.00 kcal/mol
USER    (2) Final Total Internal Energy     =   -9.14 kcal/mol
USER    (3) Torsional Free Energy           =   +1.19 kcal/mol
USER    (4) Unbound System's Energy  [=(2)] =   -9.14 kcal/mol
USER    
USER    
USER    NEWDPF move ligand_358.pdbqt
USER    NEWDPF about 0.000000 0.000000 0.000000
USER    NEWDPF tran0 12.645758 4.117141 2.920985
USER    NEWDPF quaternion0 -0.720759 -0.451893 -0.346976 0.394851
USER    NEWDPF axisangle0 -0.784504 -0.491858 -0.377662 133.486674
USER    NEWDPF quat0 -0.784504 -0.491858 -0.377662 133.486674
USER    NEWDPF dihe0 -95.80 -56.86 -180.00 141.96 -179.61 27.35 161.35 50.38 -3.86 -17.85 180.00 -91.80 -33.85 -6.52 -163.93 172.08 -95.50 38.23 180.00 -82.02 136.85 -13.44 -82.98 -139.89 58.59 
USER  keepresnum = 1 
USER  
REMARK  25 active torsions:
REMARK  status: ('A' for Active; 'I' for Inactive)
REMARK    1  A    between atoms: C2_2  and  O16_60 
REMARK    2  A    between atoms: C3_3  and  C33_33 
REMARK    3  A    between atoms: C6_6  and  O13_57 
REMARK    4  A    between atoms: C8_8  and  O12_56 
REMARK    5  A    between atoms: C9_9  and  C10_10 
REMARK    6  A    between atoms: C10_10  and  C11_11 
REMARK    7  A    between atoms: C12_12  and  O11_55 
REMARK    8  A    between atoms: C14_14  and  O10_54 
REMARK    9  A    between atoms: C17_17  and  C27_27 
REMARK   10  A    between atoms: C18_18  and  O3_47 
REMARK   11  A    between atoms: C20_20  and  C21_21 
REMARK   12  A    between atoms: C20_20  and  O3_47 
REMARK   13  A    between atoms: C23_23  and  O7_51 
REMARK   14  A    between atoms: C24_24  and  O6_50 
REMARK   15  A    between atoms: C25_25  and  O5_49 
REMARK   16  A    between atoms: C29_29  and  O9_53 
REMARK   17  A    between atoms: C30_30  and  O8_52 
REMARK   18  A    between atoms: C35_35  and  O15_59 
REMARK   19  A    between atoms: C36_36  and  O14_58 
REMARK   20  A    between atoms: C39_39  and  O16_60 
REMARK   21  A    between atoms: C40_40  and  O21_65 
REMARK   22  A    between atoms: C41_41  and  O20_64 
REMARK   23  A    between atoms: C42_42  and  O19_63 
REMARK   24  A    between atoms: C43_43  and  C44_44 
REMARK   25  A    between atoms: C44_44  and  O18_62 
USER                              x       y       z     vdW  Elec       q    Type
USER                           _______ _______ _______ _____ _____    ______ ____
ROOT
ATOM      1  C1  UNL     1      12.264   8.223   3.103 +0.12 +0.00    +0.079 C 
ATOM      2  C2  UNL     1      13.281   7.090   3.051 -0.25 +0.00    +0.163 C 
ATOM      3  C3  UNL     1      12.682   5.904   2.270 +2.53 +0.00    +0.191 C 
ATOM      4  C4  UNL     1      10.556   6.359   3.273 -0.25 +0.00    +0.088 A 
ATOM      5  C5  UNL     1      10.870   7.731   3.373 -0.38 +0.00    +0.012 A 
ATOM      6  C6  UNL     1       9.846   8.622   3.703 -0.30 +0.00    +0.077 A 
ATOM      7  C7  UNL     1       8.558   8.167   3.949 +3.32 +0.00    +0.074 A 
ATOM      8  C8  UNL     1       8.266   6.808   3.853 -0.07 +0.00    +0.077 A 
ATOM      9  C9  UNL     1       9.250   5.866   3.516 -0.23 +0.00    +0.013 A 
ATOM     10  O1  UNL     1      11.505   5.424   2.942 +0.18 -0.00    -0.337 OA
ENDROOT
BRANCH   9  11
ATOM     11  C10 UNL     1       8.925   4.392   3.313 -0.23 +0.00    +0.088 C 
BRANCH  11  12
ATOM     12  C11 UNL     1       7.687   3.857   4.018 -0.26 +0.00    +0.013 A 
ATOM     13  C12 UNL     1       7.492   4.073   5.389 -0.28 +0.00    +0.077 A 
ATOM     14  C13 UNL     1       6.368   3.593   6.053 +0.46 +0.00    +0.074 A 
ATOM     15  C14 UNL     1       5.387   2.914   5.342 +0.44 +0.00    +0.077 A 
ATOM     16  C15 UNL     1       5.501   2.719   3.961 -0.23 +0.00    +0.012 A 
ATOM     17  C16 UNL     1       6.672   3.171   3.314 -0.19 +0.00    +0.088 A 
ATOM     18  C19 UNL     1       4.400   2.044   3.181 -0.21 +0.00    +0.080 C 
ATOM     19  O2  UNL     1       6.852   3.031   1.960 -0.06 -0.00    -0.337 OA
ATOM     20  C17 UNL     1       6.040   2.031   1.330 -0.14 +0.00    +0.192 C 
ATOM     21  C18 UNL     1       4.558   2.215   1.672 -0.11 +0.00    +0.170 C 
BRANCH  13  22
ATOM     22  O11 UNL     1       8.421   4.790   6.095 -0.15 -0.00    -0.360 OA
ATOM     23  H34 UNL     1       8.289   5.737   5.905 +0.13 +0.00    +0.217 HD
ENDBRANCH  13  22
BRANCH  15  24
ATOM     24  O10 UNL     1       4.321   2.479   6.078 -0.63 -0.00    -0.360 OA
ATOM     25  H33 UNL     1       3.489   2.761   5.669 +0.08 +0.00    +0.217 HD
ENDBRANCH  15  24
BRANCH  20  26
ATOM     26  C27 UNL     1       6.276   2.060  -0.173 -0.10 -0.00    -0.024 A 
ATOM     27  C28 UNL     1       5.205   2.124  -1.085 -0.08 +0.00    +0.049 A 
ATOM     28  C29 UNL     1       5.464   2.221  -2.447 -0.06 +0.00    +0.099 A 
ATOM     29  C30 UNL     1       6.776   2.228  -2.912 -0.10 +0.00    +0.098 A 
ATOM     30  C31 UNL     1       7.844   2.105  -2.039 -0.10 +0.00    +0.040 A 
ATOM     31  C32 UNL     1       7.595   2.026  -0.668 -0.10 +0.00    +0.013 A 
BRANCH  28  32
ATOM     32  O9  UNL     1       4.467   2.357  -3.370 -0.02 -0.00    -0.358 OA
ATOM     33  H32 UNL     1       4.857   2.304  -4.263 +0.04 +0.00    +0.217 HD
ENDBRANCH  28  32
BRANCH  29  34
ATOM     34  O8  UNL     1       7.023   2.415  -4.244 -0.11 -0.00    -0.358 OA
ATOM     35  H31 UNL     1       7.745   3.080  -4.260 +0.05 +0.00    +0.217 HD
ENDBRANCH  29  34
ENDBRANCH  20  26
BRANCH  21  36
ATOM     36  O3  UNL     1       4.125   3.537   1.273 -0.12 -0.00    -0.309 OA
BRANCH  36  37
ATOM     37  C20 UNL     1       4.704   4.576   1.914 -0.08 +0.00    +0.294 C 
ATOM     38  O4  UNL     1       4.415   4.976   3.031 -0.11 -0.00    -0.259 OA
BRANCH  37  39
ATOM     39  C21 UNL     1       5.757   5.194   1.065 -0.18 +0.00    +0.045 A 
ATOM     40  C22 UNL     1       6.043   4.587  -0.173 -0.14 +0.00    +0.057 A 
ATOM     41  C23 UNL     1       7.028   5.129  -0.990 +1.01 +0.00    +0.102 A 
ATOM     42  C24 UNL     1       7.724   6.263  -0.587 +0.07 +0.00    +0.132 A 
ATOM     43  C25 UNL     1       7.440   6.862   0.633 -0.29 +0.00    +0.102 A 
ATOM     44  C26 UNL     1       6.459   6.341   1.466 -0.25 +0.00    +0.057 A 
BRANCH  41  45
ATOM     45  O7  UNL     1       7.350   4.583  -2.201 +0.35 -0.00    -0.358 OA
ATOM     46  H30 UNL     1       8.061   5.114  -2.601 -0.26 +0.00    +0.217 HD
ENDBRANCH  41  45
BRANCH  42  47
ATOM     47  O6  UNL     1       8.697   6.804  -1.383 -0.16 -0.00    -0.356 OA
ATOM     48  H29 UNL     1       8.435   6.550  -2.292 -0.38 +0.00    +0.218 HD
ENDBRANCH  42  47
BRANCH  43  49
ATOM     49  O5  UNL     1       8.128   7.973   1.027 -0.14 -0.00    -0.358 OA
ATOM     50  H28 UNL     1       7.579   8.372   1.731 +0.13 +0.00    +0.217 HD
ENDBRANCH  43  49
ENDBRANCH  37  39
ENDBRANCH  36  37
ENDBRANCH  21  36
ENDBRANCH  11  12
ENDBRANCH   9  11
BRANCH   8  51
ATOM     51  O12 UNL     1       6.955   6.494   4.070 +0.08 -0.00    -0.360 OA
ATOM     52  H35 UNL     1       6.886   5.938   4.870 +0.10 +0.00    +0.217 HD
ENDBRANCH   8  51
BRANCH   6  53
ATOM     53  O13 UNL     1      10.030   9.973   3.797 +4.12 -0.00    -0.360 OA
ATOM     54  H36 UNL     1      10.904  10.212   3.455 -0.03 +0.00    +0.217 HD
ENDBRANCH   6  53
BRANCH   3  55
ATOM     55  C33 UNL     1      12.443   5.977   0.764 -0.21 -0.00    -0.024 A 
ATOM     56  C34 UNL     1      11.215   5.497   0.265 -0.10 +0.00    +0.049 A 
ATOM     57  C35 UNL     1      10.976   5.454  -1.100 -0.22 +0.00    +0.099 A 
ATOM     58  C36 UNL     1      11.935   5.893  -2.003 -0.04 +0.00    +0.098 A 
ATOM     59  C37 UNL     1      13.154   6.371  -1.544 +0.43 +0.00    +0.040 A 
ATOM     60  C38 UNL     1      13.407   6.405  -0.165 +0.12 +0.00    +0.013 A 
BRANCH  57  61
ATOM     61  O15 UNL     1       9.787   4.955  -1.551 -0.07 -0.00    -0.358 OA
ATOM     62  H38 UNL     1       9.704   5.312  -2.458 +0.10 +0.00    +0.217 HD
ENDBRANCH  57  61
BRANCH  58  63
ATOM     63  O14 UNL     1      11.638   5.823  -3.335 -0.17 -0.00    -0.358 OA
ATOM     64  H37 UNL     1      10.744   5.448  -3.423 +0.11 +0.00    +0.217 HD
ENDBRANCH  58  63
ENDBRANCH   3  55
BRANCH   2  65
ATOM     65  O16 UNL     1      14.512   7.587   2.507 +0.74 -0.00    -0.350 OA
BRANCH  65  66
ATOM     66  C39 UNL     1      15.283   8.354   3.440 -0.33 +0.00    +0.292 C 
ATOM     67  C40 UNL     1      16.734   7.824   3.477 -0.46 +0.00    +0.204 C 
ATOM     68  C41 UNL     1      17.439   8.042   2.127 -0.31 +0.00    +0.183 C 
ATOM     69  C42 UNL     1      16.850   9.228   1.337 -0.42 +0.00    +0.180 C 
ATOM     70  C43 UNL     1      16.251  10.265   2.302 -0.39 +0.00    +0.179 C 
ATOM     71  O17 UNL     1      15.158   9.728   3.066 -0.17 -0.00    -0.348 OA
BRANCH  67  72
ATOM     72  O21 UNL     1      17.481   8.497   4.505 -0.23 -0.00    -0.388 OA
ATOM     73  H42 UNL     1      16.962   9.280   4.786 +0.15 +0.00    +0.210 HD
ENDBRANCH  67  72
BRANCH  68  74
ATOM     74  O20 UNL     1      17.377   6.847   1.327 +1.08 -0.00    -0.390 OA
ATOM     75  H41 UNL     1      16.548   6.920   0.809 -0.25 +0.00    +0.210 HD
ENDBRANCH  68  74
BRANCH  69  76
ATOM     76  O19 UNL     1      15.852   8.726   0.420 -0.29 -0.00    -0.390 OA
ATOM     77  H40 UNL     1      15.153   8.315   0.973 -0.37 +0.00    +0.210 HD
ENDBRANCH  69  76
BRANCH  70  78
ATOM     78  C44 UNL     1      15.737  11.504   1.561 -0.27 +0.00    +0.198 C 
BRANCH  78  79
ATOM     79  O18 UNL     1      14.315  11.534   1.552 +0.22 -0.00    -0.398 OA
ATOM     80  H39 UNL     1      14.014  10.868   2.195 -0.23 +0.00    +0.209 HD
ENDBRANCH  78  79
ENDBRANCH  70  78
ENDBRANCH  65  66
ENDBRANCH   2  65
TORSDOF 25
TER
