USER    Run = 1
USER    DPF = ligand_70_receptor.dpf
USER  
USER    Estimated Free Energy of Binding    =  +5.31e+003 kcal/mol  [=(1)+(2)+(3)-(4)]
USER    
USER    (1) Final Intermolecular Energy     =  +5.31e+003 kcal/mol
USER        vdW + Hbond + desolv Energy     =  +5.31e+003 kcal/mol
USER        Electrostatic Energy            =   +0.00 kcal/mol
USER    (2) Final Total Internal Energy     =   +0.00 kcal/mol
USER    (3) Torsional Free Energy           =   +1.19 kcal/mol
USER    (4) Unbound System's Energy  [=(2)] =   +0.00 kcal/mol
USER    
USER    
USER    NEWDPF move ligand_70.pdbqt
USER    NEWDPF about 0.000000 0.000000 0.000000
USER    NEWDPF tran0 15.136835 6.980188 2.132784
USER    NEWDPF quaternion0 0.035030 -0.588116 -0.806913 -0.042234
USER    NEWDPF axisangle0 0.035062 -0.588641 -0.807634 -175.158873
USER    NEWDPF quat0 0.035062 -0.588641 -0.807634 -175.158873
USER  keepresnum = 1 
USER  
REMARK  0 active torsions:
REMARK  status: ('A' for Active; 'I' for Inactive)
REMARK       I    between atoms: C2_2  and  C4_4 
REMARK       I    between atoms: C4_4  and  C5_5 
REMARK       I    between atoms: C5_5  and  C6_6 
REMARK       I    between atoms: C5_5  and  N9_81 
REMARK       I    between atoms: C6_6  and  N1_72 
REMARK       I    between atoms: C7_7  and  C8_8 
REMARK       I    between atoms: C7_7  and  C12_12 
REMARK       I    between atoms: C7_7  and  N1_72 
REMARK       I    between atoms: C8_8  and  C9_9 
REMARK       I    between atoms: C9_9  and  C10_10 
REMARK       I    between atoms: C10_10  and  N2_73 
REMARK       I    between atoms: C11_11  and  N3_75 
REMARK       I    between atoms: C11_11  and  N4_76 
REMARK       I    between atoms: C12_12  and  C13_13 
REMARK       I    between atoms: C13_13  and  C14_14 
REMARK       I    between atoms: C14_14  and  C15_15 
REMARK       I    between atoms: C15_15  and  N5_77 
REMARK       I    between atoms: C16_16  and  N5_77 
REMARK       I    between atoms: C18_18  and  C19_19 
REMARK       I    between atoms: C18_18  and  N5_77 
REMARK       I    between atoms: C19_19  and  C20_20 
REMARK       I    between atoms: C19_19  and  N6_78 
REMARK       I    between atoms: C20_20  and  C21_21 
REMARK       I    between atoms: C24_24  and  O5_62 
REMARK       I    between atoms: C27_27  and  C28_28 
REMARK       I    between atoms: C27_27  and  N6_78 
REMARK       I    between atoms: C28_28  and  C29_29 
REMARK       I    between atoms: C28_28  and  N7_79 
REMARK       I    between atoms: C29_29  and  C30_30 
REMARK       I    between atoms: C36_36  and  C37_37 
REMARK       I    between atoms: C36_36  and  N7_79 
REMARK       I    between atoms: C37_37  and  N8_80 
REMARK       I    between atoms: C39_39  and  N8_80 
REMARK       I    between atoms: C41_41  and  C42_42 
REMARK       I    between atoms: C41_41  and  N9_81 
REMARK       I    between atoms: C42_42  and  C43_43 
REMARK       I    between atoms: C42_42  and  N10_82 
REMARK       I    between atoms: C43_43  and  O10_67 
REMARK       I    between atoms: C45_45  and  C46_46 
REMARK       I    between atoms: C45_45  and  N10_82 
REMARK       I    between atoms: C46_46  and  C47_47 
REMARK       I    between atoms: C46_46  and  N11_83 
REMARK       I    between atoms: C47_47  and  C48_48 
REMARK       I    between atoms: C51_51  and  O12_69 
REMARK       I    between atoms: C54_54  and  C55_55 
REMARK       I    between atoms: C54_54  and  N11_83 
REMARK       I    between atoms: C55_55  and  C56_56 
REMARK       I    between atoms: C55_55  and  N12_84 
REMARK       I    between atoms: C56_56  and  O14_71 
USER                              x       y       z     vdW  Elec       q    Type
USER                           _______ _______ _______ _____ _____    ______ ____
ROOT
ATOM      1  C1  UNL     1      16.969   6.998   6.977+46.54 +0.00    +0.009 C 
ATOM      2  C2  UNL     1      17.393   7.869   5.789+57.70 -0.00    -0.020 C 
ATOM      3  C3  UNL     1      16.649   9.201   5.846+99.99 +0.00    +0.009 C 
ATOM      4  C4  UNL     1      17.160   7.087   4.477 +4.54 +0.00    +0.038 C 
ATOM      5  C5  UNL     1      17.604   7.757   3.166 -0.49 +0.00    +0.177 C 
ATOM      6  C6  UNL     1      16.602   8.800   2.624 -0.40 +0.00    +0.241 C 
ATOM      7  C7  UNL     1      14.376   9.149   1.572+99.99 +0.00    +0.154 C 
ATOM      8  C8  UNL     1      14.576   9.292   0.054+99.99 +0.00    +0.034 C 
ATOM      9  C9  UNL     1      15.649  10.298  -0.382+24.91 +0.00    +0.022 C 
ATOM     10  C10 UNL     1      15.424  11.731   0.107 +1.57 +0.00    +0.121 C 
ATOM     11  C11 UNL     1      13.810  12.755  -1.294 +3.02 +0.00    +0.121 C 
ATOM     12  C12 UNL     1      13.000   8.515   1.845+99.99 +0.00    +0.149 C 
ATOM     13  C13 UNL     1      12.353   8.795   3.188 +1.08 +0.00    +0.082 C 
ATOM     14  C14 UNL     1      12.804   7.813   4.263 -0.47 +0.00    +0.028 C 
ATOM     15  C15 UNL     1      12.106   6.444   4.258 -0.31 +0.00    +0.135 C 
ATOM     16  C16 UNL     1      13.346   5.296   2.469+99.99 +0.00    +0.222 C 
ATOM     17  C17 UNL     1      13.323   4.417   1.240+99.99 +0.00    +0.117 C 
ATOM     18  C18 UNL     1      10.952   5.004   2.663 +5.97 +0.00    +0.249 C 
ATOM     19  C19 UNL     1       9.742   5.903   2.334 -0.18 +0.00    +0.181 C 
ATOM     20  C20 UNL     1       9.582   5.920   0.804 -0.23 +0.00    +0.073 C 
ATOM     21  C21 UNL     1       8.546   6.905   0.322 -0.28 -0.00    -0.056 A 
ATOM     22  C22 UNL     1       7.240   6.481   0.039 -0.25 +0.00    +0.010 A 
ATOM     23  C23 UNL     1       6.281   7.390  -0.409 +0.31 +0.00    +0.037 A 
ATOM     24  C24 UNL     1       6.627   8.729  -0.563 +1.51 +0.00    +0.065 A 
ATOM     25  C25 UNL     1       7.915   9.169  -0.283+14.58 +0.00    +0.037 A 
ATOM     26  C26 UNL     1       8.875   8.258   0.158 +3.05 +0.00    +0.010 A 
ATOM     27  C27 UNL     1       8.154   5.752   4.238 -0.14 +0.00    +0.241 C 
ATOM     28  C28 UNL     1       7.032   4.919   4.896 -0.22 +0.00    +0.180 C 
ATOM     29  C29 UNL     1       5.884   5.816   5.385 -0.12 +0.00    +0.073 C 
ATOM     30  C30 UNL     1       5.042   6.428   4.288 +1.07 -0.00    -0.056 A 
ATOM     31  C31 UNL     1       5.423   7.632   3.682+99.99 +0.00    +0.007 A 
ATOM     32  C32 UNL     1       4.636   8.201   2.681 +3.55 +0.00    +0.001 A 
ATOM     33  C33 UNL     1       3.464   7.570   2.269+17.92 +0.00    +0.000 A 
ATOM     34  C34 UNL     1       3.078   6.368   2.858 +0.28 +0.00    +0.001 A 
ATOM     35  C35 UNL     1       3.862   5.799   3.864 -0.18 +0.00    +0.007 A 
ATOM     36  C36 UNL     1       6.833   2.501   4.332 +1.60 +0.00    +0.236 C 
ATOM     37  C37 UNL     1       6.418   1.524   3.229 -0.22 +0.00    +0.227 C 
ATOM     38  C38 UNL     1       8.372   0.001   3.053+99.99 +0.00    +0.153 C 
ATOM     39  C39 UNL     1       8.099   1.960   1.534 -0.19 +0.00    +0.215 C 
ATOM     40  C40 UNL     1       9.323   1.529   0.769 -0.26 +0.00    +0.117 C 
ATOM     41  C41 UNL     1      20.080   7.677   3.203+13.85 +0.00    +0.243 C 
ATOM     42  C42 UNL     1      21.354   8.543   3.240 +0.43 +0.00    +0.200 C 
ATOM     43  C43 UNL     1      21.732   8.727   4.719+64.47 +0.00    +0.202 C 
ATOM     44  C44 UNL     1      22.909  10.799   4.600 -0.05 +0.00    +0.201 C 
ATOM     45  C45 UNL     1      22.390   7.899   1.103 +2.36 +0.00    +0.241 C 
ATOM     46  C46 UNL     1      23.551   7.152   0.415 -0.39 +0.00    +0.180 C 
ATOM     47  C47 UNL     1      23.046   5.748   0.041 -0.20 +0.00    +0.073 C 
ATOM     48  C48 UNL     1      24.076   4.881  -0.649 -0.14 -0.00    -0.056 A 
ATOM     49  C49 UNL     1      24.450   3.649  -0.091 -0.04 +0.00    +0.010 A 
ATOM     50  C50 UNL     1      25.398   2.840  -0.722+99.99 +0.00    +0.037 A 
ATOM     51  C51 UNL     1      25.970   3.262  -1.916 -0.19 +0.00    +0.065 A 
ATOM     52  C52 UNL     1      25.608   4.473  -2.489 +0.07 +0.00    +0.037 A 
ATOM     53  C53 UNL     1      24.658   5.281  -1.860 -0.33 +0.00    +0.010 A 
ATOM     54  C54 UNL     1      25.653   8.104   1.333 -0.31 +0.00    +0.254 C 
ATOM     55  C55 UNL     1      26.696   7.924   2.459 -0.31 +0.00    +0.334 C 
ATOM     56  C56 UNL     1      26.058   8.511   3.730 -0.05 +0.00    +0.209 C 
ATOM     57  C57 UNL     1      28.647   7.986   1.007 -0.21 +0.00    +0.307 C 
ATOM     58  O1  UNL     1      16.881  10.000   2.592 -0.28 -0.00    -0.271 OA
ATOM     59  O2  UNL     1      12.462   7.730   1.058 +4.16 -0.00    -0.296 OA
ATOM     60  O3  UNL     1      14.432   5.676   2.921+48.62 -0.00    -0.273 OA
ATOM     61  O4  UNL     1      10.876   3.773   2.606+99.99 -0.00    -0.271 OA
ATOM     62  O5  UNL     1       5.717   9.650  -0.989+99.99 -0.00    -0.361 OA
ATOM     63  O6  UNL     1       8.657   6.724   4.801 +0.33 -0.00    -0.271 OA
ATOM     64  O7  UNL     1       7.423   2.136   5.346+99.99 -0.00    -0.272 OA
ATOM     65  O8  UNL     1       7.580   3.063   1.333 -0.08 -0.00    -0.274 OA
ATOM     66  O9  UNL     1      20.103   6.448   3.199+88.93 -0.00    -0.271 OA
ATOM     67  O10 UNL     1      22.986   9.409   4.906 -0.22 -0.00    -0.393 OA
ATOM     68  O11 UNL     1      21.429   8.343   0.475+10.95 -0.00    -0.271 OA
ATOM     69  O12 UNL     1      26.900   2.504  -2.565 -0.21 -0.00    -0.361 OA
ATOM     70  O13 UNL     1      25.601   9.072   0.580 +0.09 -0.00    -0.271 OA
ATOM     71  O14 UNL     1      24.957   7.698   4.155 +0.05 -0.00    -0.398 OA
ATOM     72  N1  UNL     1      15.405   8.301   2.173 -0.01 -0.00    -0.348 N 
ATOM     73  N2  UNL     1      14.061  12.168  -0.188 +0.52 -0.00    -0.372 N 
ATOM     74  H2  UNL     1      13.314  12.004   0.487 +0.18 +0.00    +0.161 HD
ATOM     75  N3  UNL     1      14.621  13.050  -2.334+27.54 -0.00    -0.279 NA
ATOM     76  N4  UNL     1      12.558  13.188  -1.554+16.84 -0.00    -0.279 NA
ATOM     77  N5  UNL     1      12.123   5.665   3.021 +1.01 -0.00    -0.287 N 
ATOM     78  N6  UNL     1       8.571   5.329   2.997 -0.04 -0.00    -0.346 N 
ATOM     79  N7  UNL     1       6.552   3.822   4.052 -0.07 -0.00    -0.346 N 
ATOM     80  N8  UNL     1       7.581   1.074   2.468 +0.60 -0.00    -0.348 N 
ATOM     81  N9  UNL     1      18.909   8.400   3.274 -0.20 -0.00    -0.346 N 
ATOM     82  N10 UNL     1      22.417   7.893   2.485 +0.37 -0.00    -0.344 N 
ATOM     83  N11 UNL     1      24.723   7.081   1.291 -0.15 -0.00    -0.346 N 
ATOM     84  N12 UNL     1      27.981   8.592   2.156 -0.21 +0.00    +0.095 N 
ATOM     85  H69 UNL     1       4.888   9.187  -1.191 +6.62 +0.00    +0.217 HD
ATOM     86  H70 UNL     1      27.031   1.682  -2.065 -0.25 +0.00    +0.217 HD
ATOM     87  H71 UNL     1      24.460   8.249   4.802 +0.15 +0.00    +0.209 HD
ATOM     88  H72 UNL     1      15.246   7.291   2.212 +0.43 +0.00    +0.163 HD
ATOM     89  H73 UNL     1      15.498  12.546  -2.333+99.99 +0.00    +0.126 HD
ATOM     90  H74 UNL     1      14.150  12.943  -3.225 +4.33 +0.00    +0.126 HD
ATOM     91  H75 UNL     1      12.548  14.136  -1.910 +1.21 +0.00    +0.126 HD
ATOM     92  H76 UNL     1      11.991  13.121  -0.714+66.73 +0.00    +0.126 HD
ATOM     93  H77 UNL     1       8.274   4.408   2.677 +0.08 +0.00    +0.163 HD
ATOM     94  H78 UNL     1       6.248   4.064   3.112 +0.07 +0.00    +0.163 HD
ATOM     95  H79 UNL     1      18.923   9.384   3.017 +0.11 +0.00    +0.163 HD
ATOM     96  H80 UNL     1      23.321   7.780   2.936 +0.13 +0.00    +0.163 HD
ATOM     97  H81 UNL     1      24.693   6.439   2.075 +0.13 +0.00    +0.163 HD
ATOM     98  H82 UNL     1      28.596   8.518   2.964 -0.09 +0.00    +0.316 HD
ENDROOT
TORSDOF 38
TER
