USER    Run = 1
USER    DPF = ligand_496_receptor.dpf
USER  
USER    Estimated Free Energy of Binding    =  +1.38e+007 kcal/mol  [=(1)+(2)+(3)-(4)]
USER    
USER    (1) Final Intermolecular Energy     =  +1.38e+007 kcal/mol
USER        vdW + Hbond + desolv Energy     =  +7.01e+006 kcal/mol
USER        Electrostatic Energy            =  +6.83e+006 kcal/mol
USER    (2) Final Total Internal Energy     =   +0.00 kcal/mol
USER    (3) Torsional Free Energy           =   +1.19 kcal/mol
USER    (4) Unbound System's Energy  [=(2)] =   +0.00 kcal/mol
USER    
USER    
USER    NEWDPF move ligand_496.pdbqt
USER    NEWDPF about 0.000000 0.000000 0.000000
USER    NEWDPF tran0 19.259678 7.841083 4.559340
USER    NEWDPF quaternion0 -0.982702 -0.114585 -0.145069 0.011028
USER    NEWDPF axisangle0 -0.982762 -0.114592 -0.145077 178.736263
USER    NEWDPF quat0 -0.982762 -0.114592 -0.145077 178.736263
USER  keepresnum = 1 
USER  
REMARK  0 active torsions:
REMARK  status: ('A' for Active; 'I' for Inactive)
REMARK       I    between atoms: C2_2  and  C3_3 
REMARK       I    between atoms: C3_3  and  C5_5 
REMARK       I    between atoms: C5_5  and  C6_6 
REMARK       I    between atoms: C5_5  and  N3_98 
REMARK       I    between atoms: C6_6  and  C7_7 
REMARK       I    between atoms: C6_6  and  O5_79 
REMARK       I    between atoms: C7_7  and  C8_8 
REMARK       I    between atoms: C8_8  and  N1_96 
REMARK       I    between atoms: C12_12  and  C13_13 
REMARK       I    between atoms: C13_13  and  C14_14 
REMARK       I    between atoms: C13_13  and  O4_78 
REMARK       I    between atoms: C14_14  and  C16_16 
REMARK       I    between atoms: C16_16  and  N2_97 
REMARK       I    between atoms: C17_17  and  C19_19 
REMARK       I    between atoms: C17_17  and  N2_97 
REMARK       I    between atoms: C19_19  and  C20_20 
REMARK       I    between atoms: C19_19  and  O3_77 
REMARK       I    between atoms: C29_29  and  C30_30 
REMARK       I    between atoms: C29_29  and  N3_98 
REMARK       I    between atoms: C30_30  and  N4_99 
REMARK       I    between atoms: C31_31  and  C32_32 
REMARK       I    between atoms: C31_31  and  N4_99 
REMARK       I    between atoms: C32_32  and  C33_33 
REMARK       I    between atoms: C32_32  and  N5_100 
REMARK       I    between atoms: C37_37  and  O9_83 
REMARK       I    between atoms: C37_37  and  N5_100 
REMARK       I    between atoms: C38_38  and  C39_39 
REMARK       I    between atoms: C38_38  and  O9_83 
REMARK       I    between atoms: C42_42  and  N6_101 
REMARK       I    between atoms: C45_45  and  C46_46 
REMARK       I    between atoms: C45_45  and  N6_101 
REMARK       I    between atoms: C46_46  and  N7_102 
REMARK       I    between atoms: C47_47  and  C48_48 
REMARK       I    between atoms: C47_47  and  N7_102 
REMARK       I    between atoms: C48_48  and  C49_49 
REMARK       I    between atoms: C48_48  and  N8_103 
REMARK       I    between atoms: C52_52  and  C53_53 
REMARK       I    between atoms: C52_52  and  N8_103 
REMARK       I    between atoms: C53_53  and  C54_54 
REMARK       I    between atoms: C54_54  and  C55_55 
REMARK       I    between atoms: C55_55  and  C56_56 
REMARK       I    between atoms: C55_55  and  N10_106 
REMARK       I    between atoms: C56_56  and  N9_104 
REMARK       I    between atoms: C58_58  and  C59_59 
REMARK       I    between atoms: C58_58  and  N10_106 
REMARK       I    between atoms: C62_62  and  C65_65 
REMARK       I    between atoms: C65_65  and  C66_66 
REMARK       I    between atoms: C66_66  and  C67_67 
REMARK       I    between atoms: C66_66  and  C71_71 
REMARK       I    between atoms: C67_67  and  S1_107 
REMARK       I    between atoms: C68_68  and  C69_69 
REMARK       I    between atoms: C68_68  and  S1_107 
REMARK       I    between atoms: C69_69  and  O18_92 
REMARK       I    between atoms: C71_71  and  S2_108 
REMARK       I    between atoms: C72_72  and  C73_73 
REMARK       I    between atoms: C72_72  and  S2_108 
REMARK       I    between atoms: C73_73  and  O21_95 
USER                              x       y       z     vdW  Elec       q    Type
USER                           _______ _______ _______ _____ _____    ______ ____
ROOT
ATOM      1  C1  UNL     1       7.035   5.300   4.924 -0.29 +0.00    +0.005 C 
ATOM      2  C2  UNL     1       7.984   5.801   3.842 -0.26 +0.00    +0.002 C 
ATOM      3  C3  UNL     1       7.997   4.919   2.573 -0.19 +0.00    +0.006 C 
ATOM      4  C4  UNL     1       8.448   3.491   2.899 -0.28 +0.00    +0.012 C 
ATOM      5  C5  UNL     1       8.808   5.600   1.419 -0.16 +0.00    +0.119 C 
ATOM      6  C6  UNL     1       8.599   4.956  -0.001 -0.12 +0.00    +0.152 C 
ATOM      7  C7  UNL     1       7.137   5.097  -0.480 -0.05 +0.00    +0.137 C 
ATOM      8  C8  UNL     1       6.292   3.878  -0.185 -0.07 +0.00    +0.222 C 
ATOM      9  C9  UNL     1       4.235   3.319   0.887 -0.09 +0.00    +0.126 C 
ATOM     10  C10 UNL     1       3.652   4.477   1.715 -0.04 +0.00    +0.022 C 
ATOM     11  C11 UNL     1       3.775   5.728   0.825 +6.87 +0.00    +0.029 C 
ATOM     12  C12 UNL     1       4.051   5.136  -0.555 +0.09 +0.00    +0.117 C 
ATOM     13  C13 UNL     1       4.415   6.118  -1.686+53.24 +0.00    +0.156 C 
ATOM     14  C14 UNL     1       4.664   5.428  -3.052+99.99 +0.00    +0.105 C 
ATOM     15  C15 UNL     1       5.023   6.455  -4.131+99.99 +0.00    +0.022 C 
ATOM     16  C16 UNL     1       3.487   4.581  -3.531+11.12 +0.00    +0.224 C 
ATOM     17  C17 UNL     1       2.409   2.348  -3.362 -0.02 +0.00    +0.113 C 
ATOM     18  C18 UNL     1       1.193   2.605  -2.471+99.99+99.99    +0.035 C 
ATOM     19  C19 UNL     1       2.860   0.857  -3.333 -0.03 +0.00    +0.173 C 
ATOM     20  C20 UNL     1       3.296   0.319  -1.981 -0.07 -0.00    -0.028 A 
ATOM     21  C21 UNL     1       4.612   0.470  -1.521 +0.04 +0.00    +0.010 A 
ATOM     22  C22 UNL     1       4.995  -0.036  -0.277 +5.36 +0.00    +0.001 A 
ATOM     23  C23 UNL     1       4.069  -0.699   0.523+99.99 +0.00    +0.000 A 
ATOM     24  C24 UNL     1       2.758  -0.860   0.079+43.84 +0.00    +0.001 A 
ATOM     25  C25 UNL     1       2.374  -0.355  -1.165 +1.32 +0.00    +0.010 A 
ATOM     26  C26 UNL     1       3.699   8.395  -1.513+99.99 +0.00    +0.202 C 
ATOM     27  C27 UNL     1       9.866   4.864  -2.027 -0.14 +0.00    +0.202 C 
ATOM     28  C28 UNL     1      11.173   4.700   1.679+99.99 +0.00    +0.153 C 
ATOM     29  C29 UNL     1      10.630   7.085   2.216 -0.22 +0.00    +0.237 C 
ATOM     30  C30 UNL     1      12.085   7.316   2.670 -0.25 +0.00    +0.225 C 
ATOM     31  C31 UNL     1      12.267   6.282   4.897 -0.26 +0.00    +0.241 C 
ATOM     32  C32 UNL     1      13.117   5.311   5.750 -0.33 +0.00    +0.184 C 
ATOM     33  C33 UNL     1      12.308   4.691   6.917 -0.55 +0.00    +0.010 C 
ATOM     34  C34 UNL     1      11.119   3.874   6.388 -0.52 +0.00    +0.012 C 
ATOM     35  C35 UNL     1      13.185   3.772   7.776 -0.47 +0.00    +0.012 C 
ATOM     36  C36 UNL     1      14.216   7.084   7.184 +0.51 +0.00    +0.156 C 
ATOM     37  C37 UNL     1      15.383   6.088   5.249+16.28 +0.00    +0.363 C 
ATOM     38  C38 UNL     1      17.500   6.943   4.731+34.52 +0.00    +0.219 C 
ATOM     39  C39 UNL     1      18.528   7.899   5.279+47.60 -0.00    -0.034 A 
ATOM     40  C40 UNL     1      19.825   7.464   5.578+65.71 +0.00    +0.011 A 
ATOM     41  C41 UNL     1      20.782   8.356   6.078+99.99 +0.00    +0.030 A 
ATOM     42  C42 UNL     1      20.459   9.697   6.291+99.99 +0.00    +0.034 A 
ATOM     43  C43 UNL     1      19.163  10.133   5.993+99.99 +0.00    +0.030 A 
ATOM     44  C44 UNL     1      18.207   9.245   5.492+24.65 +0.00    +0.011 A 
ATOM     45  C45 UNL     1      22.687  10.462   7.161 +5.25 +0.00    +0.239 C 
ATOM     46  C46 UNL     1      23.341  11.761   7.642+99.99 +0.00    +0.225 C 
ATOM     47  C47 UNL     1      25.342  12.552   8.826+18.08 +0.00    +0.241 C 
ATOM     48  C48 UNL     1      26.799  12.195   9.191+99.75 +0.00    +0.179 C 
ATOM     49  C49 UNL     1      27.302  12.992  10.415 +1.03 +0.00    +0.009 C 
ATOM     50  C50 UNL     1      26.503  12.632  11.673+99.99+99.99    +0.012 C 
ATOM     51  C51 UNL     1      28.790  12.730  10.679 -0.35 +0.00    +0.012 C 
ATOM     52  C52 UNL     1      27.715  11.597   6.973+99.99 +0.00    +0.218 C 
ATOM     53  C53 UNL     1      28.523  12.120   5.802+99.99 +0.00    +0.105 C 
ATOM     54  C54 UNL     1      28.995  11.005   4.868+99.99 +0.00    +0.044 C 
ATOM     55  C55 UNL     1      29.994  10.027   5.508+99.99 +0.00    +0.177 C 
ATOM     56  C56 UNL     1      30.201   8.819   4.553+99.99 +0.00    +0.243 C 
ATOM     57  C57 UNL     1      31.746   7.611   3.414+99.99 +0.00    +0.121 C 
ATOM     58  C58 UNL     1      31.621  11.198   6.991+35.05 +0.00    +0.252 C 
ATOM     59  C59 UNL     1      33.037  11.621   7.177+99.99+99.99    +0.032 A 
ATOM     60  C60 UNL     1      33.861  11.973   6.105+99.99+99.99    +0.018 A 
ATOM     61  C61 UNL     1      35.183  12.371   6.338+99.99+99.99    +0.016 A 
ATOM     62  C62 UNL     1      35.698  12.431   7.644+99.99+99.99    +0.010 A 
ATOM     63  C63 UNL     1      34.867  12.089   8.716+99.99+99.99    +0.016 A 
ATOM     64  C64 UNL     1      33.543  11.691   8.482+99.99+99.99    +0.018 A 
ATOM     65  C65 UNL     1      37.126  12.864   7.811+99.99+99.99    +0.165 C 
ATOM     66  C66 UNL     1      37.726  13.039   9.197+99.99+99.99    +0.088 C 
ATOM     67  C67 UNL     1      38.752  14.192   9.200+99.99+99.99    +0.153 C 
ATOM     68  C68 UNL     1      40.614  13.450   7.142+99.99+99.99    +0.166 C 
ATOM     69  C69 UNL     1      42.074  13.328   6.727+99.99+99.99    +0.182 C 
ATOM     70  C70 UNL     1      42.662  15.565   6.169+99.99+99.99    +0.201 C 
ATOM     71  C71 UNL     1      38.169  11.674   9.725+99.99+99.99    +0.153 C 
ATOM     72  C72 UNL     1      39.267  10.258  11.875+99.99+99.99    +0.166 C 
ATOM     73  C73 UNL     1      39.411  10.080  13.371+99.99+99.99    +0.182 C 
ATOM     74  C74 UNL     1      40.417   8.698  14.995+99.99+99.99    +0.201 C 
ATOM     75  O1  UNL     1       6.827   2.802   0.094 -0.04 -0.00    -0.273 OA
ATOM     76  O2  UNL     1       2.627   4.999  -4.301 +0.32 -0.00    -0.273 OA
ATOM     77  O3  UNL     1       3.901   0.646  -4.298 +0.01 -0.00    -0.389 OA
ATOM     78  O4  UNL     1       3.329   7.055  -1.812+15.24 -0.00    -0.388 OA
ATOM     79  O5  UNL     1       9.433   5.674  -0.941 -0.05 -0.00    -0.388 OA
ATOM     80  O6  UNL     1       9.868   8.058   2.154 -0.04 -0.00    -0.272 OA
ATOM     81  O7  UNL     1      11.389   6.998   5.367 -0.20 -0.00    -0.271 OA
ATOM     82  O8  UNL     1      15.368   5.487   4.179+99.99 -0.00    -0.238 OA
ATOM     83  O9  UNL     1      16.406   6.882   5.651 +1.43 -0.00    -0.299 OA
ATOM     84  O10 UNL     1      23.313   9.407   7.104+99.99 -0.00    -0.271 OA
ATOM     85  O11 UNL     1      24.855  13.669   8.992+99.99 -0.00    -0.271 OA
ATOM     86  O12 UNL     1      27.177  10.494   6.986+99.99 -0.00    -0.274 OA
ATOM     87  O13 UNL     1      29.271   8.095   4.208+27.49 -0.00    -0.271 OA
ATOM     88  O14 UNL     1      30.824  11.310   7.914+99.99 -0.00    -0.268 OA
ATOM     89  O15 UNL     1      37.804  13.065   6.807+99.99+99.99    -0.292 OA
ATOM     90  O16 UNL     1      41.166  15.138   9.050+99.99+99.99    -0.228 OA
ATOM     91  O17 UNL     1      40.898  12.714   9.633+99.99+99.99    -0.228 OA
ATOM     92  O18 UNL     1      42.412  14.249   5.686+99.99+99.99    -0.395 OA
ATOM     93  O19 UNL     1      38.841  12.850  11.983+99.99+99.99    -0.228 OA
ATOM     94  O20 UNL     1      36.859  11.309  11.934+99.99+99.99    -0.228 OA
ATOM     95  O21 UNL     1      40.207   8.916  13.604+99.99+99.99    -0.395 OA
ATOM     96  N1  UNL     1       4.906   3.988  -0.222 -0.07 -0.00    -0.345 N 
ATOM     97  N2  UNL     1       3.481   3.292  -3.034 -0.03 -0.00    -0.354 N 
ATOM     98  N3  UNL     1      10.242   5.816   1.770 -0.07 -0.00    -0.347 N 
ATOM     99  N4  UNL     1      12.648   6.323   3.568 -0.04 -0.00    -0.351 N 
ATOM    100  N5  UNL     1      14.333   6.049   6.160 -0.24 -0.00    -0.319 N 
ATOM    101  N6  UNL     1      21.363  10.657   6.793+85.33 -0.00    -0.326 N 
ATOM    102  N7  UNL     1      24.657  11.536   8.196 +3.64 -0.00    -0.351 N 
ATOM    103  N8  UNL     1      27.585  12.503   7.999+99.99 -0.00    -0.347 N 
ATOM    104  N9  UNL     1      31.509   8.671   4.110+99.99 -0.00    -0.345 N 
ATOM    105  H9  UNL     1      32.236   9.356   4.322 -0.52 +0.00    +0.167 HD
ATOM    106  N10 UNL     1      31.289  10.676   5.763+11.56 -0.00    -0.344 N 
ATOM    107  S1  UNL     1      40.478  13.873   8.866+99.99+99.99    +0.147 S 
ATOM    108  S2  UNL     1      38.208  11.636  11.510+99.99+99.99    +0.147 S 
ATOM    109  HA4 UNL     1       4.283  -0.229  -4.114 +0.05 +0.00    +0.210 HD
ATOM    110  HA5 UNL     1       4.126   3.040  -2.294 +0.03 +0.00    +0.163 HD
ATOM    111  HA6 UNL     1      13.577   5.966   3.355 -0.10 +0.00    +0.163 HD
ATOM    112  HA7 UNL     1      20.993  11.593   6.902 +2.20 +0.00    +0.169 HD
ATOM    113  HA8 UNL     1      25.199  10.754   7.819 +0.55 +0.00    +0.163 HD
ATOM    114  HA9 UNL     1      27.841  13.467   7.836 -0.30 +0.00    +0.163 HD
ATOM    115  HB0 UNL     1      32.034  10.353   5.151 -0.13 +0.00    +0.163 HD
ENDROOT
TORSDOF 47
TER
