USER    Run = 1
USER    DPF = ligand_290_receptor.dpf
USER  
USER    Estimated Free Energy of Binding    =  +3.17e+004 kcal/mol  [=(1)+(2)+(3)-(4)]
USER    
USER    (1) Final Intermolecular Energy     =  +3.17e+004 kcal/mol
USER        vdW + Hbond + desolv Energy     =  +3.17e+004 kcal/mol
USER        Electrostatic Energy            =   +0.00 kcal/mol
USER    (2) Final Total Internal Energy     =   +0.00 kcal/mol
USER    (3) Torsional Free Energy           =   +1.19 kcal/mol
USER    (4) Unbound System's Energy  [=(2)] =   +0.00 kcal/mol
USER    
USER    
USER    NEWDPF move ligand_290.pdbqt
USER    NEWDPF about 0.000000 0.000000 0.000000
USER    NEWDPF tran0 18.831798 6.559972 2.234005
USER    NEWDPF quaternion0 0.033521 0.116056 0.033893 -0.992098
USER    NEWDPF axisangle0 0.267174 0.925010 0.270137 -14.415161
USER    NEWDPF quat0 0.267174 0.925010 0.270137 -14.415161
USER  keepresnum = 1 
USER  
REMARK  0 active torsions:
REMARK  status: ('A' for Active; 'I' for Inactive)
REMARK       I    between atoms: C1_1  and  C73_73 
REMARK       I    between atoms: C3_3  and  C66_66 
REMARK       I    between atoms: C9_9  and  C63_63 
REMARK       I    between atoms: C12_12  and  N6_97 
REMARK       I    between atoms: C14_14  and  C16_16 
REMARK       I    between atoms: C16_16  and  C17_17 
REMARK       I    between atoms: C20_20  and  C21_21 
REMARK       I    between atoms: C20_20  and  N6_97 
REMARK       I    between atoms: C21_21  and  C58_58 
REMARK       I    between atoms: C21_21  and  N7_98 
REMARK       I    between atoms: C22_22  and  C23_23 
REMARK       I    between atoms: C22_22  and  N7_98 
REMARK       I    between atoms: C23_23  and  C55_55 
REMARK       I    between atoms: C23_23  and  N8_99 
REMARK       I    between atoms: C24_24  and  C25_25 
REMARK       I    between atoms: C24_24  and  N8_99 
REMARK       I    between atoms: C29_29  and  C30_30 
REMARK       I    between atoms: C29_29  and  N9_100 
REMARK       I    between atoms: C30_30  and  C52_52 
REMARK       I    between atoms: C30_30  and  N10_101 
REMARK       I    between atoms: C31_31  and  C32_32 
REMARK       I    between atoms: C31_31  and  N10_101 
REMARK       I    between atoms: C32_32  and  C49_49 
REMARK       I    between atoms: C32_32  and  N11_102 
REMARK       I    between atoms: C33_33  and  C34_34 
REMARK       I    between atoms: C33_33  and  N11_102 
REMARK       I    between atoms: C34_34  and  C47_47 
REMARK       I    between atoms: C34_34  and  N12_103 
REMARK       I    between atoms: C35_35  and  C36_36 
REMARK       I    between atoms: C35_35  and  N12_103 
REMARK       I    between atoms: C36_36  and  C44_44 
REMARK       I    between atoms: C36_36  and  N13_104 
REMARK       I    between atoms: C37_37  and  C38_38 
REMARK       I    between atoms: C37_37  and  N13_104 
REMARK       I    between atoms: C38_38  and  C39_39 
REMARK       I    between atoms: C39_39  and  C40_40 
REMARK       I    between atoms: C40_40  and  C41_41 
REMARK       I    between atoms: C47_47  and  O16_91 
REMARK       I    between atoms: C55_55  and  C56_56 
REMARK       I    between atoms: C56_56  and  C57_57 
REMARK       I    between atoms: C57_57  and  N14_105 
REMARK       I    between atoms: C58_58  and  C59_59 
REMARK       I    between atoms: C66_66  and  C67_67 
USER                              x       y       z     vdW  Elec       q    Type
USER                           _______ _______ _______ _____ _____    ______ ____
ROOT
ATOM      1  C1  UNL     1       8.686   6.106   5.115 +0.16 +0.00    +0.180 C 
ATOM      2  C2  UNL     1       8.160   5.348   3.866 -0.14 +0.00    +0.241 C 
ATOM      3  C3  UNL     1       7.329   5.666   1.566 -0.14 +0.00    +0.181 C 
ATOM      4  C4  UNL     1       8.640   5.623   0.749 -0.10 +0.00    +0.245 C 
ATOM      5  C5  UNL     1       9.537   4.418  -1.277 -0.16 +0.00    +0.099 C 
ATOM      6  C6  UNL     1       9.252   3.493  -2.219 -0.20 +0.00    +0.004 C 
ATOM      7  C7  UNL     1       8.020   2.665  -2.408 -0.15 +0.00    +0.038 C 
ATOM      8  C8  UNL     1      10.912   5.054  -1.451 -0.09 +0.00    +0.268 C 
ATOM      9  C9  UNL     1      12.831   6.189  -0.334 -0.35 +0.00    +0.188 C 
ATOM     10  C10 UNL     1      13.354   6.110   1.112+15.56 +0.00    +0.282 C 
ATOM     11  C11 UNL     1      15.361   6.531   2.449+99.99 +0.00    +0.159 C 
ATOM     12  C12 UNL     1      14.601   6.756   3.780 +1.30 +0.00    +0.205 C 
ATOM     13  C13 UNL     1      13.683   7.991   3.754 -0.34 +0.00    +0.243 C 
ATOM     14  C14 UNL     1      11.295   8.722   3.961 -0.07 +0.00    +0.180 C 
ATOM     15  C15 UNL     1       9.910   8.035   4.084 -0.27 +0.00    +0.241 C 
ATOM     16  C16 UNL     1      11.472   9.827   5.042+99.99 +0.00    +0.013 C 
ATOM     17  C17 UNL     1      11.253   9.393   6.507+11.49 +0.00    +0.002 C 
ATOM     18  C18 UNL     1      12.296   8.424   7.042 -0.49 +0.00    +0.005 C 
ATOM     19  C19 UNL     1      10.551  11.021   4.735+99.99 +0.00    +0.012 C 
ATOM     20  C20 UNL     1      15.338   6.215   6.099 +4.42 +0.00    +0.241 C 
ATOM     21  C21 UNL     1      16.270   6.682   7.251+15.38 +0.00    +0.180 C 
ATOM     22  C22 UNL     1      18.316   7.395   6.040+99.99 +0.00    +0.241 C 
ATOM     23  C23 UNL     1      19.624   6.911   5.381+27.94 +0.00    +0.176 C 
ATOM     24  C24 UNL     1      20.806   7.762   3.360 +8.93 +0.00    +0.241 C 
ATOM     25  C25 UNL     1      21.126   9.038   2.548 -0.03 +0.00    +0.179 C 
ATOM     26  C26 UNL     1      21.574   8.581   0.227 +5.50 +0.00    +0.127 C 
ATOM     27  C27 UNL     1      20.067   8.630   0.450+99.99 +0.00    +0.022 C 
ATOM     28  C28 UNL     1      19.918   9.467   1.718 +0.45 +0.00    +0.037 C 
ATOM     29  C29 UNL     1      23.475   8.672   1.915 -0.32 +0.00    +0.243 C 
ATOM     30  C30 UNL     1      24.524   8.384   0.817 -0.35 +0.00    +0.180 C 
ATOM     31  C31 UNL     1      26.374   6.722   0.950 -0.25 +0.00    +0.241 C 
ATOM     32  C32 UNL     1      27.464   6.136   1.875+37.05 +0.00    +0.180 C 
ATOM     33  C33 UNL     1      28.164   3.747   2.031+78.47 +0.00    +0.243 C 
ATOM     34  C34 UNL     1      28.615   2.521   1.200 -0.07 +0.00    +0.205 C 
ATOM     35  C35 UNL     1      29.433   3.423  -0.966 -0.12 +0.00    +0.241 C 
ATOM     36  C36 UNL     1      30.662   3.932  -1.743 -0.03 +0.00    +0.180 C 
ATOM     37  C37 UNL     1      30.910   6.025  -3.057 -0.06 +0.00    +0.218 C 
ATOM     38  C38 UNL     1      30.192   6.921  -4.051 -0.20 +0.00    +0.103 C 
ATOM     39  C39 UNL     1      30.902   8.250  -4.300 -0.29 +0.00    +0.010 C 
ATOM     40  C40 UNL     1      30.850   9.240  -3.126 -0.27 +0.00    +0.004 C 
ATOM     41  C41 UNL     1      29.443   9.690  -2.687+29.75 -0.00    -0.023 C 
ATOM     42  C42 UNL     1      28.654  10.337  -3.825+21.23 +0.00    +0.009 C 
ATOM     43  C43 UNL     1      29.557  10.671  -1.516+99.99 +0.00    +0.009 C 
ATOM     44  C44 UNL     1      31.466   2.820  -2.450 -0.07 +0.00    +0.009 C 
ATOM     45  C45 UNL     1      32.232   1.938  -1.461 -0.15 +0.00    +0.012 C 
ATOM     46  C46 UNL     1      30.603   1.949  -3.369 -0.10 +0.00    +0.012 C 
ATOM     47  C47 UNL     1      29.016   1.324   2.095 +0.36 +0.00    +0.146 C 
ATOM     48  C48 UNL     1      30.244   1.554   2.972 +0.21 +0.00    +0.042 C 
ATOM     49  C49 UNL     1      28.613   7.148   2.101 +0.33 +0.00    +0.009 C 
ATOM     50  C50 UNL     1      29.560   6.686   3.212+17.87 +0.00    +0.012 C 
ATOM     51  C51 UNL     1      29.413   7.433   0.824 -0.36 +0.00    +0.012 C 
ATOM     52  C52 UNL     1      24.902   9.675   0.052+42.30 +0.00    +0.009 C 
ATOM     53  C53 UNL     1      25.725  10.658   0.893+56.59 +0.00    +0.012 C 
ATOM     54  C54 UNL     1      25.648   9.358  -1.246+99.99 +0.00    +0.012 C 
ATOM     55  C55 UNL     1      20.749   6.613   6.381+99.99 +0.00    +0.036 C 
ATOM     56  C56 UNL     1      20.646   5.330   7.220 +5.23 +0.00    +0.032 C 
ATOM     57  C57 UNL     1      20.290   4.067   6.439 +3.36 +0.00    +0.267 C 
ATOM     58  C58 UNL     1      15.993   5.944   8.589+99.99 +0.00    +0.013 C 
ATOM     59  C59 UNL     1      14.604   6.338   9.149 +0.01 +0.00    +0.002 C 
ATOM     60  C60 UNL     1      14.176   5.525  10.363+99.99 +0.00    +0.005 C 
ATOM     61  C61 UNL     1      17.083   6.256   9.626+99.99 +0.00    +0.012 C 
ATOM     62  C62 UNL     1      16.552   7.474   2.254 +2.35 +0.00    +0.042 C 
ATOM     63  C63 UNL     1      12.757   7.619  -0.926 +6.06 +0.00    +0.010 C 
ATOM     64  C64 UNL     1      12.168   8.653   0.036+99.99 +0.00    +0.012 C 
ATOM     65  C65 UNL     1      14.117   8.100  -1.444+99.99 +0.00    +0.012 C 
ATOM     66  C66 UNL     1       6.324   6.556   0.822 -0.32 +0.00    +0.073 C 
ATOM     67  C67 UNL     1       4.937   6.498   1.418 +0.56 -0.00    -0.056 A 
ATOM     68  C68 UNL     1       4.548   7.419   2.400 +1.02 +0.00    +0.007 A 
ATOM     69  C69 UNL     1       3.272   7.357   2.962 +0.86 +0.00    +0.001 A 
ATOM     70  C70 UNL     1       2.375   6.373   2.551 +5.63 +0.00    +0.000 A 
ATOM     71  C71 UNL     1       2.753   5.451   1.578+99.99 +0.00    +0.001 A 
ATOM     72  C72 UNL     1       4.028   5.511   1.013 +0.87 +0.00    +0.007 A 
ATOM     73  C73 UNL     1       8.870   5.166   6.333 -0.39 +0.00    +0.009 C 
ATOM     74  C74 UNL     1      10.093   4.244   6.247 -0.47 +0.00    +0.012 C 
ATOM     75  C75 UNL     1       8.934   5.973   7.635 +0.25 +0.00    +0.012 C 
ATOM     76  O1  UNL     1       8.192   4.128   3.732 -0.14 -0.00    -0.271 OA
ATOM     77  O2  UNL     1       9.572   6.386   0.997 -0.17 -0.00    -0.271 OA
ATOM     78  O3  UNL     1      11.474   5.077  -2.546 +0.48 -0.00    -0.266 OA
ATOM     79  O4  UNL     1      12.731   5.624   2.051 +2.11 -0.00    -0.263 OA
ATOM     80  O5  UNL     1      14.596   6.640   1.218+99.99 -0.00    -0.312 OA
ATOM     81  O6  UNL     1      14.122   9.133   3.643 -0.07 -0.00    -0.271 OA
ATOM     82  O7  UNL     1       8.869   8.545   3.671 -0.12 -0.00    -0.271 OA
ATOM     83  O8  UNL     1      14.533   5.292   6.203 +0.41 -0.00    -0.271 OA
ATOM     84  O9  UNL     1      17.877   8.536   5.871+99.99 -0.00    -0.271 OA
ATOM     85  O10 UNL     1      21.156   6.633   3.022+99.99 -0.00    -0.271 OA
ATOM     86  O11 UNL     1      23.831   8.829   3.090 -0.34 -0.00    -0.271 OA
ATOM     87  O12 UNL     1      26.179   6.296  -0.188 -0.21 -0.00    -0.271 OA
ATOM     88  O13 UNL     1      27.954   3.692   3.242+99.99 -0.00    -0.271 OA
ATOM     89  O14 UNL     1      28.290   3.498  -1.418 -0.17 -0.00    -0.271 OA
ATOM     90  O15 UNL     1      32.041   6.234  -2.636 -0.01 -0.00    -0.274 OA
ATOM     91  O16 UNL     1      27.929   0.907   2.926+99.99 -0.00    -0.393 OA
ATOM     92  N1  UNL     1       7.642   6.181   2.893 -0.07 -0.00    -0.346 N 
ATOM     93  N2  UNL     1       8.617   4.697  -0.277 -0.03 -0.00    -0.321 N 
ATOM     94  N3  UNL     1      11.517   5.543  -0.336 -0.19 -0.00    -0.342 N 
ATOM     95  N4  UNL     1      12.348   7.695   3.961 -0.19 -0.00    -0.346 N 
ATOM     96  N5  UNL     1       9.906   6.850   4.788 -0.08 -0.00    -0.346 N 
ATOM     97  N6  UNL     1      15.495   6.930   4.927 +0.07 -0.00    -0.344 N 
ATOM     98  N7  UNL     1      17.640   6.456   6.778+37.67 -0.00    -0.346 N 
ATOM     99  N8  UNL     1      20.040   7.989   4.480 +4.69 -0.00    -0.346 N 
ATOM    100  N9  UNL     1      22.157   8.789   1.544 -0.07 -0.00    -0.337 N 
ATOM    101  N10 UNL     1      25.672   7.773   1.487 -0.15 -0.00    -0.346 N 
ATOM    102  N11 UNL     1      27.940   4.886   1.291 +4.35 -0.00    -0.346 N 
ATOM    103  N12 UNL     1      29.699   2.902   0.280 -0.15 -0.00    -0.344 N 
ATOM    104  N13 UNL     1      30.173   4.924  -2.697 -0.01 -0.00    -0.347 N 
ATOM    105  N14 UNL     1      18.834   3.916   6.325+99.99 +0.00    +0.078 N 
ATOM    106  HB0 UNL     1      27.715   1.662   3.515+31.82 +0.00    +0.210 HD
ATOM    107  HB1 UNL     1       7.930   7.160   2.953 +0.08 +0.00    +0.163 HD
ATOM    108  HB2 UNL     1       7.789   4.118  -0.294 +0.07 +0.00    +0.169 HD
ATOM    109  HB3 UNL     1      10.962   5.639   0.512 +0.02 +0.00    +0.163 HD
ATOM    110  HB4 UNL     1      12.082   6.799   3.547 +0.10 +0.00    +0.163 HD
ATOM    111  HB5 UNL     1      10.801   6.474   5.081 +0.11 +0.00    +0.163 HD
ATOM    112  HB6 UNL     1      15.992   7.819   4.998 +0.10 +0.00    +0.163 HD
ATOM    113  HB7 UNL     1      17.922   5.482   6.614+27.89 +0.00    +0.163 HD
ATOM    114  HB8 UNL     1      19.713   8.924   4.706 +0.18 +0.00    +0.163 HD
ATOM    115  HB9 UNL     1      25.736   7.956   2.486 +0.12 +0.00    +0.163 HD
ATOM    116  HC0 UNL     1      27.756   4.767   0.293 +0.08 +0.00    +0.163 HD
ATOM    117  HC1 UNL     1      30.580   3.168   0.702 +0.08 +0.00    +0.163 HD
ATOM    118  HC2 UNL     1      29.206   4.832  -3.000 +0.05 +0.00    +0.163 HD
ATOM    119  HC3 UNL     1      18.653   3.195   5.619+11.58 +0.00    +0.312 HD
ATOM    120  HC4 UNL     1      18.498   3.489   7.195+79.99 +0.00    +0.312 HD
ENDROOT
TORSDOF 35
TER
