USER    Run = 1
USER    DPF = ligand_438_receptor.dpf
USER  
USER    Estimated Free Energy of Binding    =  +8.42e+003 kcal/mol  [=(1)+(2)+(3)-(4)]
USER    
USER    (1) Final Intermolecular Energy     =  +8.42e+003 kcal/mol
USER        vdW + Hbond + desolv Energy     =  +8.42e+003 kcal/mol
USER        Electrostatic Energy            =   +0.00 kcal/mol
USER    (2) Final Total Internal Energy     =   -3.00 kcal/mol
USER    (3) Torsional Free Energy           =   +1.19 kcal/mol
USER    (4) Unbound System's Energy  [=(2)] =   -3.00 kcal/mol
USER    
USER    
USER    NEWDPF move ligand_438.pdbqt
USER    NEWDPF about 0.000000 0.000000 0.000000
USER    NEWDPF tran0 17.358061 8.078462 8.042216
USER    NEWDPF quaternion0 -0.006545 -0.823644 0.555998 -0.111502
USER    NEWDPF axisangle0 -0.006586 -0.828813 0.559487 -167.196146
USER    NEWDPF quat0 -0.006586 -0.828813 0.559487 -167.196146
USER    NEWDPF dihe0 81.68 -84.08 -158.86 -2.39 -138.28 47.19 177.68 74.09 -73.90 88.81 -65.78 -11.33 32.57 -43.13 49.14 -101.14 82.31 1.89 -64.63 -37.46 -62.67 -98.53 
USER  keepresnum = 1 
USER  
REMARK  22 active torsions:
REMARK  status: ('A' for Active; 'I' for Inactive)
REMARK    1  A    between atoms: C3_3  and  N2_51 
REMARK    2  A    between atoms: C4_4  and  C5_5 
REMARK       I    between atoms: C4_4  and  N2_51 
REMARK    3  A    between atoms: C7_7  and  N3_52 
REMARK    4  A    between atoms: C8_8  and  C9_9 
REMARK       I    between atoms: C8_8  and  N3_52 
REMARK    5  A    between atoms: C11_11  and  N4_53 
REMARK    6  A    between atoms: C12_12  and  C13_13 
REMARK       I    between atoms: C12_12  and  N4_53 
REMARK    7  A    between atoms: C16_16  and  C17_17 
REMARK       I    between atoms: C17_17  and  N6_56 
REMARK    8  A    between atoms: C18_18  and  N6_56 
REMARK    9  A    between atoms: C20_20  and  C21_21 
REMARK       I    between atoms: C21_21  and  N7_57 
REMARK   10  A    between atoms: C22_22  and  N7_57 
REMARK   11  A    between atoms: C24_24  and  C25_25 
REMARK       I    between atoms: C25_25  and  N8_58 
REMARK   12  A    between atoms: C26_26  and  N8_58 
REMARK   13  A    between atoms: C28_28  and  C29_29 
REMARK       I    between atoms: C29_29  and  N9_59 
REMARK   14  A    between atoms: C30_30  and  C31_31 
REMARK   15  A    between atoms: C30_30  and  N9_59 
REMARK   16  A    between atoms: C31_31  and  C32_32 
REMARK   17  A    between atoms: C32_32  and  N11_62 
REMARK   18  A    between atoms: C45_45  and  C46_46 
REMARK       I    between atoms: C46_46  and  N17_68 
REMARK   19  A    between atoms: C47_47  and  C48_48 
REMARK   20  A    between atoms: C47_47  and  N17_68 
REMARK   21  A    between atoms: C48_48  and  C49_49 
REMARK   22  A    between atoms: C49_49  and  N18_69 
USER                              x       y       z     vdW  Elec       q    Type
USER                           _______ _______ _______ _____ _____    ______ ____
ROOT
ATOM      1  C13 UNL     1      17.833  11.389   7.386+12.54 +0.00    +0.048 A 
ATOM      2  C14 UNL     1      17.566  12.682   7.827+24.45 +0.00    +0.104 A 
ATOM      3  C15 UNL     1      15.293  12.281   7.893 +5.85 +0.00    +0.104 A 
ATOM      4  C16 UNL     1      15.458  10.971   7.456+12.81 +0.00    +0.048 A 
ATOM      5  C39 UNL     1      16.757  10.512   7.209+99.99 +0.00    +0.037 A 
ATOM      6  N5  UNL     1      16.317  13.150   8.072+99.99 -0.00    -0.373 N 
ATOM      7  H5  UNL     1      16.156  14.110   8.376+99.99 +0.00    +0.164 HD
ENDROOT
BRANCH   1   8
ATOM      8  C12 UNL     1      19.247  10.996   7.174+99.99 +0.00    +0.257 C 
ATOM      9  N4  UNL     1      19.538   9.667   7.422+58.81 -0.00    -0.322 N 
ATOM     10  H44 UNL     1      18.794   9.015   7.623+99.99 +0.00    +0.169 HD
ATOM     11  O3  UNL     1      20.033  11.851   6.780+99.99 -0.00    -0.267 OA
BRANCH   9  12
ATOM     12  C11 UNL     1      20.800   9.112   7.323 +4.95 +0.00    +0.053 A 
ATOM     13  C10 UNL     1      21.666   9.006   6.212+18.43 +0.00    +0.066 A 
ATOM     14  C9  UNL     1      22.837   8.362   6.607+39.85 +0.00    +0.105 A 
ATOM     15  N15 UNL     1      22.676   8.096   7.957+19.07 -0.00    -0.354 N 
ATOM     16  C40 UNL     1      21.451   8.543   8.390 -0.22 +0.00    +0.120 A 
ATOM     17  C41 UNL     1      23.638   7.430   8.812+99.99 +0.00    +0.156 C 
BRANCH  14  18
ATOM     18  C8  UNL     1      24.028   8.016   5.830+16.57 +0.00    +0.273 C 
ATOM     19  N3  UNL     1      24.832   9.095   5.511+16.64 -0.00    -0.320 N 
ATOM     20  H43 UNL     1      24.545  10.018   5.801 +0.40 +0.00    +0.169 HD
ATOM     21  O2  UNL     1      24.268   6.859   5.495+17.36 -0.00    -0.266 OA
BRANCH  19  22
ATOM     22  C7  UNL     1      26.010   9.031   4.792+75.82 +0.00    +0.053 A 
ATOM     23  C6  UNL     1      26.303   8.395   3.564 -0.12 +0.00    +0.066 A 
ATOM     24  C5  UNL     1      27.642   8.611   3.247 +4.37 +0.00    +0.105 A 
ATOM     25  N16 UNL     1      28.146   9.388   4.277+99.99 -0.00    -0.354 N 
ATOM     26  C42 UNL     1      27.169   9.637   5.210+99.99 +0.00    +0.120 A 
ATOM     27  C43 UNL     1      29.507   9.874   4.391+99.99 +0.00    +0.156 C 
BRANCH  24  28
ATOM     28  C4  UNL     1      28.423   8.163   2.091 -0.18 +0.00    +0.273 C 
ATOM     29  N2  UNL     1      27.661   7.893   0.967 -0.20 -0.00    -0.320 N 
ATOM     30  H42 UNL     1      26.661   7.993   1.033 +0.12 +0.00    +0.169 HD
ATOM     31  O1  UNL     1      29.643   8.037   2.146 -0.32 -0.00    -0.266 OA
BRANCH  29  32
ATOM     32  C3  UNL     1      28.138   7.468  -0.259 -0.29 +0.00    +0.053 A 
ATOM     33  C2  UNL     1      28.919   8.151  -1.157 +0.11 +0.00    +0.120 A 
ATOM     34  N1  UNL     1      29.140   7.345  -2.244 -0.13 -0.00    -0.354 N 
ATOM     35  C1  UNL     1      29.925   7.744  -3.394 -0.25 +0.00    +0.156 C 
ATOM     36  C45 UNL     1      28.522   6.118  -2.068 -0.17 +0.00    +0.104 A 
ATOM     37  C44 UNL     1      27.886   6.195  -0.832 -0.25 +0.00    +0.066 A 
BRANCH  36  38
ATOM     38  C46 UNL     1      28.561   5.030  -3.032 +0.23 +0.00    +0.268 C 
ATOM     39  N17 UNL     1      29.530   4.077  -2.800 -0.02 -0.00    -0.355 N 
ATOM     40  H52 UNL     1      30.226   4.244  -2.091 +0.05 +0.00    +0.162 HD
ATOM     41  O8  UNL     1      27.811   4.954  -4.003+44.64 -0.00    -0.266 OA
BRANCH  39  42
ATOM     42  C47 UNL     1      29.735   2.966  -3.710 -0.09 +0.00    +0.130 C 
BRANCH  42  43
ATOM     43  C48 UNL     1      29.150   1.668  -3.170 -0.14 +0.00    +0.095 C 
BRANCH  43  44
ATOM     44  C49 UNL     1      27.713   1.896  -2.764 -0.09 +0.00    +0.069 C 
ATOM     45  N19 UNL     1      27.432   2.842  -1.826 -0.06 -0.00    -0.389 N 
ATOM     46  H54 UNL     1      26.565   2.740  -1.314 +0.09 +0.00    +0.157 HD
ATOM     47  H55 UNL     1      28.206   3.143  -1.240 +0.06 +0.00    +0.157 HD
BRANCH  44  48
ATOM     48  N18 UNL     1      26.791   1.172  -3.299 -0.09 -0.00    -0.389 N 
ATOM     49  H53 UNL     1      26.372   1.677  -4.084 +0.08 +0.00    +0.157 HD
ATOM     50  H18 UNL     1      26.520   0.239  -2.989 -0.39 +0.00    +0.157 HD
ENDBRANCH  44  48
ENDBRANCH  43  44
ENDBRANCH  42  43
ENDBRANCH  39  42
ENDBRANCH  36  38
ENDBRANCH  29  32
ENDBRANCH  24  28
ENDBRANCH  19  22
ENDBRANCH  14  18
ENDBRANCH   9  12
ENDBRANCH   1   8
BRANCH   4  51
ATOM     51  C17 UNL     1      14.255  10.115   7.321 +6.36 +0.00    +0.257 C 
ATOM     52  N6  UNL     1      13.212  10.666   6.598+36.98 -0.00    -0.322 N 
ATOM     53  H45 UNL     1      13.259  11.628   6.296 +4.17 +0.00    +0.169 HD
ATOM     54  O4  UNL     1      14.260   9.018   7.869 +8.42 -0.00    -0.267 OA
BRANCH  52  55
ATOM     55  C18 UNL     1      12.024  10.016   6.323+99.99 +0.00    +0.053 A 
ATOM     56  C19 UNL     1      11.783   8.676   5.942 +1.21 +0.00    +0.066 A 
ATOM     57  C20 UNL     1      10.413   8.487   5.779 +0.90 +0.00    +0.105 A 
ATOM     58  N14 UNL     1       9.836   9.718   6.046 +7.52 -0.00    -0.354 N 
ATOM     59  C37 UNL     1       8.418  10.019   6.002+99.99 +0.00    +0.156 C 
ATOM     60  C38 UNL     1      10.801  10.639   6.377+99.99 +0.00    +0.120 A 
BRANCH  57  61
ATOM     61  C21 UNL     1       9.665   7.288   5.396 +3.37 +0.00    +0.273 C 
ATOM     62  N7  UNL     1      10.423   6.129   5.393 -0.10 -0.00    -0.320 N 
ATOM     63  H46 UNL     1      11.389   6.189   5.673 +0.12 +0.00    +0.169 HD
ATOM     64  O5  UNL     1       8.470   7.336   5.119+20.70 -0.00    -0.266 OA
BRANCH  62  65
ATOM     65  C22 UNL     1       9.974   4.863   5.059 -0.28 +0.00    +0.053 A 
ATOM     66  C23 UNL     1       9.804   4.387   3.734 -0.20 +0.00    +0.066 A 
ATOM     67  C24 UNL     1       9.340   3.075   3.779 +0.02 +0.00    +0.105 A 
ATOM     68  N13 UNL     1       9.213   2.772   5.125 +0.10 -0.00    -0.354 N 
ATOM     69  C35 UNL     1       8.756   1.512   5.676+99.99 +0.00    +0.156 C 
ATOM     70  C36 UNL     1       9.604   3.840   5.892 -0.35 +0.00    +0.120 A 
BRANCH  67  71
ATOM     71  C25 UNL     1       9.006   2.154   2.692 +2.27 +0.00    +0.273 C 
ATOM     72  N8  UNL     1       8.602   2.785   1.528 -0.09 -0.00    -0.320 N 
ATOM     73  H47 UNL     1       8.624   3.792   1.498 +0.05 +0.00    +0.169 HD
ATOM     74  O6  UNL     1       9.100   0.937   2.824+99.99 -0.00    -0.266 OA
BRANCH  72  75
ATOM     75  C26 UNL     1       8.215   2.163   0.356 -0.15 +0.00    +0.053 A 
ATOM     76  C27 UNL     1       7.623   2.818  -0.751 -0.06 +0.00    +0.066 A 
ATOM     77  C28 UNL     1       7.341   1.874  -1.728 -0.07 +0.00    +0.104 A 
ATOM     78  N12 UNL     1       7.830   0.672  -1.255 -0.03 -0.00    -0.354 N 
ATOM     79  C33 UNL     1       7.922  -0.569  -1.997 -0.18 +0.00    +0.156 C 
ATOM     80  C34 UNL     1       8.316   0.835   0.018 -0.17 +0.00    +0.120 A 
BRANCH  77  81
ATOM     81  C29 UNL     1       6.723   2.115  -3.010 -0.07 +0.00    +0.268 C 
ATOM     82  N9  UNL     1       5.611   2.925  -2.960 -0.04 -0.00    -0.355 N 
ATOM     83  H48 UNL     1       5.360   3.358  -2.082 +0.03 +0.00    +0.162 HD
ATOM     84  O7  UNL     1       7.153   1.661  -4.066 -0.25 -0.00    -0.266 OA
BRANCH  82  85
ATOM     85  C30 UNL     1       4.811   3.214  -4.133 -0.09 +0.00    +0.130 C 
BRANCH  85  86
ATOM     86  C31 UNL     1       3.504   3.917  -3.794 +0.14 +0.00    +0.089 C 
BRANCH  86  87
ATOM     87  C32 UNL     1       3.110   3.897  -2.326 -0.10 +0.00    +0.049 C 
ATOM     88  N10 UNL     1       2.667   4.992  -1.805 +0.56 -0.00    -0.393 N 
ATOM     89  H49 UNL     1       2.390   4.823  -0.836 +0.15 +0.00    +0.157 HD
ATOM     90  H10 UNL     1       2.602   5.889  -2.287 -0.55 +0.00    +0.157 HD
BRANCH  87  91
ATOM     91  N11 UNL     1       3.182   2.749  -1.594 -0.03 -0.00    -0.293 NA
ATOM     92  H50 UNL     1       4.106   2.506  -1.258 +0.03 +0.00    +0.125 HD
ATOM     93  H51 UNL     1       2.782   1.923  -2.050 +0.02 +0.00    +0.125 HD
ENDBRANCH  87  91
ENDBRANCH  86  87
ENDBRANCH  85  86
ENDBRANCH  82  85
ENDBRANCH  77  81
ENDBRANCH  72  75
ENDBRANCH  67  71
ENDBRANCH  62  65
ENDBRANCH  57  61
ENDBRANCH  52  55
ENDBRANCH   4  51
TORSDOF 22
TER
