USER    Run = 1
USER    DPF = ligand_504_receptor.dpf
USER  
USER    Estimated Free Energy of Binding    =  +6.78e+005 kcal/mol  [=(1)+(2)+(3)-(4)]
USER    
USER    (1) Final Intermolecular Energy     =  +6.78e+005 kcal/mol
USER        vdW + Hbond + desolv Energy     =  +4.47e+005 kcal/mol
USER        Electrostatic Energy            =  +2.31e+005 kcal/mol
USER    (2) Final Total Internal Energy     =   +0.00 kcal/mol
USER    (3) Torsional Free Energy           =   +1.19 kcal/mol
USER    (4) Unbound System's Energy  [=(2)] =   +0.00 kcal/mol
USER    
USER    
USER    NEWDPF move ligand_504.pdbqt
USER    NEWDPF about 0.000000 0.000000 0.000000
USER    NEWDPF tran0 17.476075 7.510575 3.182159
USER    NEWDPF quaternion0 0.147988 -0.874483 0.448588 0.110217
USER    NEWDPF axisangle0 0.148896 -0.879843 0.451338 167.344301
USER    NEWDPF quat0 0.148896 -0.879843 0.451338 167.344301
USER  keepresnum = 1 
USER  
REMARK  0 active torsions:
REMARK  status: ('A' for Active; 'I' for Inactive)
REMARK       I    between atoms: C2_2  and  O1_58 
REMARK       I    between atoms: C3_3  and  C14_14 
REMARK       I    between atoms: C5_5  and  N1_72 
REMARK       I    between atoms: C8_8  and  C9_9 
REMARK       I    between atoms: C8_8  and  N1_72 
REMARK       I    between atoms: C9_9  and  C10_10 
REMARK       I    between atoms: C9_9  and  N4_75 
REMARK       I    between atoms: C10_10  and  C11_11 
REMARK       I    between atoms: C11_11  and  C12_12 
REMARK       I    between atoms: C12_12  and  N2_73 
REMARK       I    between atoms: C13_13  and  N2_73 
REMARK       I    between atoms: C13_13  and  N3_74 
REMARK       I    between atoms: C14_14  and  N5_76 
REMARK       I    between atoms: C15_15  and  C16_16 
REMARK       I    between atoms: C15_15  and  C20_20 
REMARK       I    between atoms: C15_15  and  N5_76 
REMARK       I    between atoms: C16_16  and  C17_17 
REMARK       I    between atoms: C17_17  and  C18_18 
REMARK       I    between atoms: C18_18  and  N6_77 
REMARK       I    between atoms: C19_19  and  N7_79 
REMARK       I    between atoms: C19_19  and  N8_80 
REMARK       I    between atoms: C20_20  and  N9_81 
REMARK       I    between atoms: C21_21  and  N9_81 
REMARK       I    between atoms: C23_23  and  C29_29 
REMARK       I    between atoms: C24_24  and  O5_62 
REMARK       I    between atoms: C27_27  and  C28_28 
REMARK       I    between atoms: C27_27  and  O5_62 
REMARK       I    between atoms: C28_28  and  O7_64 
REMARK       I    between atoms: C29_29  and  N10_82 
REMARK       I    between atoms: C30_30  and  C31_31 
REMARK       I    between atoms: C30_30  and  C35_35 
REMARK       I    between atoms: C30_30  and  N10_82 
REMARK       I    between atoms: C31_31  and  C32_32 
REMARK       I    between atoms: C32_32  and  C33_33 
REMARK       I    between atoms: C33_33  and  N11_83 
REMARK       I    between atoms: C34_34  and  N12_85 
REMARK       I    between atoms: C34_34  and  N13_86 
REMARK       I    between atoms: C35_35  and  N14_87 
REMARK       I    between atoms: C36_36  and  N14_87 
REMARK       I    between atoms: C38_38  and  C43_43 
REMARK       I    between atoms: C39_39  and  O10_67 
REMARK       I    between atoms: C43_43  and  N15_88 
REMARK       I    between atoms: C44_44  and  C45_45 
REMARK       I    between atoms: C44_44  and  C49_49 
REMARK       I    between atoms: C44_44  and  N15_88 
REMARK       I    between atoms: C45_45  and  C46_46 
REMARK       I    between atoms: C46_46  and  C47_47 
REMARK       I    between atoms: C47_47  and  N16_89 
REMARK       I    between atoms: C48_48  and  N17_91 
REMARK       I    between atoms: C48_48  and  N18_92 
REMARK       I    between atoms: C49_49  and  N19_93 
REMARK       I    between atoms: C50_50  and  N19_93 
REMARK       I    between atoms: C52_52  and  C57_57 
REMARK       I    between atoms: C53_53  and  O13_70 
REMARK       I    between atoms: C57_57  and  N20_94 
USER                              x       y       z     vdW  Elec       q    Type
USER                           _______ _______ _______ _____ _____    ______ ____
ROOT
ATOM      1  C1  UNL     1      11.889   6.596   2.213 -0.28 +0.00    +0.210 C 
ATOM      2  C2  UNL     1      10.041   5.219   2.873 -0.07 +0.00    +0.084 A 
ATOM      3  C3  UNL     1       9.345   4.523   3.883 -0.23 +0.00    +0.067 A 
ATOM      4  C4  UNL     1       8.090   3.953   3.593 -0.23 +0.00    +0.049 A 
ATOM      5  C5  UNL     1       7.518   4.056   2.323 -0.14 +0.00    +0.035 A 
ATOM      6  C6  UNL     1       8.216   4.734   1.329 -0.12 +0.00    +0.032 A 
ATOM      7  C7  UNL     1       9.463   5.310   1.600 -0.14 +0.00    +0.040 A 
ATOM      8  C8  UNL     1       5.466   3.477   0.998 -0.05 +0.00    +0.255 C 
ATOM      9  C9  UNL     1       4.193   2.618   1.178 -0.05 +0.00    +0.309 C 
ATOM     10  C10 UNL     1       4.475   1.137   0.898 -0.16 +0.00    +0.047 C 
ATOM     11  C11 UNL     1       4.915   0.818  -0.539 -0.10 +0.00    +0.033 C 
ATOM     12  C12 UNL     1       3.870   1.197  -1.592 -0.07 +0.00    +0.272 C 
ATOM     13  C13 UNL     1       3.358   1.037  -3.941 +0.04 +0.00    +0.534 C 
ATOM     14  C14 UNL     1       9.838   4.341   5.291 -0.26 +0.00    +0.255 C 
ATOM     15  C15 UNL     1      11.764   4.536   6.870 -0.39 +0.00    +0.177 C 
ATOM     16  C16 UNL     1      11.156   5.457   7.953 -0.31 +0.00    +0.036 C 
ATOM     17  C17 UNL     1      10.768   4.717   9.244 +3.06 +0.00    +0.022 C 
ATOM     18  C18 UNL     1      11.925   4.547  10.227 +8.32 +0.00    +0.121 C 
ATOM     19  C19 UNL     1      13.221   2.633   9.646 +4.77 +0.00    +0.121 C 
ATOM     20  C20 UNL     1      13.273   4.790   6.621 -0.42 +0.00    +0.245 C 
ATOM     21  C21 UNL     1      14.760   6.661   5.845 -0.26 +0.00    +0.035 A 
ATOM     22  C22 UNL     1      14.744   7.941   5.289 +0.34 +0.00    +0.049 A 
ATOM     23  C23 UNL     1      15.931   8.604   4.908 +2.09 +0.00    +0.067 A 
ATOM     24  C24 UNL     1      17.170   7.965   5.107 +2.81 +0.00    +0.085 A 
ATOM     25  C25 UNL     1      17.177   6.686   5.679+60.10 +0.00    +0.040 A 
ATOM     26  C26 UNL     1      15.987   6.040   6.039+99.99 +0.00    +0.032 A 
ATOM     27  C27 UNL     1      19.576   8.091   5.076 +6.72 +0.00    +0.285 C 
ATOM     28  C28 UNL     1      20.062   6.910   4.242+20.36 +0.00    +0.164 C 
ATOM     29  C29 UNL     1      15.741   9.980   4.343 +4.07 +0.00    +0.255 C 
ATOM     30  C30 UNL     1      16.730  12.169   3.761 +5.62 +0.00    +0.177 C 
ATOM     31  C31 UNL     1      16.268  12.465   2.325 +2.42 +0.00    +0.036 C 
ATOM     32  C32 UNL     1      17.196  12.123   1.152 -0.65 +0.00    +0.022 C 
ATOM     33  C33 UNL     1      17.583  10.648   1.029 -0.47 +0.00    +0.121 C 
ATOM     34  C34 UNL     1      19.390   9.250   1.557 +1.56 +0.00    +0.121 C 
ATOM     35  C35 UNL     1      17.989  12.961   4.166+99.99 +0.00    +0.245 C 
ATOM     36  C36 UNL     1      20.471  12.907   3.912+99.99 +0.00    +0.035 A 
ATOM     37  C37 UNL     1      21.476  12.416   3.079+32.33 +0.00    +0.049 A 
ATOM     38  C38 UNL     1      22.824  12.731   3.291+99.99 +0.00    +0.067 A 
ATOM     39  C39 UNL     1      23.161  13.575   4.353+20.32 +0.00    +0.084 A 
ATOM     40  C40 UNL     1      22.156  14.125   5.155+99.99 +0.00    +0.040 A 
ATOM     41  C41 UNL     1      20.816  13.782   4.941+99.99 +0.00    +0.032 A 
ATOM     42  C42 UNL     1      24.952  13.192   5.744+99.99 +0.00    +0.210 C 
ATOM     43  C43 UNL     1      23.809  12.078   2.385+99.99 +0.00    +0.255 C 
ATOM     44  C44 UNL     1      26.184  12.076   1.611+99.99 +0.00    +0.177 C 
ATOM     45  C45 UNL     1      25.918  11.540   0.187+99.99 +0.00    +0.036 C 
ATOM     46  C46 UNL     1      26.658  12.326  -0.907+99.99 +0.00    +0.022 C 
ATOM     47  C47 UNL     1      28.081  11.843  -1.187+99.99 +0.00    +0.121 C 
ATOM     48  C48 UNL     1      30.153  12.114  -0.095+99.99 +0.00    +0.121 C 
ATOM     49  C49 UNL     1      26.766  11.025   2.605+99.99 +0.00    +0.245 C 
ATOM     50  C50 UNL     1      28.657   9.379   2.754+99.99 +0.00    +0.035 A 
ATOM     51  C51 UNL     1      28.319   8.793   3.976+99.99 +0.00    +0.049 A 
ATOM     52  C52 UNL     1      29.104   7.761   4.521+99.99 +0.00    +0.067 A 
ATOM     53  C53 UNL     1      30.249   7.333   3.840+76.76 +0.00    +0.084 A 
ATOM     54  C54 UNL     1      30.583   7.902   2.611 +0.49 +0.00    +0.040 A 
ATOM     55  C55 UNL     1      29.793   8.922   2.077+21.33 +0.00    +0.032 A 
ATOM     56  C56 UNL     1      32.169   6.755   4.961+99.99 +0.00    +0.210 C 
ATOM     57  C57 UNL     1      28.719   7.164   5.826+99.99 +0.00    +0.252 C 
ATOM     58  O1  UNL     1      11.260   5.767   3.187 -0.14 -0.00    -0.355 OA
ATOM     59  O2  UNL     1       5.696   4.061  -0.055 -0.09 -0.00    -0.271 OA
ATOM     60  O3  UNL     1       9.116   3.831   6.142 -0.28 -0.00    -0.268 OA
ATOM     61  O4  UNL     1      14.112   3.897   6.722 -0.28 -0.00    -0.271 OA
ATOM     62  O5  UNL     1      18.305   8.623   4.712 +0.06 -0.00    -0.340 OA
ATOM     63  O6  UNL     1      19.505   6.390   3.285+22.38 -0.00    -0.648 OA
ATOM     64  O7  UNL     1      21.242   6.426   4.687+99.99 -0.00    -0.775 OA
ATOM     65  O8  UNL     1      14.602  10.405   4.163+58.14 -0.00    -0.268 OA
ATOM     66  O9  UNL     1      17.895  14.005   4.810+99.99 -0.00    -0.271 OA
ATOM     67  O10 UNL     1      24.467  13.912   4.603+39.79 -0.00    -0.355 OA
ATOM     68  O11 UNL     1      23.510  11.016   1.845+40.62 -0.00    -0.268 OA
ATOM     69  O12 UNL     1      26.274  10.840   3.719 +2.86 -0.00    -0.271 OA
ATOM     70  O13 UNL     1      31.001   6.281   4.289+50.63 -0.00    -0.355 OA
ATOM     71  O14 UNL     1      29.535   6.875   6.688+99.99 -0.00    -0.268 OA
ATOM     72  N1  UNL     1       6.267   3.452   2.127 -0.02 -0.00    -0.325 N 
ATOM     73  N2  UNL     1       4.301   0.711  -2.904 -0.08 +0.00    +0.111 N 
ATOM     74  N3  UNL     1       2.374  -0.015  -3.931 -0.04 +0.00    +0.106 N 
ATOM     75  N4  UNL     1       3.716   2.747   2.583 -0.08 +0.00    +0.092 N 
ATOM     76  N5  UNL     1      11.116   4.759   5.570 -0.14 -0.00    -0.344 N 
ATOM     77  N6  UNL     1      13.036   3.892   9.567 +6.27 -0.00    -0.372 N 
ATOM     78  H6  UNL     1      13.690   4.454   9.022 +0.19 +0.00    +0.161 HD
ATOM     79  N7  UNL     1      14.222   2.070   8.933+99.99 -0.00    -0.279 NA
ATOM     80  N8  UNL     1      12.535   1.682  10.314+99.99 -0.00    -0.279 NA
ATOM     81  N9  UNL     1      13.523   6.087   6.183 -0.23 -0.00    -0.325 N 
ATOM     82  N10 UNL     1      16.851  10.743   4.061 +0.06 -0.00    -0.344 N 
ATOM     83  N11 UNL     1      18.910  10.440   1.625 -0.16 -0.00    -0.372 N 
ATOM     84  H11 UNL     1      19.424  11.201   2.070 +0.13 +0.00    +0.161 HD
ATOM     85  N12 UNL     1      18.813   8.111   1.107+99.99 -0.00    -0.279 NA
ATOM     86  N13 UNL     1      20.653   8.970   1.955 +1.04 -0.00    -0.279 NA
ATOM     87  N14 UNL     1      19.167  12.441   3.665+47.45 -0.00    -0.325 N 
ATOM     88  N15 UNL     1      25.014  12.725   2.212+20.20 -0.00    -0.344 N 
ATOM     89  N16 UNL     1      28.888  11.953   0.026+33.39 -0.00    -0.372 N 
ATOM     90  H16 UNL     1      28.454  11.903   0.947+99.99 +0.00    +0.161 HD
ATOM     91  N17 UNL     1      30.927  12.160  -1.199+28.65 -0.00    -0.279 NA
ATOM     92  N18 UNL     1      30.920  12.248   1.007+28.25 -0.00    -0.279 NA
ATOM     93  N19 UNL     1      27.913  10.406   2.138+99.99 -0.00    -0.325 N 
ATOM     94  N20 UNL     1      27.381   6.959   6.028+18.22 -0.00    -0.366 N 
ATOM     95  H54 UNL     1      21.455   5.690   4.075 +4.86 +0.00    +0.167 HD
ATOM     96  H55 UNL     1       5.825   2.990   2.922 +0.07 +0.00    +0.169 HD
ATOM     97  H56 UNL     1       4.390  -0.301  -2.868 +0.07 +0.00    +0.318 HD
ATOM     98  H57 UNL     1       2.802  -0.860  -4.300 +0.06 +0.00    +0.315 HD
ATOM     99  H58 UNL     1       1.640   0.227  -4.595+99.99+99.99    +0.315 HD
ATOM    100  H59 UNL     1       2.865   2.193   2.688 +0.09 +0.00    +0.313 HD
ATOM    101  H60 UNL     1       3.424   3.717   2.729 +0.08 +0.00    +0.313 HD
ATOM    102  H61 UNL     1      11.690   5.032   4.777 +0.10 +0.00    +0.163 HD
ATOM    103  H62 UNL     1      14.550   2.758   8.247+21.16 +0.00    +0.126 HD
ATOM    104  H63 UNL     1      13.904   1.253   8.427 +1.30 +0.00    +0.126 HD
ATOM    105  H64 UNL     1      11.923   2.033  11.037+99.99+99.99    +0.126 HD
ATOM    106  H65 UNL     1      13.145   0.959  10.674 +0.37 +0.00    +0.126 HD
ATOM    107  H66 UNL     1      12.700   6.668   6.051 +0.13 +0.00    +0.169 HD
ATOM    108  H67 UNL     1      17.772  10.339   4.202 +0.11 +0.00    +0.163 HD
ATOM    109  H68 UNL     1      19.043   7.311   1.703+12.68 +0.00    +0.126 HD
ATOM    110  H69 UNL     1      17.807   8.160   1.005 +0.08 +0.00    +0.126 HD
ATOM    111  H70 UNL     1      21.095   8.293   1.343 +0.83 +0.00    +0.126 HD
ATOM    112  H71 UNL     1      21.251   9.790   2.009 +0.09 +0.00    +0.126 HD
ATOM    113  H72 UNL     1      19.076  11.706   2.955 +0.14 +0.00    +0.169 HD
ATOM    114  H73 UNL     1      25.211  13.458   2.889 +0.20 +0.00    +0.163 HD
ATOM    115  H74 UNL     1      30.498  11.807  -2.045+22.63 +0.00    +0.126 HD
ATOM    116  H75 UNL     1      31.843  11.749  -1.060 -0.35 +0.00    +0.126 HD
ATOM    117  H76 UNL     1      30.354  12.388   1.840 +1.97 +0.00    +0.126 HD
ATOM    118  H77 UNL     1      31.602  12.993   0.921 +1.38 +0.00    +0.126 HD
ATOM    119  H78 UNL     1      28.291  10.778   1.263+99.99 +0.00    +0.169 HD
ATOM    120  H79 UNL     1      27.112   6.489   6.882 -0.19 +0.00    +0.159 HD
ATOM    121  H80 UNL     1      26.691   7.062   5.297 -0.27 +0.00    +0.159 HD
ENDROOT
TORSDOF 41
TER
