USER    Run = 1
USER    DPF = ligand_275_receptor.dpf
USER  
USER    Estimated Free Energy of Binding    =  +32.47 kcal/mol  [=(1)+(2)+(3)-(4)]
USER    
USER    (1) Final Intermolecular Energy     =  +31.27 kcal/mol
USER        vdW + Hbond + desolv Energy     =  +31.27 kcal/mol
USER        Electrostatic Energy            =   +0.00 kcal/mol
USER    (2) Final Total Internal Energy     =   -1.66 kcal/mol
USER    (3) Torsional Free Energy           =   +1.19 kcal/mol
USER    (4) Unbound System's Energy  [=(2)] =   -1.66 kcal/mol
USER    
USER    
USER    NEWDPF move ligand_275.pdbqt
USER    NEWDPF about 0.000000 0.000000 0.000000
USER    NEWDPF tran0 19.393495 7.541303 2.121551
USER    NEWDPF quaternion0 -0.632265 0.383087 0.667670 -0.087763
USER    NEWDPF axisangle0 -0.634714 0.384571 0.670256 -169.930142
USER    NEWDPF quat0 -0.634714 0.384571 0.670256 -169.930142
USER    NEWDPF dihe0 120.06 -105.00 -108.23 -10.28 17.20 -29.80 -119.47 99.94 59.06 103.15 2.66 76.86 -171.23 -112.17 125.27 178.75 37.77 -142.58 -4.47 -137.74 65.15 -180.00 -161.26 28.36 -180.00 
USER  keepresnum = 1 
USER  
REMARK  25 active torsions:
REMARK  status: ('A' for Active; 'I' for Inactive)
REMARK    1  A    between atoms: C4_4  and  C6_6 
REMARK    2  A    between atoms: C6_6  and  N2_49 
REMARK    3  A    between atoms: C7_7  and  C8_8 
REMARK       I    between atoms: C7_7  and  N2_49 
REMARK    4  A    between atoms: C10_10  and  C11_11 
REMARK    5  A    between atoms: C10_10  and  N3_50 
REMARK    6  A    between atoms: C11_11  and  C12_12 
REMARK    7  A    between atoms: C12_12  and  C13_13 
REMARK    8  A    between atoms: C13_13  and  N6_54 
REMARK    9  A    between atoms: C15_15  and  N9_58 
REMARK   10  A    between atoms: C16_16  and  C17_17 
REMARK       I    between atoms: C16_16  and  N9_58 
REMARK   11  A    between atoms: C17_17  and  C18_18 
REMARK   12  A    between atoms: C20_20  and  C23_23 
REMARK   13  A    between atoms: C25_25  and  C28_28 
REMARK   14  A    between atoms: C28_28  and  C29_29 
REMARK       I    between atoms: C29_29  and  N12_63 
REMARK   15  A    between atoms: C30_30  and  N12_63 
REMARK   16  A    between atoms: C32_32  and  C33_33 
REMARK   17  A    between atoms: C32_32  and  N13_64 
REMARK   18  A    between atoms: C33_33  and  C34_34 
REMARK   19  A    between atoms: C34_34  and  C35_35 
REMARK   20  A    between atoms: C35_35  and  N16_68 
REMARK   21  A    between atoms: C37_37  and  C38_38 
REMARK       I    between atoms: C38_38  and  N19_72 
REMARK   22  A    between atoms: C39_39  and  C40_40 
REMARK   23  A    between atoms: C39_39  and  N19_72 
REMARK   24  A    between atoms: C42_42  and  O5_77 
REMARK   25  A    between atoms: C46_46  and  O5_77 
USER                              x       y       z     vdW  Elec       q    Type
USER                           _______ _______ _______ _____ _____    ______ ____
ROOT
ATOM      1  C23 UNL     1      21.067  10.925   1.824 +0.38 -0.00    -0.021 A 
ATOM      2  C24 UNL     1      19.899  10.911   2.598 -0.05 +0.00    +0.037 A 
ATOM      3  C25 UNL     1      18.814  11.699   2.221 -0.54 +0.00    +0.018 A 
ATOM      4  C26 UNL     1      19.958  12.483   0.375 -0.26 +0.00    +0.089 A 
ATOM      5  C27 UNL     1      21.084  11.740   0.687 +1.33 +0.00    +0.029 A 
ATOM      6  N11 UNL     1      18.826  12.475   1.108 -0.36 -0.00    -0.369 N 
ATOM      7  H11 UNL     1      18.013  13.028   0.837 +0.02 +0.00    +0.165 HD
ENDROOT
BRANCH   1   8
ATOM      8  C20 UNL     1      22.230  10.106   2.192 +0.21 -0.00    -0.010 A 
ATOM      9  C19 UNL     1      22.122   8.737   2.436 -0.20 +0.00    +0.100 A 
ATOM     10  N10 UNL     1      23.155   7.926   2.778 +0.29 -0.00    -0.368 N 
ATOM     11  C18 UNL     1      24.379   8.498   2.896 -0.48 +0.00    +0.017 A 
ATOM     12  H10 UNL     1      23.017   6.928   2.938 +1.52 +0.00    +0.165 HD
ATOM     13  C22 UNL     1      24.597   9.850   2.662 -0.53 +0.00    +0.026 A 
ATOM     14  C21 UNL     1      23.512  10.655   2.311+12.54 +0.00    +0.015 A 
BRANCH  11  15
ATOM     15  C17 UNL     1      25.520   7.577   3.232 -0.31 +0.00    +0.160 C 
BRANCH  15  16
ATOM     16  C16 UNL     1      26.820   8.032   2.600 -0.39 +0.00    +0.228 C 
ATOM     17  N9  UNL     1      27.929   7.413   3.134 +1.01 -0.00    -0.311 N 
ATOM     18  H43 UNL     1      27.797   6.647   3.790 +1.62 +0.00    +0.170 HD
ATOM     19  O2  UNL     1      26.824   8.897   1.728 -0.34 -0.00    -0.273 OA
BRANCH  17  20
ATOM     20  C15 UNL     1      29.229   7.651   2.771 -0.07 +0.00    +0.138 A 
ATOM     21  C14 UNL     1      29.746   8.514   1.837 +1.41 +0.00    +0.157 A 
ATOM     22  N6  UNL     1      31.089   8.313   1.923 -0.16 -0.00    -0.283 N 
ATOM     23  N8  UNL     1      31.392   7.380   2.844 +1.47 -0.00    -0.019 NA
ATOM     24  N7  UNL     1      30.248   6.973   3.380 +2.79 -0.00    -0.268 N 
ATOM     25  H7  UNL     1      30.147   6.276   4.117 +1.82 +0.00    +0.186 HD
BRANCH  22  26
ATOM     26  C13 UNL     1      32.138   8.941   1.148 -0.18 +0.00    +0.146 C 
BRANCH  26  27
ATOM     27  C12 UNL     1      31.966   8.785  -0.367 -0.19 +0.00    +0.023 C 
BRANCH  27  28
ATOM     28  C11 UNL     1      30.601   8.242  -0.819 -0.24 +0.00    +0.023 C 
BRANCH  28  29
ATOM     29  C10 UNL     1      30.521   6.714  -0.895 -0.09 +0.00    +0.146 C 
BRANCH  29  30
ATOM     30  N3  UNL     1      29.185   6.187  -1.033 -0.07 -0.00    -0.284 N 
ATOM     31  C9  UNL     1      28.126   6.361  -0.196 -0.19 +0.00    +0.144 A 
ATOM     32  C8  UNL     1      27.096   5.680  -0.812 -0.25 +0.00    +0.130 A 
ATOM     33  N5  UNL     1      27.570   5.129  -1.982 -0.13 -0.00    -0.278 N 
ATOM     34  N4  UNL     1      28.854   5.440  -2.098 -0.21 -0.00    -0.020 NA
ATOM     35  H5  UNL     1      27.027   4.576  -2.645 +0.10 +0.00    +0.184 HD
BRANCH  32  36
ATOM     36  C7  UNL     1      25.721   5.549  -0.356 -0.30 +0.00    +0.271 C 
ATOM     37  N2  UNL     1      24.810   5.416  -1.376 -0.24 -0.00    -0.350 N 
ATOM     38  H42 UNL     1      25.140   5.582  -2.320 +0.10 +0.00    +0.163 HD
ATOM     39  O1  UNL     1      25.413   5.576   0.832 -0.30 -0.00    -0.266 OA
BRANCH  37  40
ATOM     40  C6  UNL     1      23.386   5.489  -1.141 +1.99 +0.00    +0.179 C 
BRANCH  40  41
ATOM     41  C4  UNL     1      22.926   6.918  -0.975 -0.50 +0.00    +0.026 A 
ATOM     42  C5  UNL     1      21.582   7.251  -1.137 +3.98 +0.00    +0.027 A 
ATOM     43  C1  UNL     1      21.186   8.570  -0.938 +3.14 +0.00    +0.003 A 
ATOM     44  C2  UNL     1      22.136   9.517  -0.575 +0.53 +0.00    +0.017 A 
ATOM     45  C3  UNL     1      23.448   9.104  -0.421 -0.24 +0.00    +0.088 A 
ATOM     46  N1  UNL     1      23.862   7.831  -0.609 -0.21 -0.00    -0.368 N 
ATOM     47  H1  UNL     1      24.839   7.567  -0.481 +0.12 +0.00    +0.165 HD
ENDBRANCH  40  41
ENDBRANCH  37  40
ENDBRANCH  32  36
ENDBRANCH  29  30
ENDBRANCH  28  29
ENDBRANCH  27  28
ENDBRANCH  26  27
ENDBRANCH  22  26
ENDBRANCH  17  20
ENDBRANCH  15  16
ENDBRANCH  11  15
ENDBRANCH   1   8
BRANCH   3  48
ATOM     48  C28 UNL     1      17.534  11.680   3.009 -0.25 +0.00    +0.160 C 
BRANCH  48  49
ATOM     49  C29 UNL     1      16.823  10.346   2.901 -0.35 +0.00    +0.228 C 
ATOM     50  N12 UNL     1      16.237   9.945   4.082 -0.01 -0.00    -0.311 N 
ATOM     51  H44 UNL     1      16.232  10.587   4.871 +0.25 +0.00    +0.170 HD
ATOM     52  O3  UNL     1      16.837   9.710   1.849 -0.28 -0.00    -0.273 OA
BRANCH  50  53
ATOM     53  C30 UNL     1      15.558   8.771   4.275 -0.30 +0.00    +0.138 A 
ATOM     54  C31 UNL     1      14.900   8.300   5.383 +2.53 +0.00    +0.157 A 
ATOM     55  N13 UNL     1      14.421   7.090   4.988 -0.29 -0.00    -0.281 N 
ATOM     56  N14 UNL     1      14.748   6.826   3.708 -0.03 -0.00    -0.019 NA
ATOM     57  N15 UNL     1      15.458   7.854   3.264 -0.27 -0.00    -0.268 N 
ATOM     58  H15 UNL     1      15.859   7.945   2.331 -0.20 +0.00    +0.186 HD
BRANCH  55  59
ATOM     59  C32 UNL     1      13.631   6.149   5.748 -0.39 +0.00    +0.183 C 
BRANCH  59  60
ATOM     60  C33 UNL     1      12.311   5.792   5.073 -0.26 +0.00    +0.191 C 
ATOM     61  F4  UNL     1      12.446   4.559   4.494 +2.69 -0.00    -0.248 F 
BRANCH  60  62
ATOM     62  C34 UNL     1      11.805   6.746   3.985 -0.38 +0.00    +0.060 C 
BRANCH  62  63
ATOM     63  C35 UNL     1      11.593   6.125   2.607 -0.16 +0.00    +0.148 C 
BRANCH  63  64
ATOM     64  N16 UNL     1      10.598   5.077   2.605 +0.60 -0.00    -0.284 N 
ATOM     65  C36 UNL     1       9.776   4.693   1.589 +0.92 +0.00    +0.144 A 
ATOM     66  C37 UNL     1       9.057   3.634   2.117 +0.03 +0.00    +0.130 A 
ATOM     67  N17 UNL     1       9.482   3.430   3.413 -0.16 -0.00    -0.278 N 
ATOM     68  N18 UNL     1      10.414   4.326   3.700 -0.16 -0.00    -0.020 NA
ATOM     69  H17 UNL     1       9.135   2.709   4.047 -0.33 +0.00    +0.184 HD
BRANCH  66  70
ATOM     70  C38 UNL     1       8.024   2.807   1.498 -0.12 +0.00    +0.271 C 
ATOM     71  N19 UNL     1       8.472   1.623   0.938 -0.11 -0.00    -0.351 N 
ATOM     72  H45 UNL     1       9.463   1.467   0.847 +0.04 +0.00    +0.163 HD
ATOM     73  O4  UNL     1       6.843   3.138   1.468 -0.06 -0.00    -0.266 OA
BRANCH  71  74
ATOM     74  C39 UNL     1       7.594   0.774   0.168 -0.12 +0.00    +0.161 C 
BRANCH  74  75
ATOM     75  C40 UNL     1       6.153   1.116   0.445 -0.00 -0.00    -0.038 A 
ATOM     76  C41 UNL     1       5.626   0.956   1.737 +0.19 +0.00    +0.045 A 
ATOM     77  C42 UNL     1       4.298   1.288   2.025 -0.18 +0.00    +0.078 A 
ATOM     78  C43 UNL     1       3.488   1.791   1.005 -0.13 +0.00    +0.037 A 
ATOM     79  C44 UNL     1       4.003   1.959  -0.283 -0.11 +0.00    +0.003 A 
ATOM     80  C45 UNL     1       5.328   1.628  -0.562 -0.13 +0.00    +0.009 A 
BRANCH  77  81
ATOM     81  O5  UNL     1       3.932   1.075   3.322 -0.19 -0.00    -0.255 OA
BRANCH  81  82
ATOM     82  C46 UNL     1       4.403   1.984   4.300 -0.08 +0.00    +0.530 C 
ATOM     83  F1  UNL     1       3.989   1.632   5.536 -0.15 -0.00    -0.144 F 
ATOM     84  F2  UNL     1       3.997   3.245   4.032 -0.03 -0.00    -0.144 F 
ATOM     85  F3  UNL     1       5.755   1.970   4.293 -0.03 -0.00    -0.144 F 
ENDBRANCH  81  82
ENDBRANCH  77  81
ENDBRANCH  74  75
ENDBRANCH  71  74
ENDBRANCH  66  70
ENDBRANCH  63  64
ENDBRANCH  62  63
ENDBRANCH  60  62
ENDBRANCH  59  60
ENDBRANCH  55  59
ENDBRANCH  50  53
ENDBRANCH  48  49
ENDBRANCH   3  48
TORSDOF 25
TER
