USER    Run = 1
USER    DPF = ligand_82_receptor.dpf
USER  
USER    Estimated Free Energy of Binding    =  +2.00e+003 kcal/mol  [=(1)+(2)+(3)-(4)]
USER    
USER    (1) Final Intermolecular Energy     =  +2.00e+003 kcal/mol
USER        vdW + Hbond + desolv Energy     =  +2.00e+003 kcal/mol
USER        Electrostatic Energy            =   +0.00 kcal/mol
USER    (2) Final Total Internal Energy     = +726.23 kcal/mol
USER    (3) Torsional Free Energy           =   +1.19 kcal/mol
USER    (4) Unbound System's Energy  [=(2)] = +726.23 kcal/mol
USER    
USER    
USER    NEWDPF move ligand_82.pdbqt
USER    NEWDPF about 0.000000 0.000000 0.000000
USER    NEWDPF tran0 22.543227 9.489076 3.742661
USER    NEWDPF quaternion0 0.278856 -0.945742 0.023990 0.165034
USER    NEWDPF axisangle0 0.282733 -0.958890 0.024324 161.001584
USER    NEWDPF quat0 0.282733 -0.958890 0.024324 161.001584
USER    NEWDPF dihe0 108.25 92.32 151.60 67.06 51.50 180.00 -106.61 -92.33 -158.63 45.90 152.38 -79.73 101.49 -179.91 5.99 -169.30 -180.00 8.83 -160.77 -119.16 31.18 180.00 26.97 -77.65 89.65 -49.06 163.68 143.43 120.60 -180.00 -113.28 180.00 
USER  keepresnum = 1 
USER  
REMARK  32 active torsions:
REMARK  status: ('A' for Active; 'I' for Inactive)
REMARK    1  A    between atoms: C3_3  and  N11_73 
REMARK    2  A    between atoms: C5_5  and  C6_6 
REMARK       I    between atoms: C6_6  and  N2_64 
REMARK    3  A    between atoms: C7_7  and  C8_8 
REMARK    4  A    between atoms: C7_7  and  N2_64 
REMARK    5  A    between atoms: C8_8  and  C9_9 
REMARK       I    between atoms: C9_9  and  N3_65 
REMARK    6  A    between atoms: C10_10  and  N3_65 
REMARK    7  A    between atoms: C12_12  and  C14_14 
REMARK       I    between atoms: C14_14  and  N5_67 
REMARK    8  A    between atoms: C15_15  and  N5_67 
REMARK    9  A    between atoms: C17_17  and  C19_19 
REMARK       I    between atoms: C19_19  and  N7_69 
REMARK   10  A    between atoms: C20_20  and  C21_21 
REMARK   11  A    between atoms: C20_20  and  N7_69 
REMARK   12  A    between atoms: C21_21  and  C22_22 
REMARK       I    between atoms: C22_22  and  N8_70 
REMARK   13  A    between atoms: C23_23  and  C24_24 
REMARK   14  A    between atoms: C23_23  and  N8_70 
REMARK   15  A    between atoms: C24_24  and  C25_25 
REMARK   16  A    between atoms: C25_25  and  N9_71 
REMARK   17  A    between atoms: C27_27  and  C28_28 
REMARK   18  A    between atoms: C27_27  and  N9_71 
REMARK   19  A    between atoms: C28_28  and  C29_29 
REMARK   20  A    between atoms: C29_29  and  N10_72 
REMARK   21  A    between atoms: C32_32  and  C33_33 
REMARK       I    between atoms: C32_32  and  N11_73 
REMARK   22  A    between atoms: C33_33  and  C34_34 
REMARK   23  A    between atoms: C34_34  and  C35_35 
REMARK   24  A    between atoms: C35_35  and  N12_74 
REMARK   25  A    between atoms: C36_36  and  C37_37 
REMARK       I    between atoms: C36_36  and  N12_74 
REMARK   26  A    between atoms: C38_38  and  N15_78 
REMARK   27  A    between atoms: C41_41  and  C42_42 
REMARK       I    between atoms: C41_41  and  N15_78 
REMARK   28  A    between atoms: C44_44  and  N17_80 
REMARK   29  A    between atoms: C47_47  and  C48_48 
REMARK       I    between atoms: C47_47  and  N17_80 
REMARK   30  A    between atoms: C49_49  and  N20_84 
REMARK   31  A    between atoms: C52_52  and  C53_53 
REMARK       I    between atoms: C52_52  and  N20_84 
REMARK   32  A    between atoms: C55_55  and  N22_86 
REMARK       I    between atoms: C58_58  and  N22_86 
REMARK       I    between atoms: C58_58  and  N23_88 
REMARK       I    between atoms: C58_58  and  N24_89 
USER                              x       y       z     vdW  Elec       q    Type
USER                           _______ _______ _______ _____ _____    ______ ____
ROOT
ATOM      1  C32 UNL     1      25.308   9.167  -0.709+31.11 +0.00    +0.222 C 
ATOM      2  N11 UNL     1      24.565  10.234  -0.227+99.99 -0.00    -0.326 N 
ATOM      3  O6  UNL     1      24.875   8.185  -1.303 +0.56 -0.00    -0.273 OA
ATOM      4  H82 UNL     1      25.049  10.988   0.244+19.76 +0.00    +0.169 HD
ENDROOT
BRANCH   1   5
ATOM      5  C33 UNL     1      26.785   9.336  -0.387+20.73 +0.00    +0.105 C 
BRANCH   5   6
ATOM      6  C34 UNL     1      27.052  10.559   0.491+37.98 +0.00    +0.029 C 
BRANCH   6   7
ATOM      7  C35 UNL     1      25.766  11.243   0.948+37.21 +0.00    +0.123 C 
BRANCH   7   8
ATOM      8  N12 UNL     1      24.905  10.369   1.708 -0.08 -0.00    -0.354 N 
ATOM      9  C36 UNL     1      25.259   9.826   2.924 -0.42 +0.00    +0.285 C 
ATOM     10  O7  UNL     1      26.360  10.002   3.439 -0.76 -0.00    -0.264 OA
ATOM     11  H83 UNL     1      23.961  10.165   1.394 +0.14 +0.00    +0.162 HD
BRANCH   9  12
ATOM     12  C37 UNL     1      24.190   9.040   3.520 -0.43 +0.00    +0.178 A 
ATOM     13  N13 UNL     1      22.944   9.487   3.641 -0.27 -0.00    -0.323 N 
ATOM     14  C38 UNL     1      22.246   8.475   4.242+27.28 +0.00    +0.125 A 
ATOM     15  H13 UNL     1      22.584  10.395   3.348 +0.13 +0.00    +0.169 HD
ATOM     16  C39 UNL     1      23.059   7.401   4.495+99.99 +0.00    +0.140 A 
ATOM     17  N14 UNL     1      24.292   7.769   4.034 +2.01 -0.00    -0.339 N 
ATOM     18  C40 UNL     1      25.485   6.959   4.085 +2.34 +0.00    +0.157 C 
BRANCH  14  19
ATOM     19  N15 UNL     1      20.913   8.657   4.491 +9.14 -0.00    -0.306 N 
ATOM     20  C41 UNL     1      20.176   9.776   4.172+92.24 +0.00    +0.274 C 
ATOM     21  O8  UNL     1      20.635  10.757   3.593 +5.66 -0.00    -0.266 OA
ATOM     22  H84 UNL     1      20.471   7.865   4.927 +4.53 +0.00    +0.170 HD
BRANCH  20  23
ATOM     23  C42 UNL     1      18.771   9.699   4.570+23.45 +0.00    +0.105 A 
ATOM     24  C43 UNL     1      17.625   9.553   3.792 -0.41 +0.00    +0.066 A 
ATOM     25  C44 UNL     1      16.491   9.529   4.640 +0.15 +0.00    +0.053 A 
ATOM     26  C45 UNL     1      16.955   9.654   5.923+99.99 +0.00    +0.120 A 
ATOM     27  N16 UNL     1      18.323   9.748   5.881+25.81 -0.00    -0.354 N 
ATOM     28  C46 UNL     1      19.154   9.893   7.060+99.99 +0.00    +0.156 C 
BRANCH  25  29
ATOM     29  N17 UNL     1      15.188   9.401   4.212 +0.27 -0.00    -0.319 N 
ATOM     30  C47 UNL     1      14.045   9.541   4.976+10.12 +0.00    +0.290 C 
ATOM     31  O9  UNL     1      14.002   9.806   6.174 +2.27 -0.00    -0.264 OA
ATOM     32  H85 UNL     1      15.022   9.180   3.231 +0.04 +0.00    +0.169 HD
BRANCH  30  33
ATOM     33  C48 UNL     1      12.851   9.332   4.168+11.65 +0.00    +0.178 A 
ATOM     34  N18 UNL     1      11.637   9.619   4.613+34.27 -0.00    -0.323 N 
ATOM     35  C49 UNL     1      10.778   9.297   3.607 +1.60 +0.00    +0.125 A 
ATOM     36  H18 UNL     1      11.394  10.004   5.525+21.83 +0.00    +0.169 HD
ATOM     37  C50 UNL     1      11.462   8.810   2.519+41.97 +0.00    +0.140 A 
ATOM     38  N19 UNL     1      12.781   8.835   2.889 +2.25 -0.00    -0.339 N 
ATOM     39  C51 UNL     1      13.895   8.410   2.077+63.16 +0.00    +0.157 C 
BRANCH  35  40
ATOM     40  N20 UNL     1       9.418   9.449   3.671 +1.57 -0.00    -0.306 N 
ATOM     41  C52 UNL     1       8.546   9.179   2.635+47.75 +0.00    +0.274 C 
ATOM     42  O10 UNL     1       8.874   8.812   1.512+16.64 -0.00    -0.266 OA
ATOM     43  H86 UNL     1       9.049   9.835   4.525 -0.36 +0.00    +0.170 HD
BRANCH  41  44
ATOM     44  C53 UNL     1       7.145   9.396   2.990+16.94 +0.00    +0.105 A 
ATOM     45  C54 UNL     1       6.591  10.235   3.954+99.99 +0.00    +0.066 A 
ATOM     46  C55 UNL     1       5.197  10.059   3.928+99.99 +0.00    +0.067 A 
ATOM     47  C56 UNL     1       4.888   9.182   2.926+10.40 +0.00    +0.121 A 
ATOM     48  N21 UNL     1       6.073   8.749   2.387 +1.05 -0.00    -0.354 N 
ATOM     49  C57 UNL     1       6.163   7.792   1.303 -0.16 +0.00    +0.156 C 
BRANCH  46  50
ATOM     50  N22 UNL     1       4.277  10.767   4.687 +0.81 -0.00    -0.191 N 
ATOM     51  C58 UNL     1       3.650  11.765   4.125 +8.94 +0.00    +0.677 C 
ATOM     52  N23 UNL     1       2.659  12.431   4.852 +1.73 -0.00    -0.226 N 
ATOM     53  N24 UNL     1       3.796  12.302   2.853 +8.82 -0.00    -0.226 N 
ATOM     54  C59 UNL     1       2.400  11.999   6.225 -0.22 +0.00    +0.168 C 
ATOM     55  C60 UNL     1       2.380  13.844   4.609+16.72 +0.00    +0.168 C 
ATOM     56  C61 UNL     1       5.113  12.667   2.349+70.14 +0.00    +0.168 C 
ATOM     57  C62 UNL     1       2.862  11.860   1.822 +2.21 +0.00    +0.168 C 
ATOM     58  H22 UNL     1       4.096  10.516   5.658 +0.09 +0.00    +0.184 HD
ENDBRANCH  46  50
ENDBRANCH  41  44
ENDBRANCH  35  40
ENDBRANCH  30  33
ENDBRANCH  25  29
ENDBRANCH  20  23
ENDBRANCH  14  19
ENDBRANCH   9  12
ENDBRANCH   7   8
ENDBRANCH   6   7
ENDBRANCH   5   6
ENDBRANCH   1   5
BRANCH   2  59
ATOM     59  C3  UNL     1      23.197  10.380  -0.346 +0.67 +0.00    +0.052 A 
ATOM     60  C2  UNL     1      22.500  11.318  -1.067 +2.32 +0.00    +0.120 A 
ATOM     61  N1  UNL     1      21.156  11.108  -0.873 +3.37 -0.00    -0.354 N 
ATOM     62  C1  UNL     1      20.140  12.018  -1.362 +4.84 +0.00    +0.156 C 
ATOM     63  C5  UNL     1      20.965   9.989  -0.086 +0.04 +0.00    +0.104 A 
ATOM     64  C4  UNL     1      22.233   9.561   0.287 -0.43 +0.00    +0.066 A 
BRANCH  63  65
ATOM     65  C6  UNL     1      19.712   9.393   0.338 +3.00 +0.00    +0.268 C 
ATOM     66  N2  UNL     1      19.780   8.672   1.507+28.81 -0.00    -0.355 N 
ATOM     67  H75 UNL     1      20.689   8.507   1.924 +0.25 +0.00    +0.162 HD
ATOM     68  O1  UNL     1      18.658   9.555  -0.269 -0.19 -0.00    -0.266 OA
BRANCH  66  69
ATOM     69  C7  UNL     1      18.706   7.799   1.935+47.41 +0.00    +0.132 C 
BRANCH  69  70
ATOM     70  C8  UNL     1      17.434   8.564   2.279 -0.47 +0.00    +0.123 C 
BRANCH  70  71
ATOM     71  C9  UNL     1      16.717   7.989   3.489 -0.45 +0.00    +0.223 C 
ATOM     72  N3  UNL     1      15.342   8.018   3.330 -0.26 -0.00    -0.326 N 
ATOM     73  H76 UNL     1      14.960   8.392   2.469 -0.16 +0.00    +0.169 HD
ATOM     74  O2  UNL     1      17.329   7.597   4.481 -0.39 -0.00    -0.273 OA
BRANCH  72  75
ATOM     75  C10 UNL     1      14.415   7.591   4.261 -0.46 +0.00    +0.052 A 
ATOM     76  C11 UNL     1      14.506   7.618   5.631 +0.40 +0.00    +0.120 A 
ATOM     77  N4  UNL     1      13.337   7.126   6.155 -0.16 -0.00    -0.354 N 
ATOM     78  C12 UNL     1      12.509   6.702   5.136 -0.32 +0.00    +0.105 A 
ATOM     79  C31 UNL     1      13.021   7.155   7.569 -0.42 +0.00    +0.156 C 
ATOM     80  C13 UNL     1      13.149   7.038   3.950 -0.40 +0.00    +0.066 A 
BRANCH  78  81
ATOM     81  C14 UNL     1      11.196   6.096   5.265 -0.19 +0.00    +0.273 C 
ATOM     82  N5  UNL     1      10.369   6.355   4.190 -0.11 -0.00    -0.320 N 
ATOM     83  H77 UNL     1      10.675   7.029   3.504 +0.10 +0.00    +0.169 HD
ATOM     84  O3  UNL     1      10.879   5.458   6.263 -0.19 -0.00    -0.266 OA
BRANCH  82  85
ATOM     85  C15 UNL     1       9.107   5.825   4.015 -0.21 +0.00    +0.053 A 
ATOM     86  C16 UNL     1       8.545   4.925   4.887 -0.21 +0.00    +0.120 A 
ATOM     87  N6  UNL     1       7.283   4.621   4.438 -0.07 -0.00    -0.354 N 
ATOM     88  C17 UNL     1       7.004   5.324   3.277 -0.14 +0.00    +0.104 A 
ATOM     89  C30 UNL     1       6.391   3.691   5.100 -0.15 +0.00    +0.156 C 
ATOM     90  C18 UNL     1       8.149   6.065   3.004 -0.19 +0.00    +0.066 A 
BRANCH  88  91
ATOM     91  C19 UNL     1       5.738   5.268   2.563 -0.10 +0.00    +0.268 C 
ATOM     92  N7  UNL     1       5.753   5.825   1.304 -0.10 -0.00    -0.355 N 
ATOM     93  H78 UNL     1       6.617   6.196   0.934 +0.07 +0.00    +0.162 HD
ATOM     94  O4  UNL     1       4.710   4.800   3.044 -0.09 -0.00    -0.266 OA
BRANCH  92  95
ATOM     95  C20 UNL     1       4.553   5.982   0.504 +1.71 +0.00    +0.132 C 
BRANCH  95  96
ATOM     96  C21 UNL     1       4.809   6.667  -0.833 +7.44 +0.00    +0.122 C 
BRANCH  96  97
ATOM     97  C22 UNL     1       6.190   7.279  -0.860 +7.08 +0.00    +0.219 C 
ATOM     98  N8  UNL     1       7.210   6.356  -0.811 +1.20 -0.00    -0.361 N 
ATOM     99  H79 UNL     1       6.977   5.371  -0.851 -0.35 +0.00    +0.162 HD
ATOM    100  O5  UNL     1       6.367   8.489  -0.957 -0.27 -0.00    -0.274 OA
BRANCH  98 101
ATOM    101  C23 UNL     1       8.606   6.727  -0.947 -0.25 +0.00    +0.124 C 
BRANCH 101 102
ATOM    102  C24 UNL     1       9.418   6.296   0.273 -0.27 +0.00    +0.050 C 
BRANCH 102 103
ATOM    103  C25 UNL     1       9.987   4.879   0.127 -0.00 +0.00    +0.273 C 
BRANCH 103 104
ATOM    104  N9  UNL     1       9.006   3.886  -0.352 -0.12 +0.00    +0.084 N 
ATOM    105  C26 UNL     1       9.463   3.264  -1.601 -0.07 +0.00    +0.309 C 
BRANCH 104 106
ATOM    106  C27 UNL     1       8.768   2.832   0.657 -0.07 +0.00    +0.273 C 
BRANCH 106 107
ATOM    107  C28 UNL     1       7.312   2.341   0.705 -0.16 +0.00    +0.060 C 
BRANCH 107 108
ATOM    108  C29 UNL     1       6.821   1.980   2.109 -0.17 +0.00    +0.268 C 
BRANCH 108 109
ATOM    109  N10 UNL     1       5.362   1.924   2.181 -0.19 +0.00    +0.078 N 
ATOM    110  H80 UNL     1       4.992   2.873   2.140 +0.10 +0.00    +0.312 HD
ATOM    111  H81 UNL     1       5.080   1.546   3.083 +0.13 +0.00    +0.312 HD
ENDBRANCH 108 109
ENDBRANCH 107 108
ENDBRANCH 106 107
ENDBRANCH 104 106
ENDBRANCH 103 104
ENDBRANCH 102 103
ENDBRANCH 101 102
ENDBRANCH  98 101
ENDBRANCH  96  97
ENDBRANCH  95  96
ENDBRANCH  92  95
ENDBRANCH  88  91
ENDBRANCH  82  85
ENDBRANCH  78  81
ENDBRANCH  72  75
ENDBRANCH  70  71
ENDBRANCH  69  70
ENDBRANCH  66  69
ENDBRANCH  63  65
ENDBRANCH   2  59
TORSDOF 32
TER
