USER    Run = 1
USER    DPF = ligand_17_receptor.dpf
USER  
USER    Estimated Free Energy of Binding    =  +5.94e+004 kcal/mol  [=(1)+(2)+(3)-(4)]
USER    
USER    (1) Final Intermolecular Energy     =  +5.94e+004 kcal/mol
USER        vdW + Hbond + desolv Energy     =  +5.94e+004 kcal/mol
USER        Electrostatic Energy            =   +0.00 kcal/mol
USER    (2) Final Total Internal Energy     =   +0.00 kcal/mol
USER    (3) Torsional Free Energy           =   +1.19 kcal/mol
USER    (4) Unbound System's Energy  [=(2)] =   +0.00 kcal/mol
USER    
USER    
USER    NEWDPF move ligand_17.pdbqt
USER    NEWDPF about 0.000000 0.000000 0.000000
USER    NEWDPF tran0 11.421225 7.820797 3.088391
USER    NEWDPF quaternion0 0.292308 -0.287926 -0.875253 -0.256098
USER    NEWDPF axisangle0 0.302392 -0.297859 -0.905450 -150.322658
USER    NEWDPF quat0 0.302392 -0.297859 -0.905450 -150.322658
USER  keepresnum = 1 
USER  
REMARK  0 active torsions:
REMARK  status: ('A' for Active; 'I' for Inactive)
REMARK       I    between atoms: C2_2  and  C3_3 
REMARK       I    between atoms: C2_2  and  O23_84 
REMARK       I    between atoms: C3_3  and  C4_4 
REMARK       I    between atoms: C3_3  and  N13_99 
REMARK       I    between atoms: C4_4  and  N1_85 
REMARK       I    between atoms: C5_5  and  C6_6 
REMARK       I    between atoms: C5_5  and  C10_10 
REMARK       I    between atoms: C5_5  and  N1_85 
REMARK       I    between atoms: C6_6  and  C7_7 
REMARK       I    between atoms: C7_7  and  C8_8 
REMARK       I    between atoms: C8_8  and  N2_86 
REMARK       I    between atoms: C9_9  and  N3_87 
REMARK       I    between atoms: C9_9  and  N4_89 
REMARK       I    between atoms: C10_10  and  N5_90 
REMARK       I    between atoms: C11_11  and  C12_12 
REMARK       I    between atoms: C11_11  and  C16_16 
REMARK       I    between atoms: C11_11  and  N5_90 
REMARK       I    between atoms: C12_12  and  C13_13 
REMARK       I    between atoms: C13_13  and  C14_14 
REMARK       I    between atoms: C14_14  and  N6_91 
REMARK       I    between atoms: C15_15  and  N7_92 
REMARK       I    between atoms: C15_15  and  N8_94 
REMARK       I    between atoms: C16_16  and  N9_95 
REMARK       I    between atoms: C17_17  and  C18_18 
REMARK       I    between atoms: C17_17  and  N9_95 
REMARK       I    between atoms: C18_18  and  N10_96 
REMARK       I    between atoms: C19_19  and  C20_20 
REMARK       I    between atoms: C19_19  and  C22_22 
REMARK       I    between atoms: C19_19  and  N10_96 
REMARK       I    between atoms: C20_20  and  C21_21 
REMARK       I    between atoms: C21_21  and  O6_67 
REMARK       I    between atoms: C22_22  and  N11_97 
REMARK       I    between atoms: C23_23  and  C24_24 
REMARK       I    between atoms: C23_23  and  C31_31 
REMARK       I    between atoms: C23_23  and  N11_97 
REMARK       I    between atoms: C24_24  and  C25_25 
REMARK       I    between atoms: C28_28  and  O8_69 
REMARK       I    between atoms: C31_31  and  N12_98 
REMARK       I    between atoms: C32_32  and  C33_33 
REMARK       I    between atoms: C32_32  and  N12_98 
REMARK       I    between atoms: C33_33  and  O11_72 
REMARK       I    between atoms: C34_34  and  C35_35 
REMARK       I    between atoms: C34_34  and  N13_99 
REMARK       I    between atoms: C35_35  and  C36_36 
REMARK       I    between atoms: C35_35  and  N14_100 
REMARK       I    between atoms: C36_36  and  C37_37 
REMARK       I    between atoms: C37_37  and  O14_75 
REMARK       I    between atoms: C38_38  and  C39_39 
REMARK       I    between atoms: C38_38  and  N14_100 
REMARK       I    between atoms: C39_39  and  C40_40 
REMARK       I    between atoms: C39_39  and  N15_101 
REMARK       I    between atoms: C40_40  and  O16_77 
REMARK       I    between atoms: C41_41  and  C42_42 
REMARK       I    between atoms: C41_41  and  N15_101 
REMARK       I    between atoms: C42_42  and  C43_43 
REMARK       I    between atoms: C42_42  and  N16_102 
REMARK       I    between atoms: C43_43  and  C44_44 
REMARK       I    between atoms: C47_47  and  O18_79 
REMARK       I    between atoms: C50_50  and  C51_51 
REMARK       I    between atoms: C50_50  and  N16_102 
REMARK       I    between atoms: C51_51  and  N17_103 
REMARK       I    between atoms: C53_53  and  C54_54 
REMARK       I    between atoms: C53_53  and  N17_103 
REMARK       I    between atoms: C54_54  and  C55_55 
REMARK       I    between atoms: C54_54  and  N18_104 
REMARK       I    between atoms: C55_55  and  O21_82 
REMARK       I    between atoms: C56_56  and  C57_57 
REMARK       I    between atoms: C56_56  and  N18_104 
REMARK       I    between atoms: C57_57  and  C58_58 
REMARK       I    between atoms: C57_57  and  N21_108 
REMARK       I    between atoms: C58_58  and  C59_59 
USER                              x       y       z     vdW  Elec       q    Type
USER                           _______ _______ _______ _____ _____    ______ ____
ROOT
ATOM      1  C1  UNL     1      11.028   2.901   5.414 -0.33 +0.00    +0.042 C 
ATOM      2  C2  UNL     1      10.521   4.229   5.968 -0.37 +0.00    +0.146 C 
ATOM      3  C3  UNL     1      11.581   4.932   6.850 -0.33 +0.00    +0.205 C 
ATOM      4  C4  UNL     1      11.071   6.318   7.336 +0.37 +0.00    +0.243 C 
ATOM      5  C5  UNL     1       9.092   7.403   8.510+99.99 +0.00    +0.176 C 
ATOM      6  C6  UNL     1       9.276   8.784   7.865+99.99 +0.00    +0.036 C 
ATOM      7  C7  UNL     1       9.014   8.839   6.357+99.99 +0.00    +0.023 C 
ATOM      8  C8  UNL     1       9.612  10.103   5.740+80.84 +0.00    +0.138 C 
ATOM      9  C9  UNL     1       8.270  10.409   3.714+99.99 +0.00    +0.665 C 
ATOM     10  C10 UNL     1       7.597   7.013   8.564 +3.30 +0.00    +0.241 C 
ATOM     11  C11 UNL     1       5.841   5.748   7.327 -0.32 +0.00    +0.176 C 
ATOM     12  C12 UNL     1       4.645   6.712   7.304 -0.36 +0.00    +0.036 C 
ATOM     13  C13 UNL     1       4.836   8.072   6.620+18.83 +0.00    +0.022 C 
ATOM     14  C14 UNL     1       4.997   7.977   5.108+99.99 +0.00    +0.122 C 
ATOM     15  C15 UNL     1       4.659   9.544   3.220 +9.67 +0.00    +0.143 C 
ATOM     16  C16 UNL     1       5.916   4.703   6.180 -0.31 +0.00    +0.240 C 
ATOM     17  C17 UNL     1       4.988   2.589   5.384 +0.29 +0.00    +0.225 C 
ATOM     18  C18 UNL     1       5.235   2.627   3.871 -0.17 +0.00    +0.236 C 
ATOM     19  C19 UNL     1       4.802   3.936   1.826 -0.09 +0.00    +0.186 C 
ATOM     20  C20 UNL     1       3.566   4.146   0.964 +0.14 +0.00    +0.144 C 
ATOM     21  C21 UNL     1       3.931   4.309  -0.485 -0.13 +0.00    +0.141 C 
ATOM     22  C22 UNL     1       5.511   5.278   2.052 -0.13 +0.00    +0.241 C 
ATOM     23  C23 UNL     1       7.403   6.739   1.396 -0.27 +0.00    +0.180 C 
ATOM     24  C24 UNL     1       8.573   6.409   2.345 -0.27 +0.00    +0.073 C 
ATOM     25  C25 UNL     1       9.362   5.186   1.919 -0.13 -0.00    -0.056 A 
ATOM     26  C26 UNL     1      10.415   5.302   1.003 +0.43 +0.00    +0.010 A 
ATOM     27  C27 UNL     1      11.090   4.166   0.554+99.99 +0.00    +0.037 A 
ATOM     28  C28 UNL     1      10.713   2.913   1.020+99.99 +0.00    +0.065 A 
ATOM     29  C29 UNL     1       9.675   2.775   1.933 +5.97 +0.00    +0.037 A 
ATOM     30  C30 UNL     1       9.004   3.912   2.386 -0.12 +0.00    +0.010 A 
ATOM     31  C31 UNL     1       7.896   7.303   0.047 -0.30 +0.00    +0.241 C 
ATOM     32  C32 UNL     1       7.602   7.093  -2.381+99.99 +0.00    +0.232 C 
ATOM     33  C33 UNL     1       8.394   5.856  -2.797 +1.49 +0.00    +0.158 C 
ATOM     34  C34 UNL     1      14.032   5.246   6.752 -0.31 +0.00    +0.241 C 
ATOM     35  C35 UNL     1      15.189   5.775   5.866+15.15 +0.00    +0.186 C 
ATOM     36  C36 UNL     1      16.109   6.659   6.701 +8.36 +0.00    +0.144 C 
ATOM     37  C37 UNL     1      17.012   5.826   7.564+99.99 +0.00    +0.141 C 
ATOM     38  C38 UNL     1      14.559   5.976   3.452+34.81 +0.00    +0.243 C 
ATOM     39  C39 UNL     1      13.736   6.792   2.433 +9.03 +0.00    +0.200 C 
ATOM     40  C40 UNL     1      14.166   6.479   0.993+99.99 +0.00    +0.199 C 
ATOM     41  C41 UNL     1      12.720   8.934   3.210 +1.50 +0.00    +0.241 C 
ATOM     42  C42 UNL     1      13.013  10.405   3.592+99.99 +0.00    +0.180 C 
ATOM     43  C43 UNL     1      12.312  11.362   2.599+99.99 +0.00    +0.073 C 
ATOM     44  C44 UNL     1      13.140  11.693   1.372+15.47 -0.00    -0.056 A 
ATOM     45  C45 UNL     1      13.346  10.743   0.363+99.99 +0.00    +0.010 A 
ATOM     46  C46 UNL     1      14.237  11.005  -0.679+56.58 +0.00    +0.037 A 
ATOM     47  C47 UNL     1      14.910  12.220  -0.719+18.59 +0.00    +0.065 A 
ATOM     48  C48 UNL     1      14.665  13.202   0.229+99.99 +0.00    +0.037 A 
ATOM     49  C49 UNL     1      13.783  12.939   1.277+99.99 +0.00    +0.010 A 
ATOM     50  C50 UNL     1      15.231  10.119   4.705+70.04 +0.00    +0.240 C 
ATOM     51  C51 UNL     1      16.723  10.509   4.623 +1.21 +0.00    +0.172 C 
ATOM     52  C52 UNL     1      16.985  11.642   5.606+99.99 +0.00    +0.042 C 
ATOM     53  C53 UNL     1      17.192   9.995   2.237 -0.35 +0.00    +0.243 C 
ATOM     54  C54 UNL     1      17.800  10.564   0.932 -0.40 +0.00    +0.200 C 
ATOM     55  C55 UNL     1      17.506   9.632  -0.254 -0.35 +0.00    +0.199 C 
ATOM     56  C56 UNL     1      19.732  11.908   1.741 -0.46 +0.00    +0.252 C 
ATOM     57  C57 UNL     1      21.235  12.202   1.534+56.76 +0.00    +0.314 C 
ATOM     58  C58 UNL     1      21.432  13.220   0.391+99.99 +0.00    +0.103 C 
ATOM     59  C59 UNL     1      20.787  12.820  -0.897+11.22 +0.00    +0.028 A 
ATOM     60  C60 UNL     1      21.122  11.889  -1.854+73.71 +0.00    +0.114 A 
ATOM     61  C61 UNL     1      19.292  12.761  -2.523+99.99 +0.00    +0.180 A 
ATOM     62  O1  UNL     1      11.747   7.342   7.259 -0.13 -0.00    -0.271 OA
ATOM     63  O2  UNL     1       6.864   7.293   9.506+99.99 -0.00    -0.271 OA
ATOM     64  O3  UNL     1       6.950   4.521   5.530 -0.20 -0.00    -0.271 OA
ATOM     65  O4  UNL     1       5.987   1.836   3.307 -0.25 -0.00    -0.272 OA
ATOM     66  O5  UNL     1       5.034   4.545  -0.950 -0.03 -0.00    -0.650 OA
ATOM     67  O6  UNL     1       2.856   4.191  -1.288 -0.03 -0.00    -0.776 OA
ATOM     68  O7  UNL     1       5.139   6.041   2.943 -0.15 -0.00    -0.271 OA
ATOM     69  O8  UNL     1      11.389   1.829   0.544 +7.03 -0.00    -0.361 OA
ATOM     70  O9  UNL     1       8.873   8.043  -0.062 -0.14 -0.00    -0.271 OA
ATOM     71  O10 UNL     1       8.978   5.711  -3.861 +0.00 -0.00    -0.649 OA
ATOM     72  O11 UNL     1       8.384   4.858  -1.886 +0.11 -0.00    -0.775 OA
ATOM     73  O12 UNL     1      14.197   4.853   7.904 -0.49 -0.00    -0.271 OA
ATOM     74  O13 UNL     1      17.471   4.728   7.305+99.99 -0.00    -0.650 OA
ATOM     75  O14 UNL     1      17.364   6.462   8.699+99.99 -0.00    -0.776 OA
ATOM     76  O15 UNL     1      14.978   4.849   3.202+99.99 -0.00    -0.271 OA
ATOM     77  O16 UNL     1      15.359   7.167   0.612+35.23 -0.00    -0.398 OA
ATOM     78  O17 UNL     1      11.593   8.447   3.305 -0.20 -0.00    -0.271 OA
ATOM     79  O18 UNL     1      15.874  12.458  -1.656+99.99 -0.00    -0.361 OA
ATOM     80  O19 UNL     1      14.771   9.402   5.589 +2.10 -0.00    -0.271 OA
ATOM     81  O20 UNL     1      16.786   8.840   2.366 -0.33 -0.00    -0.271 OA
ATOM     82  O21 UNL     1      17.573  10.347  -1.497 +1.54 -0.00    -0.398 OA
ATOM     83  O22 UNL     1      19.008  12.640   2.415 -0.52 -0.00    -0.271 OA
ATOM     84  O23 UNL     1       9.339   3.941   6.736 -0.21 -0.00    -0.393 OA
ATOM     85  N1  UNL     1       9.799   6.294   7.858 +5.24 -0.00    -0.346 N 
ATOM     86  N2  UNL     1       9.444  10.078   4.296+21.56 -0.00    -0.227 N 
ATOM     87  N3  UNL     1       7.333  11.079   4.283+99.99 -0.00    -0.235 N 
ATOM     88  H3  UNL     1       7.343  11.438   5.238+99.99 +0.00    +0.174 HD
ATOM     89  N4  UNL     1       8.164   9.934   2.462+99.99 -0.00    -0.235 N 
ATOM     90  N5  UNL     1       7.137   6.402   7.416 +1.37 -0.00    -0.346 N 
ATOM     91  N6  UNL     1       4.933   9.303   4.523+99.99 -0.00    -0.367 N 
ATOM     92  N7  UNL     1       4.376   8.719   2.283+54.74 -0.00    -0.376 N 
ATOM     93  H7  UNL     1       4.124   8.968   1.325+99.99 +0.00    +0.158 HD
ATOM     94  N8  UNL     1       4.693  10.864   2.943+99.99 -0.00    -0.274 NA
ATOM     95  N9  UNL     1       4.799   3.900   6.009 -0.17 -0.00    -0.351 N 
ATOM     96  N10 UNL     1       4.432   3.518   3.187 -0.01 -0.00    -0.346 N 
ATOM     97  N11 UNL     1       6.528   5.576   1.189 -0.06 -0.00    -0.346 N 
ATOM     98  N12 UNL     1       7.086   6.980  -1.028 +5.14 -0.00    -0.349 N 
ATOM     99  N13 UNL     1      12.815   5.162   6.105 -0.21 -0.00    -0.344 N 
ATOM    100  N14 UNL     1      14.651   6.527   4.716 +0.24 -0.00    -0.345 N 
ATOM    101  N15 UNL     1      13.786   8.224   2.710 +1.06 -0.00    -0.344 N 
ATOM    102  N16 UNL     1      14.445  10.684   3.728+99.99 -0.00    -0.346 N 
ATOM    103  N17 UNL     1      17.089  10.920   3.263 -0.19 -0.00    -0.346 N 
ATOM    104  N18 UNL     1      19.243  10.799   1.080 -0.22 -0.00    -0.344 N 
ATOM    105  N19 UNL     1      20.143  11.802  -2.808+99.99 -0.00    -0.360 N 
ATOM    106  H19 UNL     1      20.087  11.134  -3.578+69.46 +0.00    +0.166 HD
ATOM    107  N20 UNL     1      19.627  13.396  -1.361+99.99 -0.00    -0.355 N 
ATOM    108  N21 UNL     1      22.014  10.959   1.345 +7.78 +0.00    +0.092 N 
ATOM    109  H59 UNL     1       3.190   4.332  -2.198 -0.14 +0.00    +0.167 HD
ATOM    110  H60 UNL     1      11.092   1.042   1.030 -0.11 +0.00    +0.217 HD
ATOM    111  H61 UNL     1       8.970   4.169  -2.267 +0.06 +0.00    +0.167 HD
ATOM    112  H62 UNL     1      17.908   5.800   9.177+99.99 +0.00    +0.167 HD
ATOM    113  H63 UNL     1      16.009   7.073   1.335 +1.79 +0.00    +0.209 HD
ATOM    114  H64 UNL     1      16.262  11.587  -1.903+99.99 +0.00    +0.217 HD
ATOM    115  H65 UNL     1      18.510  10.378  -1.785 +2.31 +0.00    +0.209 HD
ATOM    116  H66 UNL     1       8.617   3.792   6.084 +0.10 +0.00    +0.210 HD
ATOM    117  H67 UNL     1       9.409   5.358   7.988 +0.11 +0.00    +0.163 HD
ATOM    118  H68 UNL     1       9.933   9.295   3.858 -0.16 +0.00    +0.177 HD
ATOM    119  H69 UNL     1       6.569  11.187   3.599+99.99 +0.00    +0.174 HD
ATOM    120  H70 UNL     1       7.378  10.275   1.919+45.86 +0.00    +0.174 HD
ATOM    121  H71 UNL     1       9.017   9.907   1.915+99.99 +0.00    +0.174 HD
ATOM    122  H72 UNL     1       7.837   6.131   6.726 +0.11 +0.00    +0.163 HD
ATOM    123  H73 UNL     1       5.677   9.914   4.874+99.99 +0.00    +0.162 HD
ATOM    124  H74 UNL     1       4.444   7.763   2.658 +0.05 +0.00    +0.158 HD
ATOM    125  H75 UNL     1       4.230  11.403   3.669 -0.50 +0.00    +0.127 HD
ATOM    126  H76 UNL     1       4.247  11.021   2.045 +0.78 +0.00    +0.127 HD
ATOM    127  H77 UNL     1       4.118   3.928   6.758 +0.06 +0.00    +0.163 HD
ATOM    128  H78 UNL     1       4.074   4.271   3.772 +0.06 +0.00    +0.163 HD
ATOM    129  H79 UNL     1       6.888   4.840   0.584 +0.06 +0.00    +0.163 HD
ATOM    130  H80 UNL     1       6.404   6.244  -0.864 -0.49 +0.00    +0.163 HD
ATOM    131  H81 UNL     1      12.740   5.782   5.307 +0.11 +0.00    +0.163 HD
ATOM    132  H82 UNL     1      14.279   7.460   4.894 +0.11 +0.00    +0.163 HD
ATOM    133  H83 UNL     1      14.693   8.677   2.624 -0.29 +0.00    +0.163 HD
ATOM    134  H84 UNL     1      14.933  11.159   2.977 +0.11 +0.00    +0.163 HD
ATOM    135  H85 UNL     1      17.689  11.743   3.167 +0.13 +0.00    +0.163 HD
ATOM    136  H86 UNL     1      19.835  10.435   0.346 +0.13 +0.00    +0.163 HD
ATOM    137  H87 UNL     1      19.096  14.140  -0.926+99.99 +0.00    +0.166 HD
ATOM    138  H88 UNL     1      21.864  10.557   0.425 +0.27 +0.00    +0.313 HD
ATOM    139  H89 UNL     1      21.731  10.267   2.039 +0.26 +0.00    +0.313 HD
ENDROOT
TORSDOF 55
TER
