USER    Run = 1
USER    DPF = ligand_391_receptor.dpf
USER  
USER    Estimated Free Energy of Binding    =   +7.09 kcal/mol  [=(1)+(2)+(3)-(4)]
USER    
USER    (1) Final Intermolecular Energy     =   +5.89 kcal/mol
USER        vdW + Hbond + desolv Energy     =   +5.89 kcal/mol
USER        Electrostatic Energy            =   +0.00 kcal/mol
USER    (2) Final Total Internal Energy     =   +5.89 kcal/mol
USER    (3) Torsional Free Energy           =   +1.19 kcal/mol
USER    (4) Unbound System's Energy  [=(2)] =   +5.89 kcal/mol
USER    
USER    
USER    NEWDPF move ligand_391.pdbqt
USER    NEWDPF about 0.000000 0.000000 0.000000
USER    NEWDPF tran0 12.993523 8.548415 2.870248
USER    NEWDPF quaternion0 -0.281245 -0.540220 0.417233 0.674522
USER    NEWDPF axisangle0 -0.380960 -0.731753 0.565162 95.165893
USER    NEWDPF quat0 -0.380960 -0.731753 0.565162 95.165893
USER    NEWDPF dihe0 84.91 172.82 18.61 -177.23 168.31 155.22 -42.22 2.88 124.71 52.51 154.93 153.89 -26.36 158.92 -172.27 7.38 -100.86 148.91 -177.15 -127.55 -145.36 50.92 156.82 
USER  keepresnum = 1 
USER  
REMARK  23 active torsions:
REMARK  status: ('A' for Active; 'I' for Inactive)
REMARK    1  A    between atoms: C5_5  and  C6_6 
REMARK    2  A    between atoms: C6_6  and  O1_64 
REMARK    3  A    between atoms: C7_7  and  C8_8 
REMARK    4  A    between atoms: C7_7  and  O1_64 
REMARK    5  A    between atoms: C8_8  and  C9_9 
REMARK    6  A    between atoms: C8_8  and  C15_15 
REMARK    7  A    between atoms: C8_8  and  O9_72 
REMARK    8  A    between atoms: C17_17  and  O3_66 
REMARK    9  A    between atoms: C21_21  and  C22_22 
REMARK   10  A    between atoms: C21_21  and  O3_66 
REMARK   11  A    between atoms: C25_25  and  C28_28 
REMARK       I    between atoms: C28_28  and  N2_60 
REMARK   12  A    between atoms: C29_29  and  N2_60 
REMARK   13  A    between atoms: C31_31  and  N3_61 
REMARK   14  A    between atoms: C33_33  and  C34_34 
REMARK       I    between atoms: C33_33  and  N3_61 
REMARK   15  A    between atoms: C37_37  and  C40_40 
REMARK   16  A    between atoms: C40_40  and  N4_62 
REMARK   17  A    between atoms: C41_41  and  C42_42 
REMARK   18  A    between atoms: C41_41  and  N4_62 
REMARK   19  A    between atoms: C42_42  and  C43_43 
REMARK   20  A    between atoms: C42_42  and  O8_71 
REMARK   21  A    between atoms: C49_49  and  O7_70 
REMARK   22  A    between atoms: C52_52  and  C53_53 
REMARK   23  A    between atoms: C52_52  and  N1_59 
USER                              x       y       z     vdW  Elec       q    Type
USER                           _______ _______ _______ _____ _____    ______ ____
ROOT
ATOM      1  C22 UNL     1      10.230   4.109   6.429 -0.41 -0.00    -0.034 A 
ATOM      2  C23 UNL     1      11.052   3.570   5.427 -0.45 +0.00    +0.010 A 
ATOM      3  C24 UNL     1      11.927   4.389   4.709 +1.39 +0.00    +0.017 A 
ATOM      4  C25 UNL     1      11.983   5.760   4.985 -0.30 +0.00    +0.032 A 
ATOM      5  C26 UNL     1      11.174   6.301   5.990 -0.32 +0.00    +0.017 A 
ATOM      6  C27 UNL     1      10.298   5.481   6.704 -0.33 +0.00    +0.010 A 
ENDROOT
BRANCH   4   7
ATOM      7  C28 UNL     1      12.926   6.662   4.274 -0.27 +0.00    +0.252 C 
ATOM      8  N2  UNL     1      13.067   7.934   4.793 -0.17 -0.00    -0.352 N 
ATOM      9  H53 UNL     1      12.608   8.148   5.670 +0.12 +0.00    +0.163 HD
ATOM     10  O4  UNL     1      13.545   6.256   3.297 +0.22 -0.00    -0.268 OA
BRANCH   8  11
ATOM     11  C29 UNL     1      13.973   8.926   4.174 +0.27 +0.00    +0.088 C 
ATOM     12  C30 UNL     1      15.041   9.486   5.140 +5.49 +0.00    +0.050 C 
ATOM     13  C31 UNL     1      15.993   8.373   4.643 -0.01 +0.00    +0.088 C 
ATOM     14  C32 UNL     1      15.137   8.314   3.359 -0.50 +0.00    +0.050 C 
BRANCH  13  15
ATOM     15  N3  UNL     1      17.385   8.803   4.430 -0.18 -0.00    -0.352 N 
ATOM     16  C33 UNL     1      18.094   8.413   3.309 -0.41 +0.00    +0.252 C 
ATOM     17  O5  UNL     1      17.628   7.686   2.438 -0.47 -0.00    -0.268 OA
ATOM     18  H54 UNL     1      17.772   9.542   5.003 +0.11 +0.00    +0.163 HD
BRANCH  16  19
ATOM     19  C34 UNL     1      19.475   8.953   3.176 -0.31 +0.00    +0.032 A 
ATOM     20  C35 UNL     1      19.721  10.302   2.891 +0.14 +0.00    +0.017 A 
ATOM     21  C36 UNL     1      21.036  10.764   2.782 +0.04 +0.00    +0.010 A 
ATOM     22  C37 UNL     1      22.119   9.890   2.963 -0.38 -0.00    -0.030 A 
ATOM     23  C38 UNL     1      21.863   8.543   3.260 +0.32 +0.00    +0.010 A 
ATOM     24  C39 UNL     1      20.549   8.080   3.372 +3.09 +0.00    +0.017 A 
BRANCH  22  25
ATOM     25  C40 UNL     1      23.541  10.394   2.855 +1.02 +0.00    +0.308 C 
BRANCH  25  26
ATOM     26  N4  UNL     1      24.175  10.076   1.574 -0.25 +0.00    +0.090 N 
ATOM     27  H55 UNL     1      24.345  10.944   1.068 +0.34 +0.00    +0.316 HD
BRANCH  26  28
ATOM     28  C41 UNL     1      25.447   9.345   1.706 -0.27 +0.00    +0.306 C 
BRANCH  28  29
ATOM     29  C42 UNL     1      25.351   7.854   2.135 -0.39 +0.00    +0.180 C 
BRANCH  29  30
ATOM     30  C43 UNL     1      25.254   6.846   0.996 -0.40 -0.00    -0.015 A 
ATOM     31  C44 UNL     1      26.360   6.230   0.361 -0.36 +0.00    +0.003 A 
ATOM     32  C45 UNL     1      27.763   6.514   0.701 -0.22 +0.00    +0.020 A 
ATOM     33  C48 UNL     1      26.130   5.294  -0.672 -0.36 +0.00    +0.079 A 
ATOM     34  C46 UNL     1      28.772   5.860   0.114 -0.19 +0.00    +0.075 A 
ATOM     35  C47 UNL     1      28.518   4.816  -0.898 -0.10 +0.00    +0.245 A 
ATOM     36  N5  UNL     1      27.215   4.614  -1.255 -0.14 -0.00    -0.321 N 
ATOM     37  O6  UNL     1      29.438   4.177  -1.395 -0.06 -0.00    -0.268 OA
ATOM     38  H56 UNL     1      27.064   3.850  -1.896 +0.09 +0.00    +0.169 HD
ATOM     39  C49 UNL     1      24.831   5.015  -1.102 -0.42 +0.00    +0.093 A 
ATOM     40  C50 UNL     1      23.743   5.612  -0.487 -0.40 +0.00    +0.039 A 
ATOM     41  C51 UNL     1      23.953   6.517   0.551 -0.47 +0.00    +0.013 A 
BRANCH  39  42
ATOM     42  O7  UNL     1      24.573   4.180  -2.152 +0.72 -0.00    -0.358 OA
ATOM     43  H57 UNL     1      25.053   3.352  -1.986 +0.14 +0.00    +0.217 HD
ENDBRANCH  39  42
ENDBRANCH  29  30
BRANCH  29  44
ATOM     44  O8  UNL     1      26.357   7.522   3.095 -0.27 -0.00    -0.389 OA
ATOM     45  H58 UNL     1      26.747   8.357   3.403 -0.26 +0.00    +0.210 HD
ENDBRANCH  29  44
ENDBRANCH  28  29
ENDBRANCH  26  28
ENDBRANCH  25  26
ENDBRANCH  22  25
ENDBRANCH  16  19
ENDBRANCH  13  15
ENDBRANCH   8  11
ENDBRANCH   4   7
BRANCH   1  46
ATOM     46  C21 UNL     1       9.314   3.208   7.225 -0.34 +0.00    +0.214 C 
BRANCH  46  47
ATOM     47  O3  UNL     1       8.084   2.986   6.519 +0.67 -0.00    -0.347 OA
BRANCH  47  48
ATOM     48  C17 UNL     1       7.772   4.058   5.728 -0.31 +0.00    +0.069 A 
ATOM     49  C16 UNL     1       8.142   4.058   4.380 -0.26 +0.00    +0.047 A 
ATOM     50  C15 UNL     1       7.832   5.152   3.557 -0.20 -0.00    -0.007 A 
ATOM     51  C20 UNL     1       7.165   6.248   4.149 -0.02 +0.00    +0.011 A 
ATOM     52  C19 UNL     1       6.829   6.254   5.505 +1.11 +0.00    +0.003 A 
ATOM     53  C18 UNL     1       7.139   5.157   6.299 -0.36 +0.00    +0.037 A 
BRANCH  50  54
ATOM     54  C8  UNL     1       8.167   5.197   2.058 -0.11 +0.00    +0.201 C 
BRANCH  54  55
ATOM     55  C7  UNL     1       8.986   3.978   1.541 +0.04 +0.00    +0.303 C 
ATOM     56  O2  UNL     1       8.643   2.814   1.745 -0.17 -0.00    -0.261 OA
BRANCH  55  57
ATOM     57  O1  UNL     1      10.099   4.352   0.850 +1.15 -0.00    -0.318 OA
BRANCH  57  58
ATOM     58  C6  UNL     1      10.361   3.693  -0.400 +0.46 +0.00    +0.183 C 
BRANCH  58  59
ATOM     59  C5  UNL     1       9.103   2.971  -0.898 -0.17 +0.00    +0.013 C 
ATOM     60  C1  UNL     1       7.824   3.551  -0.287 -0.12 +0.00    +0.037 C 
ATOM     61  C2  UNL     1       6.572   2.858  -0.842 -0.03 +0.00    +0.273 C 
ATOM     62  N1  UNL     1       6.769   1.438  -1.176 -0.10 +0.00    +0.092 N 
ATOM     63  C3  UNL     1       7.799   0.828  -0.335 -0.10 +0.00    +0.273 C 
ATOM     64  C4  UNL     1       9.167   1.452  -0.641 -0.22 +0.00    +0.037 C 
BRANCH  62  65
ATOM     65  C52 UNL     1       5.490   0.714  -1.126 -0.05 +0.00    +0.311 C 
BRANCH  65  66
ATOM     66  C53 UNL     1       4.588   1.144   0.012 -0.14 -0.00    -0.030 A 
ATOM     67  C54 UNL     1       5.099   1.285   1.312 -0.13 +0.00    +0.009 A 
ATOM     68  C55 UNL     1       4.273   1.705   2.356 -0.19 +0.00    +0.001 A 
ATOM     69  C56 UNL     1       2.931   1.994   2.114 -0.11 +0.00    +0.000 A 
ATOM     70  C57 UNL     1       2.413   1.864   0.827 -0.09 +0.00    +0.001 A 
ATOM     71  C58 UNL     1       3.237   1.446  -0.219 -0.12 +0.00    +0.009 A 
ENDBRANCH  65  66
ENDBRANCH  62  65
ENDBRANCH  58  59
ENDBRANCH  57  58
ENDBRANCH  55  57
ENDBRANCH  54  55
BRANCH  54  72
ATOM     72  C9  UNL     1       6.929   5.419   1.168 -0.17 -0.00    -0.009 A 
ATOM     73  C10 UNL     1       6.872   6.492   0.257 -0.29 +0.00    +0.011 A 
ATOM     74  C11 UNL     1       5.733   6.720  -0.519 +1.54 +0.00    +0.001 A 
ATOM     75  C12 UNL     1       4.625   5.886  -0.392 +0.64 +0.00    +0.000 A 
ATOM     76  C13 UNL     1       4.655   4.826   0.510 -0.19 +0.00    +0.001 A 
ATOM     77  C14 UNL     1       5.795   4.596   1.285 -0.14 +0.00    +0.011 A 
ENDBRANCH  54  72
BRANCH  54  78
ATOM     78  O9  UNL     1       9.033   6.353   1.922 -0.09 -0.00    -0.371 OA
ATOM     79  H59 UNL     1       9.910   5.995   1.683 +0.10 +0.00    +0.212 HD
ENDBRANCH  54  78
ENDBRANCH  50  54
ENDBRANCH  47  48
ENDBRANCH  46  47
ENDBRANCH   1  46
TORSDOF 23
TER
