USER    Run = 1
USER    DPF = ligand_133_receptor.dpf
USER  
USER    Estimated Free Energy of Binding    =  +1.92e+004 kcal/mol  [=(1)+(2)+(3)-(4)]
USER    
USER    (1) Final Intermolecular Energy     =  +1.92e+004 kcal/mol
USER        vdW + Hbond + desolv Energy     =  +1.92e+004 kcal/mol
USER        Electrostatic Energy            =   +0.00 kcal/mol
USER    (2) Final Total Internal Energy     =   +0.00 kcal/mol
USER    (3) Torsional Free Energy           =   +1.19 kcal/mol
USER    (4) Unbound System's Energy  [=(2)] =   +0.00 kcal/mol
USER    
USER    
USER    NEWDPF move ligand_133.pdbqt
USER    NEWDPF about 0.000000 0.000000 0.000000
USER    NEWDPF tran0 18.074875 7.303019 3.028989
USER    NEWDPF quaternion0 0.148803 -0.803356 -0.562981 -0.124615
USER    NEWDPF axisangle0 0.149972 -0.809668 -0.567404 -165.682955
USER    NEWDPF quat0 0.149972 -0.809668 -0.567404 -165.682955
USER  keepresnum = 1 
USER  
REMARK  0 active torsions:
REMARK  status: ('A' for Active; 'I' for Inactive)
REMARK       I    between atoms: C2_2  and  C3_3 
REMARK       I    between atoms: C3_3  and  C5_5 
REMARK       I    between atoms: C5_5  and  C6_6 
REMARK       I    between atoms: C5_5  and  N11_79 
REMARK       I    between atoms: C6_6  and  N1_67 
REMARK       I    between atoms: C7_7  and  C8_8 
REMARK       I    between atoms: C7_7  and  C12_12 
REMARK       I    between atoms: C7_7  and  N1_67 
REMARK       I    between atoms: C8_8  and  C9_9 
REMARK       I    between atoms: C9_9  and  C10_10 
REMARK       I    between atoms: C10_10  and  C11_11 
REMARK       I    between atoms: C11_11  and  N2_68 
REMARK       I    between atoms: C12_12  and  N3_69 
REMARK       I    between atoms: C13_13  and  C14_14 
REMARK       I    between atoms: C13_13  and  C18_18 
REMARK       I    between atoms: C13_13  and  N3_69 
REMARK       I    between atoms: C14_14  and  C15_15 
REMARK       I    between atoms: C15_15  and  C16_16 
REMARK       I    between atoms: C16_16  and  N4_70 
REMARK       I    between atoms: C17_17  and  N5_72 
REMARK       I    between atoms: C17_17  and  N6_73 
REMARK       I    between atoms: C18_18  and  N7_74 
REMARK       I    between atoms: C19_19  and  C20_20 
REMARK       I    between atoms: C19_19  and  C24_24 
REMARK       I    between atoms: C19_19  and  N7_74 
REMARK       I    between atoms: C20_20  and  C21_21 
REMARK       I    between atoms: C21_21  and  C22_22 
REMARK       I    between atoms: C22_22  and  N8_75 
REMARK       I    between atoms: C23_23  and  N9_77 
REMARK       I    between atoms: C23_23  and  N10_78 
REMARK       I    between atoms: C24_24  and  O5_61 
REMARK       I    between atoms: C25_25  and  C26_26 
REMARK       I    between atoms: C25_25  and  N11_79 
REMARK       I    between atoms: C26_26  and  N12_80 
REMARK       I    between atoms: C28_28  and  C29_29 
REMARK       I    between atoms: C28_28  and  N12_80 
REMARK       I    between atoms: C29_29  and  C30_30 
REMARK       I    between atoms: C29_29  and  N13_81 
REMARK       I    between atoms: C30_30  and  C31_31 
REMARK       I    between atoms: C34_34  and  C35_35 
REMARK       I    between atoms: C34_34  and  N13_81 
REMARK       I    between atoms: C35_35  and  C36_36 
REMARK       I    between atoms: C35_35  and  N15_83 
REMARK       I    between atoms: C36_36  and  C37_37 
REMARK       I    between atoms: C45_45  and  C46_46 
REMARK       I    between atoms: C45_45  and  N15_83 
REMARK       I    between atoms: C46_46  and  C47_47 
REMARK       I    between atoms: C46_46  and  N16_84 
REMARK       I    between atoms: C47_47  and  C48_48 
REMARK       I    between atoms: C51_51  and  C52_52 
REMARK       I    between atoms: C51_51  and  N16_84 
REMARK       I    between atoms: C52_52  and  C53_53 
REMARK       I    between atoms: C52_52  and  N20_89 
REMARK       I    between atoms: C53_53  and  C54_54 
REMARK       I    between atoms: C54_54  and  C55_55 
REMARK       I    between atoms: C55_55  and  N17_85 
REMARK       I    between atoms: C56_56  and  N18_87 
REMARK       I    between atoms: C56_56  and  N19_88 
USER                              x       y       z     vdW  Elec       q    Type
USER                           _______ _______ _______ _____ _____    ______ ____
ROOT
ATOM      1  C1  UNL     1      26.240   6.789   4.329 +1.73 +0.00    +0.005 C 
ATOM      2  C2  UNL     1      25.009   6.382   3.529+61.34 +0.00    +0.002 C 
ATOM      3  C3  UNL     1      25.312   5.385   2.390 +2.26 +0.00    +0.013 C 
ATOM      4  C4  UNL     1      26.314   5.963   1.383 +0.24 +0.00    +0.012 C 
ATOM      5  C5  UNL     1      24.034   4.883   1.674 +0.24 +0.00    +0.180 C 
ATOM      6  C6  UNL     1      23.130   6.027   1.136 +0.63 +0.00    +0.241 C 
ATOM      7  C7  UNL     1      22.625   7.291  -1.006 -0.32 +0.00    +0.176 C 
ATOM      8  C8  UNL     1      21.556   6.457  -1.746 +6.27 +0.00    +0.035 C 
ATOM      9  C9  UNL     1      20.476   5.805  -0.880+99.99 +0.00    +0.004 C 
ATOM     10  C10 UNL     1      19.493   4.921  -1.662+99.99 +0.00    +0.030 C 
ATOM     11  C11 UNL     1      18.426   5.682  -2.453+56.48 +0.00    +0.267 C 
ATOM     12  C12 UNL     1      22.070   8.653  -0.517 +0.23 +0.00    +0.241 C 
ATOM     13  C13 UNL     1      20.612   9.800   1.143 -0.11 +0.00    +0.176 C 
ATOM     14  C14 UNL     1      19.410   9.336   1.976 +0.15 +0.00    +0.036 C 
ATOM     15  C15 UNL     1      18.378  10.420   2.299 -0.51 +0.00    +0.022 C 
ATOM     16  C16 UNL     1      17.667  10.966   1.060 -0.50 +0.00    +0.121 C 
ATOM     17  C17 UNL     1      15.826  12.357   0.612 +1.07 +0.00    +0.121 C 
ATOM     18  C18 UNL     1      21.571  10.638   2.014 +1.35 +0.00    +0.241 C 
ATOM     19  C19 UNL     1      23.559  10.546   3.486 +0.24 +0.00    +0.182 C 
ATOM     20  C20 UNL     1      23.681   9.942   4.887 -0.51 +0.00    +0.038 C 
ATOM     21  C21 UNL     1      22.446  10.238   5.747 +2.80 +0.00    +0.022 C 
ATOM     22  C22 UNL     1      22.578   9.681   7.163 +6.87 +0.00    +0.121 C 
ATOM     23  C23 UNL     1      23.423  11.414   8.542 +3.77 +0.00    +0.121 C 
ATOM     24  C24 UNL     1      24.891  10.405   2.738 -0.42 +0.00    +0.163 C 
ATOM     25  C25 UNL     1      22.335   3.132   2.011 +0.39 +0.00    +0.240 C 
ATOM     26  C26 UNL     1      21.264   2.636   3.010 +0.82 +0.00    +0.172 C 
ATOM     27  C27 UNL     1      20.510   1.435   2.457+99.99 +0.00    +0.042 C 
ATOM     28  C28 UNL     1      20.608   4.721   4.189+10.63 +0.00    +0.241 C 
ATOM     29  C29 UNL     1      19.663   5.959   4.175+53.53 +0.00    +0.177 C 
ATOM     30  C30 UNL     1      19.808   6.759   5.491+70.25 +0.00    +0.038 C 
ATOM     31  C31 UNL     1      19.505   6.006   6.807+25.84 -0.00    -0.020 C 
ATOM     32  C32 UNL     1      19.876   6.895   7.999+56.95 +0.00    +0.009 C 
ATOM     33  C33 UNL     1      18.048   5.570   6.941+99.99 +0.00    +0.009 C 
ATOM     34  C34 UNL     1      17.846   5.449   2.557 +8.37 +0.00    +0.241 C 
ATOM     35  C35 UNL     1      16.367   5.696   2.191+99.99 +0.00    +0.181 C 
ATOM     36  C36 UNL     1      16.294   6.968   1.326+99.99 +0.00    +0.075 C 
ATOM     37  C37 UNL     1      14.929   7.248   0.777+99.99 -0.00    -0.028 A 
ATOM     38  C38 UNL     1      14.146   8.337   1.104+99.99 +0.00    +0.096 A 
ATOM     39  C39 UNL     1      12.956   7.104  -0.352 +0.16 +0.00    +0.042 A 
ATOM     40  C40 UNL     1      11.965   6.605  -1.205 -0.38 +0.00    +0.030 A 
ATOM     41  C41 UNL     1      12.241   5.421  -1.894 +4.16 +0.00    +0.002 A 
ATOM     42  C42 UNL     1      13.460   4.768  -1.738+99.99 +0.00    +0.001 A 
ATOM     43  C43 UNL     1      14.442   5.282  -0.883+99.99 +0.00    +0.014 A 
ATOM     44  C44 UNL     1      14.186   6.471  -0.168 +6.53 -0.00    -0.002 A 
ATOM     45  C45 UNL     1      15.246   6.652   4.219 +6.54 +0.00    +0.241 C 
ATOM     46  C46 UNL     1      13.926   6.606   5.028 -0.36 +0.00    +0.177 C 
ATOM     47  C47 UNL     1      14.188   5.894   6.363 -0.45 +0.00    +0.038 C 
ATOM     48  C48 UNL     1      12.963   5.786   7.293 -0.55 -0.00    -0.020 C 
ATOM     49  C49 UNL     1      12.427   7.156   7.708 -0.32 +0.00    +0.009 C 
ATOM     50  C50 UNL     1      13.332   4.978   8.540 -0.28 +0.00    +0.009 C 
ATOM     51  C51 UNL     1      11.936   6.556   3.508 -0.24 +0.00    +0.251 C 
ATOM     52  C52 UNL     1      10.996   5.553   2.792 +0.19 +0.00    +0.308 C 
ATOM     53  C53 UNL     1       9.706   6.149   2.206 -0.27 +0.00    +0.047 C 
ATOM     54  C54 UNL     1       8.969   7.250   2.977 -0.39 +0.00    +0.022 C 
ATOM     55  C55 UNL     1       8.770   7.010   4.468 +0.93 +0.00    +0.121 C 
ATOM     56  C56 UNL     1       8.859   9.157   5.445+99.99 +0.00    +0.121 C 
ATOM     57  O1  UNL     1      22.202   6.502   1.792+49.48 -0.00    -0.271 OA
ATOM     58  O2  UNL     1      22.223   9.681  -1.175 +4.77 -0.00    -0.271 OA
ATOM     59  O3  UNL     1      21.426  11.848   2.172+17.94 -0.00    -0.271 OA
ATOM     60  O4  UNL     1      25.956  10.912   3.052 +2.19 -0.00    -0.648 OA
ATOM     61  O5  UNL     1      24.834   9.595   1.655 +0.14 -0.00    -0.775 OA
ATOM     62  O6  UNL     1      22.385   2.782   0.833+15.92 -0.00    -0.271 OA
ATOM     63  O7  UNL     1      21.654   4.692   4.843+99.99 -0.00    -0.271 OA
ATOM     64  O8  UNL     1      18.648   5.072   1.699+99.99 -0.00    -0.271 OA
ATOM     65  O9  UNL     1      16.176   7.407   4.495 -0.79 -0.00    -0.271 OA
ATOM     66  O10 UNL     1      11.855   7.777   3.420 -0.29 -0.00    -0.271 OA
ATOM     67  N1  UNL     1      23.479   6.495  -0.111 -0.25 -0.00    -0.346 N 
ATOM     68  N2  UNL     1      18.955   6.292  -3.665+99.99 +0.00    +0.078 N 
ATOM     69  N3  UNL     1      21.298   8.620   0.616 +8.47 -0.00    -0.346 N 
ATOM     70  N4  UNL     1      16.549  11.794   1.504 -0.23 -0.00    -0.372 N 
ATOM     71  H4  UNL     1      16.351  11.920   2.497 +0.13 +0.00    +0.161 HD
ATOM     72  N5  UNL     1      15.913  12.317  -0.735+97.11 -0.00    -0.279 NA
ATOM     73  N6  UNL     1      14.779  13.123   0.985+99.99 -0.00    -0.279 NA
ATOM     74  N7  UNL     1      22.482   9.894   2.739 -0.15 -0.00    -0.345 N 
ATOM     75  N8  UNL     1      23.660  10.348   7.880+60.94 -0.00    -0.372 N 
ATOM     76  H8  UNL     1      24.604   9.963   7.852+99.99 +0.00    +0.161 HD
ATOM     77  N9  UNL     1      24.420  12.011   9.229 -0.04 -0.00    -0.279 NA
ATOM     78  N10 UNL     1      22.277  12.112   8.698 +0.56 -0.00    -0.279 NA
ATOM     79  N11 UNL     1      23.219   4.050   2.552 +2.87 -0.00    -0.346 N 
ATOM     80  N12 UNL     1      20.329   3.728   3.279+26.88 -0.00    -0.346 N 
ATOM     81  N13 UNL     1      18.249   5.749   3.834+99.99 -0.00    -0.346 N 
ATOM     82  N14 UNL     1      12.961   8.235   0.430+99.99 -0.00    -0.365 N 
ATOM     83  N15 UNL     1      15.374   5.656   3.274+99.99 -0.00    -0.346 N 
ATOM     84  N16 UNL     1      12.898   5.909   4.257 +0.24 -0.00    -0.346 N 
ATOM     85  N17 UNL     1       8.127   8.175   5.071+99.99 -0.00    -0.372 N 
ATOM     86  H17 UNL     1       7.115   8.206   5.191+99.99 +0.00    +0.161 HD
ATOM     87  N18 UNL     1      10.196   9.343   5.364 +0.95 -0.00    -0.279 NA
ATOM     88  N19 UNL     1       8.285  10.225   6.038+99.99 -0.00    -0.279 NA
ATOM     89  N20 UNL     1      10.733   4.402   3.695 +0.03 +0.00    +0.092 N 
ATOM     90  H73 UNL     1      25.732   9.673   1.271 +0.12 +0.00    +0.167 HD
ATOM     91  H74 UNL     1      24.161   5.934  -0.605 +0.12 +0.00    +0.163 HD
ATOM     92  H75 UNL     1      19.310   5.566  -4.287+14.95 +0.00    +0.312 HD
ATOM     93  H76 UNL     1      18.199   6.753  -4.168+15.20 +0.00    +0.312 HD
ATOM     94  H77 UNL     1      21.347   7.775   1.189 +3.20 +0.00    +0.163 HD
ATOM     95  H78 UNL     1      16.794  11.957  -1.080+96.97 +0.00    +0.126 HD
ATOM     96  H79 UNL     1      15.715  13.220  -1.151 +5.05 +0.00    +0.126 HD
ATOM     97  H80 UNL     1      13.939  12.899   0.466 +0.54 +0.00    +0.126 HD
ATOM     98  H81 UNL     1      14.625  13.022   1.984+84.65 +0.00    +0.126 HD
ATOM     99  H82 UNL     1      22.712   8.993   2.329 +0.12 +0.00    +0.163 HD
ATOM    100  H83 UNL     1      25.236  11.405   9.233 -0.10 +0.00    +0.126 HD
ATOM    101  H84 UNL     1      24.146  12.238  10.177 +0.04 +0.00    +0.126 HD
ATOM    102  H85 UNL     1      21.564  11.892   8.013 -0.38 +0.00    +0.126 HD
ATOM    103  H86 UNL     1      22.447  13.112   8.717 +0.38 +0.00    +0.126 HD
ATOM    104  H87 UNL     1      22.917   4.462   3.436+15.01 +0.00    +0.163 HD
ATOM    105  H88 UNL     1      19.751   4.028   2.492+95.20 +0.00    +0.163 HD
ATOM    106  H89 UNL     1      17.599   6.375   4.312 +2.29 +0.00    +0.163 HD
ATOM    107  H90 UNL     1      12.194   8.889   0.510+99.99 +0.00    +0.165 HD
ATOM    108  H91 UNL     1      14.474   5.283   2.992 +6.13 +0.00    +0.163 HD
ATOM    109  H92 UNL     1      12.727   4.914   4.405 +0.28 +0.00    +0.163 HD
ATOM    110  H93 UNL     1      10.438  10.310   5.180 +1.70 +0.00    +0.126 HD
ATOM    111  H94 UNL     1      10.684   8.745   4.697 +0.05 +0.00    +0.126 HD
ATOM    112  H95 UNL     1       7.313  10.015   6.247+99.99 +0.00    +0.126 HD
ATOM    113  H96 UNL     1       8.775  10.502   6.880+99.99 +0.00    +0.126 HD
ATOM    114  H97 UNL     1      10.181   3.711   3.184 -0.34 +0.00    +0.313 HD
ATOM    115  H98 UNL     1      10.131   4.703   4.463 +0.18 +0.00    +0.313 HD
ENDROOT
TORSDOF 44
TER
