USER    Run = 1
USER    DPF = ligand_95_receptor.dpf
USER  
USER    Estimated Free Energy of Binding    =   -8.46 kcal/mol  [=(1)+(2)+(3)-(4)]
USER    Estimated Inhibition Constant, Ki   =  625.89 nM (nanomolar)  [Temperature = 298.15 K]
USER    
USER    (1) Final Intermolecular Energy     =   -9.66 kcal/mol
USER        vdW + Hbond + desolv Energy     =   -9.66 kcal/mol
USER        Electrostatic Energy            =   +0.00 kcal/mol
USER    (2) Final Total Internal Energy     =   -3.43 kcal/mol
USER    (3) Torsional Free Energy           =   +1.19 kcal/mol
USER    (4) Unbound System's Energy  [=(2)] =   -3.43 kcal/mol
USER    
USER    
USER    NEWDPF move ligand_95.pdbqt
USER    NEWDPF about 0.000000 0.000000 0.000000
USER    NEWDPF tran0 22.061743 7.686673 2.591761
USER    NEWDPF quaternion0 -0.149683 -0.384684 -0.910193 0.034074
USER    NEWDPF axisangle0 -0.149770 -0.384908 -0.910722 176.094609
USER    NEWDPF quat0 -0.149770 -0.384908 -0.910722 176.094609
USER    NEWDPF dihe0 -180.00 143.18 -43.21 -8.51 -41.59 165.58 -154.17 66.47 -71.21 41.24 
USER  keepresnum = 1 
USER  
REMARK  10 active torsions:
REMARK  status: ('A' for Active; 'I' for Inactive)
REMARK    1  A    between atoms: C6_6  and  C7_7 
REMARK       I    between atoms: C7_7  and  N1_27 
REMARK    2  A    between atoms: C8_8  and  C9_9 
REMARK    3  A    between atoms: C8_8  and  N1_27 
REMARK    4  A    between atoms: C9_9  and  N2_28 
REMARK    5  A    between atoms: C11_11  and  C12_12 
REMARK       I    between atoms: C12_12  and  N4_30 
REMARK    6  A    between atoms: C13_13  and  N4_30 
REMARK    7  A    between atoms: C20_20  and  C21_21 
REMARK       I    between atoms: C21_21  and  N6_32 
REMARK    8  A    between atoms: C22_22  and  C23_23 
REMARK    9  A    between atoms: C22_22  and  N6_32 
REMARK   10  A    between atoms: C23_23  and  N7_33 
USER                              x       y       z     vdW  Elec       q    Type
USER                           _______ _______ _______ _____ _____    ______ ____
ROOT
ATOM      1  C12 UNL     1      21.890   9.519   3.044 -0.30 +0.00    +0.272 C 
ATOM      2  O2  UNL     1      22.409  10.450   3.648 -0.31 -0.00    -0.266 OA
ATOM      3  N4  UNL     1      22.573   8.541   2.342 -0.19 -0.00    -0.322 N 
ATOM      4  H21 UNL     1      22.048   7.716   2.091 +0.20 +0.00    +0.169 HD
ENDROOT
BRANCH   1   5
ATOM      5  C11 UNL     1      20.449   9.326   3.047 -0.18 +0.00    +0.102 A 
ATOM      6  C10 UNL     1      19.709   8.505   3.882 -0.07 +0.00    +0.049 A 
ATOM      7  C4  UNL     1      18.336   8.628   3.540 -0.53 -0.00    -0.006 A 
ATOM      8  C3  UNL     1      18.255   9.566   2.515 -0.43 +0.00    +0.043 A 
ATOM      9  C5  UNL     1      17.151   8.039   4.023 -0.50 +0.00    +0.030 A 
ATOM     10  C2  UNL     1      17.042   9.960   1.941 -0.45 +0.00    +0.031 A 
ATOM     11  N3  UNL     1      19.539   9.986   2.251 -0.17 -0.00    -0.351 N 
ATOM     12  C1  UNL     1      15.876   9.361   2.428 -0.42 +0.00    +0.019 A 
ATOM     13  C6  UNL     1      15.922   8.403   3.447 -0.50 +0.00    +0.033 A 
ATOM     14  H20 UNL     1      19.768  10.719   1.594 +0.14 +0.00    +0.166 HD
BRANCH  13  15
ATOM     15  C7  UNL     1      14.638   7.811   3.916 -0.37 +0.00    +0.251 C 
ATOM     16  O1  UNL     1      14.633   6.972   4.811 -0.41 -0.00    -0.268 OA
ATOM     17  N1  UNL     1      13.488   8.294   3.320 -0.12 -0.00    -0.355 N 
ATOM     18  H17 UNL     1      13.549   9.173   2.824 -0.47 +0.00    +0.162 HD
BRANCH  17  19
ATOM     19  C8  UNL     1      12.176   7.907   3.811 -0.36 +0.00    +0.152 C 
BRANCH  19  20
ATOM     20  C9  UNL     1      12.049   7.992   5.346 -0.22 +0.00    +0.286 C 
BRANCH  20  21
ATOM     21  N2  UNL     1      12.373   6.746   6.041 -0.32 +0.00    +0.079 N 
ATOM     22  H18 UNL     1      12.787   6.972   6.952 +0.25 +0.00    +0.312 HD
ATOM     23  H19 UNL     1      13.079   6.230   5.521 +0.23 +0.00    +0.312 HD
ENDBRANCH  20  21
ENDBRANCH  19  20
ENDBRANCH  17  19
ENDBRANCH  13  15
ENDBRANCH   1   5
BRANCH   3  24
ATOM     24  C13 UNL     1      23.958   8.481   2.072 -0.43 +0.00    +0.037 A 
ATOM     25  C14 UNL     1      24.334   7.917   0.841 -0.39 +0.00    +0.059 A 
ATOM     26  C15 UNL     1      25.701   7.849   0.531 -0.36 +0.00    +0.045 A 
ATOM     27  C16 UNL     1      26.689   8.322   1.388 -0.45 -0.00    -0.007 A 
ATOM     28  N5  UNL     1      26.339   7.354  -0.579 -0.14 -0.00    -0.351 N 
ATOM     29  C17 UNL     1      26.300   8.891   2.613 -0.58 +0.00    +0.016 A 
ATOM     30  C19 UNL     1      27.941   8.093   0.753 -0.35 +0.00    +0.049 A 
ATOM     31  C18 UNL     1      24.937   8.966   2.940 -0.57 +0.00    +0.030 A 
ATOM     32  C20 UNL     1      27.707   7.485  -0.469 -0.27 +0.00    +0.102 A 
ATOM     33  H22 UNL     1      25.887   6.941  -1.385 +0.10 +0.00    +0.166 HD
BRANCH  32  34
ATOM     34  C21 UNL     1      28.588   7.031  -1.522 -0.19 +0.00    +0.268 C 
ATOM     35  O3  UNL     1      28.637   7.592  -2.613 -0.60 -0.00    -0.266 OA
ATOM     36  N6  UNL     1      29.348   5.927  -1.217 -0.03 -0.00    -0.354 N 
ATOM     37  H23 UNL     1      29.041   5.355  -0.442 +0.08 +0.00    +0.162 HD
BRANCH  36  38
ATOM     38  C22 UNL     1      30.094   5.224  -2.244 -0.08 +0.00    +0.152 C 
BRANCH  38  39
ATOM     39  C23 UNL     1      31.394   5.965  -2.592 -0.01 +0.00    +0.286 C 
BRANCH  39  40
ATOM     40  N7  UNL     1      31.117   7.251  -3.246 -0.11 +0.00    +0.079 N 
ATOM     41  H24 UNL     1      30.339   7.128  -3.895 +0.10 +0.00    +0.312 HD
ATOM     42  H25 UNL     1      30.796   7.922  -2.549 +0.11 +0.00    +0.312 HD
ENDBRANCH  39  40
ENDBRANCH  38  39
ENDBRANCH  36  38
ENDBRANCH  32  34
ENDBRANCH   3  24
TORSDOF 10
TER
