USER    Run = 1
USER    DPF = ligand_403_receptor.dpf
USER  
USER    Estimated Free Energy of Binding    =   +4.82 kcal/mol  [=(1)+(2)+(3)-(4)]
USER    
USER    (1) Final Intermolecular Energy     =   +3.63 kcal/mol
USER        vdW + Hbond + desolv Energy     =   +3.63 kcal/mol
USER        Electrostatic Energy            =   +0.00 kcal/mol
USER    (2) Final Total Internal Energy     =   +8.00 kcal/mol
USER    (3) Torsional Free Energy           =   +1.19 kcal/mol
USER    (4) Unbound System's Energy  [=(2)] =   +8.00 kcal/mol
USER    
USER    
USER    NEWDPF move ligand_403.pdbqt
USER    NEWDPF about 0.000000 0.000000 0.000000
USER    NEWDPF tran0 21.816781 5.183245 2.957586
USER    NEWDPF quaternion0 0.414937 -0.772530 0.475794 0.068159
USER    NEWDPF axisangle0 0.415904 -0.774330 0.476903 172.183548
USER    NEWDPF quat0 0.415904 -0.774330 0.476903 172.183548
USER    NEWDPF dihe0 -180.00 -28.01 126.00 180.00 59.57 173.99 -166.37 94.57 -180.00 -34.97 180.00 37.12 -176.24 -44.12 116.89 30.05 73.17 -0.90 180.00 142.87 
USER  keepresnum = 1 
USER  
REMARK  20 active torsions:
REMARK  status: ('A' for Active; 'I' for Inactive)
REMARK    1  A    between atoms: C4_4  and  N2_63 
REMARK    2  A    between atoms: C7_7  and  N1_62 
REMARK    3  A    between atoms: C10_10  and  C11_11 
REMARK    4  A    between atoms: C10_10  and  N2_63 
REMARK    5  A    between atoms: C10_10  and  O6_84 
REMARK    6  A    between atoms: C12_12  and  C16_16 
REMARK       I    between atoms: C16_16  and  N4_67 
REMARK    7  A    between atoms: C17_17  and  N4_67 
REMARK    8  A    between atoms: C20_20  and  N5_68 
REMARK    9  A    between atoms: C25_25  and  C26_26 
REMARK       I    between atoms: C25_25  and  N5_68 
REMARK   10  A    between atoms: C30_30  and  C31_31 
REMARK   11  A    between atoms: C31_31  and  N7_71 
REMARK   12  A    between atoms: C31_31  and  O5_83 
REMARK   13  A    between atoms: C32_32  and  N7_71 
REMARK   14  A    between atoms: C35_35  and  N8_73 
REMARK   15  A    between atoms: C40_40  and  C41_41 
REMARK       I    between atoms: C40_40  and  N8_73 
REMARK   16  A    between atoms: C45_45  and  C46_46 
REMARK   17  A    between atoms: C46_46  and  N10_76 
REMARK   18  A    between atoms: C46_46  and  O4_82 
REMARK   19  A    between atoms: C47_47  and  N10_76 
REMARK   20  A    between atoms: C50_50  and  N11_78 
USER                              x       y       z     vdW  Elec       q    Type
USER                           _______ _______ _______ _____ _____    ______ ____
ROOT
ATOM      1  C26 UNL     1      17.577   9.394   2.649 -0.41 +0.00    +0.101 A 
ATOM      2  C27 UNL     1      17.158  10.699   2.874 -0.45 +0.00    +0.035 A 
ATOM      3  C28 UNL     1      18.100  11.718   2.778 -0.45 +0.00    +0.005 A 
ATOM      4  C29 UNL     1      19.420  11.399   2.466 -0.29 +0.00    +0.034 A 
ATOM      5  C30 UNL     1      19.755  10.063   2.261 -0.37 +0.00    +0.084 A 
ATOM      6  N6  UNL     1      18.857   9.049   2.346 -0.05 -0.00    -0.348 N 
ATOM      7  H6  UNL     1      19.128   8.078   2.190 +0.33 +0.00    +0.166 HD
ENDROOT
BRANCH   5   8
ATOM      8  C31 UNL     1      21.163   9.700   1.937 -0.35 +0.00    +0.168 C 
BRANCH   8   9
ATOM      9  N7  UNL     1      21.755   8.646   2.404 +0.04 -0.00    -0.334 N 
ATOM     10  H7  UNL     1      21.265   8.029   3.051 +0.13 +0.00    +0.168 HD
BRANCH   9  11
ATOM     11  C32 UNL     1      23.076   8.352   2.017 -0.37 +0.00    +0.047 A 
ATOM     12  C33 UNL     1      24.081   8.209   2.996 -0.17 -0.00    -0.026 A 
ATOM     13  C34 UNL     1      25.407   7.900   2.602 -0.49 -0.00    -0.026 A 
ATOM     14  C58 UNL     1      23.725   8.313   4.461 +1.76 +0.00    +0.051 C 
ATOM     15  C35 UNL     1      25.729   7.846   1.225 -0.39 +0.00    +0.048 A 
ATOM     16  C57 UNL     1      26.443   7.601   3.662 +0.21 +0.00    +0.051 C 
ATOM     17  C36 UNL     1      24.724   7.992   0.242 -0.40 -0.00    -0.026 A 
ATOM     18  C37 UNL     1      23.382   8.190   0.648 -0.45 -0.00    -0.026 A 
ATOM     19  C39 UNL     1      25.051   8.004  -1.233 +2.30 +0.00    +0.051 C 
ATOM     20  C38 UNL     1      22.277   8.310  -0.378 -0.07 +0.00    +0.051 C 
BRANCH  15  21
ATOM     21  N8  UNL     1      27.050   7.575   0.809 -0.17 -0.00    -0.321 N 
ATOM     22  C40 UNL     1      27.902   8.550   0.316 -0.08 +0.00    +0.272 C 
ATOM     23  O3  UNL     1      27.649   9.748   0.226 +2.01 -0.00    -0.266 OA
ATOM     24  H62 UNL     1      27.285   6.625   0.530 +0.11 +0.00    +0.169 HD
BRANCH  22  25
ATOM     25  C41 UNL     1      29.212   8.026  -0.185 -0.22 +0.00    +0.101 A 
ATOM     26  C42 UNL     1      30.312   8.874  -0.217 -0.23 +0.00    +0.035 A 
ATOM     27  C43 UNL     1      31.526   8.359  -0.650 -0.16 +0.00    +0.005 A 
ATOM     28  C44 UNL     1      31.602   7.014  -1.004 -0.07 +0.00    +0.034 A 
ATOM     29  C45 UNL     1      30.454   6.221  -0.930 -0.07 +0.00    +0.084 A 
ATOM     30  N9  UNL     1      29.248   6.717  -0.557 -0.05 -0.00    -0.348 N 
ATOM     31  H9  UNL     1      28.408   6.138  -0.555 +0.09 +0.00    +0.166 HD
BRANCH  29  32
ATOM     32  C46 UNL     1      30.549   4.751  -1.193 -0.04 +0.00    +0.168 C 
BRANCH  32  33
ATOM     33  N10 UNL     1      29.898   3.717  -0.777 -0.03 -0.00    -0.334 N 
ATOM     34  H10 UNL     1      30.148   3.306   0.123 +0.08 +0.00    +0.168 HD
BRANCH  33  35
ATOM     35  C47 UNL     1      28.858   3.139  -1.521 -0.19 +0.00    +0.047 A 
ATOM     36  C48 UNL     1      27.556   3.667  -1.390 -0.27 -0.00    -0.027 A 
ATOM     37  C49 UNL     1      26.499   3.138  -2.168 -0.30 -0.00    -0.032 A 
ATOM     38  C56 UNL     1      27.290   4.785  -0.408 -0.34 +0.00    +0.051 C 
ATOM     39  C50 UNL     1      26.747   2.073  -3.063 -0.34 +0.00    +0.019 A 
ATOM     40  C55 UNL     1      25.111   3.730  -2.053 +0.57 +0.00    +0.050 C 
ATOM     41  C51 UNL     1      28.061   1.577  -3.234 -0.09 -0.00    -0.032 A 
ATOM     42  C52 UNL     1      29.126   2.142  -2.485 -0.16 -0.00    -0.027 A 
ATOM     43  C54 UNL     1      28.335   0.488  -4.246 -0.15 +0.00    +0.050 C 
ATOM     44  C53 UNL     1      30.544   1.667  -2.698 -0.14 +0.00    +0.051 C 
BRANCH  39  45
ATOM     45  N11 UNL     1      25.708   1.680  -3.938 -0.09 -0.00    -0.302 NA
ATOM     46  H63 UNL     1      25.223   0.869  -3.557 +0.07 +0.00    +0.124 HD
ATOM     47  H64 UNL     1      25.036   2.419  -4.119 +0.09 +0.00    +0.124 HD
ENDBRANCH  39  45
ENDBRANCH  33  35
ENDBRANCH  32  33
BRANCH  32  48
ATOM     48  O4  UNL     1      31.557   4.457  -2.041 +0.01 -0.00    -0.344 OA
ATOM     49  H65 UNL     1      31.962   5.310  -2.282 +0.04 +0.00    +0.219 HD
ENDBRANCH  32  48
ENDBRANCH  29  32
ENDBRANCH  22  25
ENDBRANCH  15  21
ENDBRANCH   9  11
ENDBRANCH   8   9
BRANCH   8  50
ATOM     50  O5  UNL     1      21.742  10.594   1.105 +0.06 -0.00    -0.344 OA
ATOM     51  H66 UNL     1      22.698  10.650   1.259 +0.27 +0.00    +0.219 HD
ENDBRANCH   8  50
ENDBRANCH   5   8
BRANCH   1  52
ATOM     52  C25 UNL     1      16.605   8.256   2.748 -0.39 +0.00    +0.272 C 
ATOM     53  N5  UNL     1      15.355   8.665   3.182 -0.25 -0.00    -0.321 N 
ATOM     54  H61 UNL     1      15.255   9.678   3.171 +0.06 +0.00    +0.169 HD
ATOM     55  O2  UNL     1      16.950   7.132   2.408 -0.50 -0.00    -0.266 OA
BRANCH  53  56
ATOM     56  C20 UNL     1      14.174   7.889   3.250 -0.40 +0.00    +0.048 C 
ATOM     57  C19 UNL     1      13.502   7.621   4.463 -0.51 -0.00    -0.026 C 
ATOM     58  C18 UNL     1      12.368   6.759   4.465 -0.43 -0.00    -0.026 C 
ATOM     59  C59 UNL     1      13.916   8.266   5.767 -0.11 +0.00    +0.051 C 
ATOM     60  C17 UNL     1      11.782   6.370   3.241 -0.33 +0.00    +0.048 C 
ATOM     61  C60 UNL     1      11.859   6.247   5.794 -0.38 +0.00    +0.051 C 
ATOM     62  C22 UNL     1      12.403   6.720   2.016 -0.38 -0.00    -0.026 C 
ATOM     63  C21 UNL     1      13.640   7.417   2.025 +1.99 -0.00    -0.026 C 
ATOM     64  C23 UNL     1      11.757   6.349   0.697 -0.41 +0.00    +0.051 C 
ATOM     65  C24 UNL     1      14.380   7.660   0.724 +7.49 +0.00    +0.051 C 
BRANCH  60  66
ATOM     66  N4  UNL     1      10.608   5.585   3.166 -0.09 -0.00    -0.321 N 
ATOM     67  C16 UNL     1       9.766   5.435   2.077 -0.06 +0.00    +0.272 C 
ATOM     68  O1  UNL     1       9.830   6.005   0.996 -0.16 -0.00    -0.266 OA
ATOM     69  H60 UNL     1      10.496   4.836   3.846 +0.02 +0.00    +0.169 HD
BRANCH  67  70
ATOM     70  C12 UNL     1       8.715   4.390   2.305 -0.13 +0.00    +0.101 A 
ATOM     71  C13 UNL     1       8.675   3.679   3.497 -0.26 +0.00    +0.035 A 
ATOM     72  C14 UNL     1       7.675   2.726   3.661 -0.19 +0.00    +0.005 A 
ATOM     73  C15 UNL     1       6.755   2.519   2.636 -0.23 +0.00    +0.034 A 
ATOM     74  C11 UNL     1       6.867   3.280   1.474 -0.09 +0.00    +0.084 A 
ATOM     75  N3  UNL     1       7.831   4.215   1.285 -0.00 -0.00    -0.348 N 
ATOM     76  H3  UNL     1       7.891   4.760   0.424 +0.07 +0.00    +0.166 HD
BRANCH  74  77
ATOM     77  C10 UNL     1       5.886   3.080   0.369 -0.07 +0.00    +0.168 C 
BRANCH  77  78
ATOM     78  N2  UNL     1       5.896   3.765  -0.731 -0.04 -0.00    -0.334 N 
ATOM     79  H2  UNL     1       5.199   3.582  -1.453 +0.03 +0.00    +0.168 HD
BRANCH  78  80
ATOM     80  C4  UNL     1       6.868   4.763  -0.929 +0.11 +0.00    +0.047 C 
ATOM     81  C3  UNL     1       6.733   6.010  -0.284 +0.20 -0.00    -0.027 C 
ATOM     82  C2  UNL     1       7.659   7.046  -0.558 -0.23 -0.00    -0.032 C 
ATOM     83  C61 UNL     1       5.571   6.240   0.656 -0.18 +0.00    +0.051 C 
ATOM     84  C1  UNL     1       7.467   8.416   0.054 +0.27 +0.00    +0.050 C 
ATOM     85  C7  UNL     1       8.792   6.779  -1.365 -0.31 +0.00    +0.019 C 
ATOM     86  C6  UNL     1       8.890   5.547  -2.057 -0.16 -0.00    -0.032 C 
ATOM     87  C5  UNL     1       7.963   4.513  -1.783 -0.05 -0.00    -0.027 C 
ATOM     88  C8  UNL     1      10.012   5.319  -3.044 -0.25 +0.00    +0.050 C 
ATOM     89  C9  UNL     1       8.105   3.155  -2.432 -0.15 +0.00    +0.051 C 
BRANCH  85  90
ATOM     90  N1  UNL     1       9.719   7.810  -1.634 -0.22 -0.00    -0.302 NA
ATOM     91  H58 UNL     1      10.091   7.779  -2.577 +0.07 +0.00    +0.124 HD
ATOM     92  H59 UNL     1      10.475   7.858  -0.960 -0.02 +0.00    +0.124 HD
ENDBRANCH  85  90
ENDBRANCH  78  80
ENDBRANCH  77  78
BRANCH  77  93
ATOM     93  O6  UNL     1       4.996   2.103   0.650 -0.06 -0.00    -0.344 OA
ATOM     94  H67 UNL     1       5.445   1.275   0.878 +0.07 +0.00    +0.219 HD
ENDBRANCH  77  93
ENDBRANCH  74  77
ENDBRANCH  67  70
ENDBRANCH  60  66
ENDBRANCH  53  56
ENDBRANCH   1  52
TORSDOF 20
TER
