USER    Run = 1
USER    DPF = ligand_120_receptor.dpf
USER  
USER    Estimated Free Energy of Binding    =  +3.37e+004 kcal/mol  [=(1)+(2)+(3)-(4)]
USER    
USER    (1) Final Intermolecular Energy     =  +3.37e+004 kcal/mol
USER        vdW + Hbond + desolv Energy     =  +3.37e+004 kcal/mol
USER        Electrostatic Energy            =   +0.00 kcal/mol
USER    (2) Final Total Internal Energy     =   +0.00 kcal/mol
USER    (3) Torsional Free Energy           =   +1.19 kcal/mol
USER    (4) Unbound System's Energy  [=(2)] =   +0.00 kcal/mol
USER    
USER    
USER    NEWDPF move ligand_120.pdbqt
USER    NEWDPF about 0.000000 0.000000 0.000000
USER    NEWDPF tran0 17.681699 7.850489 3.639317
USER    NEWDPF quaternion0 0.085908 0.061949 0.126533 -0.986292
USER    NEWDPF axisangle0 0.520623 0.375424 0.766817 -18.995656
USER    NEWDPF quat0 0.520623 0.375424 0.766817 -18.995656
USER  keepresnum = 1 
USER  
REMARK  0 active torsions:
REMARK  status: ('A' for Active; 'I' for Inactive)
REMARK       I    between atoms: C2_2  and  C3_3 
REMARK       I    between atoms: C3_3  and  C5_5 
REMARK       I    between atoms: C5_5  and  C6_6 
REMARK       I    between atoms: C5_5  and  N3_90 
REMARK       I    between atoms: C6_6  and  C7_7 
REMARK       I    between atoms: C6_6  and  O5_78 
REMARK       I    between atoms: C7_7  and  C8_8 
REMARK       I    between atoms: C8_8  and  N1_88 
REMARK       I    between atoms: C12_12  and  C13_13 
REMARK       I    between atoms: C13_13  and  C14_14 
REMARK       I    between atoms: C13_13  and  O4_77 
REMARK       I    between atoms: C14_14  and  C16_16 
REMARK       I    between atoms: C16_16  and  N2_89 
REMARK       I    between atoms: C17_17  and  C19_19 
REMARK       I    between atoms: C17_17  and  N2_89 
REMARK       I    between atoms: C19_19  and  C20_20 
REMARK       I    between atoms: C19_19  and  O3_76 
REMARK       I    between atoms: C29_29  and  C30_30 
REMARK       I    between atoms: C29_29  and  N3_90 
REMARK       I    between atoms: C30_30  and  C31_31 
REMARK       I    between atoms: C30_30  and  N4_91 
REMARK       I    between atoms: C34_34  and  C35_35 
REMARK       I    between atoms: C34_34  and  N4_91 
REMARK       I    between atoms: C35_35  and  C36_36 
REMARK       I    between atoms: C35_35  and  N5_92 
REMARK       I    between atoms: C40_40  and  O9_82 
REMARK       I    between atoms: C40_40  and  N5_92 
REMARK       I    between atoms: C41_41  and  C42_42 
REMARK       I    between atoms: C41_41  and  O9_82 
REMARK       I    between atoms: C45_45  and  N6_93 
REMARK       I    between atoms: C48_48  and  C49_49 
REMARK       I    between atoms: C48_48  and  N6_93 
REMARK       I    between atoms: C49_49  and  C50_50 
REMARK       I    between atoms: C49_49  and  N9_96 
REMARK       I    between atoms: C50_50  and  C51_51 
REMARK       I    between atoms: C51_51  and  C52_52 
REMARK       I    between atoms: C52_52  and  N7_94 
REMARK       I    between atoms: C53_53  and  N7_94 
REMARK       I    between atoms: C53_53  and  N8_95 
REMARK       I    between atoms: C54_54  and  C55_55 
REMARK       I    between atoms: C54_54  and  N9_96 
REMARK       I    between atoms: C55_55  and  C56_56 
REMARK       I    between atoms: C55_55  and  N10_97 
REMARK       I    between atoms: C59_59  and  O14_87 
REMARK       I    between atoms: C59_59  and  N10_97 
REMARK       I    between atoms: C60_60  and  C61_61 
REMARK       I    between atoms: C60_60  and  O14_87 
USER                              x       y       z     vdW  Elec       q    Type
USER                           _______ _______ _______ _____ _____    ______ ____
ROOT
ATOM      1  C1  UNL     1      15.942   5.390   2.824+99.99 +0.00    +0.005 C 
ATOM      2  C2  UNL     1      17.219   5.631   3.619+99.99 +0.00    +0.002 C 
ATOM      3  C3  UNL     1      18.263   6.516   2.893 +3.59 +0.00    +0.006 C 
ATOM      4  C4  UNL     1      18.649   5.902   1.539+99.99 +0.00    +0.012 C 
ATOM      5  C5  UNL     1      19.525   6.738   3.796 +8.26 +0.00    +0.119 C 
ATOM      6  C6  UNL     1      20.731   7.497   3.123+52.53 +0.00    +0.152 C 
ATOM      7  C7  UNL     1      20.371   8.845   2.480 +1.32 +0.00    +0.137 C 
ATOM      8  C8  UNL     1      21.288   9.151   1.305 +1.15 +0.00    +0.222 C 
ATOM      9  C9  UNL     1      20.865  11.610   1.624 +2.32 +0.00    +0.126 C 
ATOM     10  C10 UNL     1      20.959  12.637   0.508 +4.85 +0.00    +0.022 C 
ATOM     11  C11 UNL     1      22.365  12.424  -0.029+27.07 +0.00    +0.029 C 
ATOM     12  C12 UNL     1      22.573  10.899   0.078 +0.77 +0.00    +0.117 C 
ATOM     13  C13 UNL     1      24.075  10.539   0.313+14.33 +0.00    +0.156 C 
ATOM     14  C14 UNL     1      24.630  10.937   1.706 +4.49 +0.00    +0.105 C 
ATOM     15  C15 UNL     1      24.324   9.970   2.853 -0.59 +0.00    +0.022 C 
ATOM     16  C16 UNL     1      26.139  11.112   1.577+18.89 +0.00    +0.224 C 
ATOM     17  C17 UNL     1      28.251   9.985   0.937+91.37 +0.00    +0.113 C 
ATOM     18  C18 UNL     1      28.851   8.607   1.224 +0.68 +0.00    +0.035 C 
ATOM     19  C19 UNL     1      28.414  10.424  -0.555+99.99 +0.00    +0.173 C 
ATOM     20  C20 UNL     1      29.820  10.730  -1.056+30.43 -0.00    -0.028 A 
ATOM     21  C21 UNL     1      30.046  10.816  -2.445+99.99 +0.00    +0.010 A 
ATOM     22  C22 UNL     1      31.309  11.116  -2.958+99.99 +0.00    +0.001 A 
ATOM     23  C23 UNL     1      32.371  11.354  -2.092 +6.70 +0.00    +0.000 A 
ATOM     24  C24 UNL     1      32.166  11.302  -0.716 -0.02 +0.00    +0.001 A 
ATOM     25  C25 UNL     1      30.899  11.003  -0.203 +0.66 +0.00    +0.010 A 
ATOM     26  C26 UNL     1      24.318   8.725  -1.248 +2.36 +0.00    +0.202 C 
ATOM     27  C27 UNL     1      22.583   6.679   4.415+99.99 +0.00    +0.202 C 
ATOM     28  C28 UNL     1      18.764   8.681   5.205+24.22 +0.00    +0.153 C 
ATOM     29  C29 UNL     1      19.413   6.479   6.250+70.10 +0.00    +0.243 C 
ATOM     30  C30 UNL     1      19.511   7.059   7.695+99.99 +0.00    +0.180 C 
ATOM     31  C31 UNL     1      18.231   6.762   8.518+76.62 +0.00    +0.009 C 
ATOM     32  C32 UNL     1      16.989   7.526   8.063+99.99 +0.00    +0.012 C 
ATOM     33  C33 UNL     1      18.470   7.013  10.012+99.99 +0.00    +0.012 C 
ATOM     34  C34 UNL     1      21.324   8.751   7.743 +0.56 +0.00    +0.241 C 
ATOM     35  C35 UNL     1      21.608  10.270   7.590 +1.27 +0.00    +0.184 C 
ATOM     36  C36 UNL     1      23.040  10.739   7.963 +5.10 +0.00    +0.010 C 
ATOM     37  C37 UNL     1      23.606  10.156   9.262+65.27 +0.00    +0.012 C 
ATOM     38  C38 UNL     1      24.021  10.459   6.816+33.34 +0.00    +0.012 C 
ATOM     39  C39 UNL     1      20.432  11.132   9.665 -0.34 +0.00    +0.156 C 
ATOM     40  C40 UNL     1      19.728  11.875   7.397+40.46 +0.00    +0.363 C 
ATOM     41  C41 UNL     1      17.797  13.238   7.321+99.99 +0.00    +0.219 C 
ATOM     42  C42 UNL     1      16.713  12.247   6.982+27.83 -0.00    -0.034 A 
ATOM     43  C43 UNL     1      15.846  11.772   7.972 +6.25 +0.00    +0.011 A 
ATOM     44  C44 UNL     1      14.912  10.775   7.675 +6.16 +0.00    +0.030 A 
ATOM     45  C45 UNL     1      14.841  10.222   6.391+52.09 +0.00    +0.034 A 
ATOM     46  C46 UNL     1      15.679  10.722   5.396+99.99 +0.00    +0.030 A 
ATOM     47  C47 UNL     1      16.609  11.725   5.689+67.05 +0.00    +0.011 A 
ATOM     48  C48 UNL     1      13.795   8.370   5.067 -0.24 +0.00    +0.245 C 
ATOM     49  C49 UNL     1      12.794   7.208   5.269 -0.34 +0.00    +0.177 C 
ATOM     50  C50 UNL     1      13.439   6.120   6.137 -0.51 +0.00    +0.036 C 
ATOM     51  C51 UNL     1      12.598   4.851   6.316 -0.54 +0.00    +0.022 C 
ATOM     52  C52 UNL     1      11.184   5.119   6.828 -0.36 +0.00    +0.124 C 
ATOM     53  C53 UNL     1      10.725   3.368   8.468 +2.50 +0.00    +0.291 C 
ATOM     54  C54 UNL     1      11.217   7.029   3.377 -0.27 +0.00    +0.241 C 
ATOM     55  C55 UNL     1      11.013   6.502   1.939 -0.27 +0.00    +0.182 C 
ATOM     56  C56 UNL     1      11.531   7.457   0.840 +2.30 +0.00    +0.009 C 
ATOM     57  C57 UNL     1      13.056   7.435   0.730 +6.56 +0.00    +0.012 C 
ATOM     58  C58 UNL     1      11.041   8.900   0.999+99.99 +0.00    +0.012 C 
ATOM     59  C59 UNL     1       9.027   5.086   2.197 -0.04 +0.00    +0.361 C 
ATOM     60  C60 UNL     1       6.953   4.060   2.666 -0.10 +0.00    +0.194 C 
ATOM     61  C61 UNL     1       6.808   3.034   1.534 -0.11 +0.00    +0.078 A 
ATOM     62  C62 UNL     1       5.689   3.401   0.561 -0.09 -0.00    -0.036 A 
ATOM     63  C63 UNL     1       5.572   4.534  -0.229 -0.16 +0.00    +0.009 A 
ATOM     64  C64 UNL     1       4.450   4.650  -1.052 -0.10 +0.00    +0.001 A 
ATOM     65  C65 UNL     1       3.471   3.641  -1.078 -0.14 +0.00    +0.001 A 
ATOM     66  C66 UNL     1       3.599   2.498  -0.284 -0.09 +0.00    +0.013 A 
ATOM     67  C67 UNL     1       4.712   2.382   0.534 -0.11 -0.00    -0.018 A 
ATOM     68  C68 UNL     1       5.109   1.326   1.440 -0.15 -0.00    -0.018 A 
ATOM     69  C69 UNL     1       4.492   0.126   1.752 +3.89 +0.00    +0.013 A 
ATOM     70  C70 UNL     1       5.119  -0.729   2.664+60.41 +0.00    +0.001 A 
ATOM     71  C71 UNL     1       6.348  -0.383   3.249+99.99 +0.00    +0.001 A 
ATOM     72  C72 UNL     1       6.971   0.828   2.936 +3.49 +0.00    +0.009 A 
ATOM     73  C73 UNL     1       6.337   1.676   2.041 -0.23 -0.00    -0.036 A 
ATOM     74  O1  UNL     1      21.645   8.266   0.529 +5.36 -0.00    -0.273 OA
ATOM     75  O2  UNL     1      26.676  12.213   1.680+99.99 -0.00    -0.273 OA
ATOM     76  O3  UNL     1      27.821   9.406  -1.386+99.99 -0.00    -0.389 OA
ATOM     77  O4  UNL     1      24.378   9.146   0.108 +0.13 -0.00    -0.388 OA
ATOM     78  O5  UNL     1      21.761   7.794   4.095+99.99 -0.00    -0.388 OA
ATOM     79  O6  UNL     1      19.474   5.247   6.122+99.99 -0.00    -0.271 OA
ATOM     80  O7  UNL     1      22.196   7.890   7.675 +1.30 -0.00    -0.271 OA
ATOM     81  O8  UNL     1      19.802  11.890   6.174+99.99 -0.00    -0.238 OA
ATOM     82  O9  UNL     1      18.805  12.581   8.102 +1.12 -0.00    -0.299 OA
ATOM     83  O10 UNL     1      14.421   8.490   4.014 -0.34 -0.00    -0.271 OA
ATOM     84  O11 UNL     1      11.491   3.801   9.314 +5.50 -0.00    -0.254 OA
ATOM     85  O12 UNL     1      10.365   7.698   3.961 -0.29 -0.00    -0.271 OA
ATOM     86  O13 UNL     1       9.641   4.079   2.509 +0.14 -0.00    -0.239 OA
ATOM     87  O14 UNL     1       7.680   5.225   2.229 -0.06 -0.00    -0.303 OA
ATOM     88  N1  UNL     1      21.635  10.480   1.124 +0.04 -0.00    -0.345 N 
ATOM     89  N2  UNL     1      26.835   9.954   1.312 +2.93 -0.00    -0.354 N 
ATOM     90  N3  UNL     1      19.174   7.290   5.139 +6.59 -0.00    -0.347 N 
ATOM     91  N4  UNL     1      19.978   8.435   7.819+99.99 -0.00    -0.346 N 
ATOM     92  N5  UNL     1      20.540  11.100   8.212 +0.09 -0.00    -0.319 N 
ATOM     93  N6  UNL     1      13.937   9.159   6.198 +0.56 -0.00    -0.325 N 
ATOM     94  N7  UNL     1      10.525   3.893   7.226 -0.21 -0.00    -0.348 N 
ATOM     95  N8  UNL     1       9.965   2.264   8.683 +6.42 -0.00    -0.254 NA
ATOM     96  N9  UNL     1      12.414   6.683   3.962 -0.17 -0.00    -0.346 N 
ATOM     97  N10 UNL     1       9.583   6.255   1.775 -0.10 -0.00    -0.323 N 
ATOM     98  H96 UNL     1      28.528   8.772  -1.597 +0.29 +0.00    +0.210 HD
ATOM     99  H97 UNL     1      26.272   9.201   0.913 +0.11 +0.00    +0.163 HD
ATOM    100  H98 UNL     1      19.319   9.200   7.758+27.85 +0.00    +0.163 HD
ATOM    101  H99 UNL     1      13.364   8.920   6.999 +0.13 +0.00    +0.169 HD
ATOM    102  HA0 UNL     1       9.618   3.703   6.824 +0.11 +0.00    +0.163 HD
ATOM    103  HA1 UNL     1      10.202   1.795   9.548+21.49 +0.00    +0.128 HD
ATOM    104  HA2 UNL     1       9.871   1.642   7.893 +0.28 +0.00    +0.128 HD
ATOM    105  HA3 UNL     1      13.178   6.413   3.353 +0.01 +0.00    +0.163 HD
ATOM    106  HA4 UNL     1       8.957   7.044   1.874 +0.10 +0.00    +0.165 HD
ENDROOT
TORSDOF 37
TER
