USER    Run = 1
USER    DPF = ligand_216_receptor.dpf
USER  
USER    Estimated Free Energy of Binding    =  +28.68 kcal/mol  [=(1)+(2)+(3)-(4)]
USER    
USER    (1) Final Intermolecular Energy     =  +27.49 kcal/mol
USER        vdW + Hbond + desolv Energy     =  +27.49 kcal/mol
USER        Electrostatic Energy            =   +0.00 kcal/mol
USER    (2) Final Total Internal Energy     =   +1.45 kcal/mol
USER    (3) Torsional Free Energy           =   +1.19 kcal/mol
USER    (4) Unbound System's Energy  [=(2)] =   +1.45 kcal/mol
USER    
USER    
USER    NEWDPF move ligand_216.pdbqt
USER    NEWDPF about 0.000000 0.000000 0.000000
USER    NEWDPF tran0 17.883340 9.451090 3.351106
USER    NEWDPF quaternion0 0.060185 -0.419293 0.866608 0.263744
USER    NEWDPF axisangle0 0.062395 -0.434684 0.898419 149.415329
USER    NEWDPF quat0 0.062395 -0.434684 0.898419 149.415329
USER    NEWDPF dihe0 -135.33 171.98 73.22 58.82 -6.76 -12.21 104.12 84.01 180.00 156.45 89.72 60.93 -94.51 -66.54 58.88 -180.00 16.33 -17.76 30.56 -166.41 -105.38 59.03 
USER  keepresnum = 1 
USER  
REMARK  22 active torsions:
REMARK  status: ('A' for Active; 'I' for Inactive)
REMARK    1  A    between atoms: C4_4  and  O1_60 
REMARK    2  A    between atoms: C5_5  and  O1_60 
REMARK    3  A    between atoms: C6_6  and  N11_55 
REMARK    4  A    between atoms: C8_8  and  C34_34 
REMARK    5  A    between atoms: C10_10  and  N2_43 
REMARK    6  A    between atoms: C11_11  and  C12_12 
REMARK       I    between atoms: C11_11  and  N2_43 
REMARK    7  A    between atoms: C14_14  and  C16_16 
REMARK       I    between atoms: C16_16  and  N5_48 
REMARK    8  A    between atoms: C17_17  and  N5_48 
REMARK    9  A    between atoms: C19_19  and  C33_33 
REMARK   10  A    between atoms: C21_21  and  N7_50 
REMARK   11  A    between atoms: C22_22  and  O4_63 
REMARK   12  A    between atoms: C23_23  and  O4_63 
REMARK   13  A    between atoms: C27_27  and  C28_28 
REMARK       I    between atoms: C27_27  and  N7_50 
REMARK   14  A    between atoms: C28_28  and  C29_29 
REMARK   15  A    between atoms: C29_29  and  C30_30 
REMARK   16  A    between atoms: C30_30  and  C31_31 
REMARK   17  A    between atoms: C31_31  and  N8_51 
REMARK       I    between atoms: C32_32  and  N9_53 
REMARK       I    between atoms: C32_32  and  N10_54 
REMARK   18  A    between atoms: C35_35  and  C36_36 
REMARK       I    between atoms: C35_35  and  N11_55 
REMARK   19  A    between atoms: C36_36  and  C37_37 
REMARK   20  A    between atoms: C37_37  and  C38_38 
REMARK   21  A    between atoms: C38_38  and  C39_39 
REMARK   22  A    between atoms: C39_39  and  N12_56 
REMARK       I    between atoms: C40_40  and  N13_58 
REMARK       I    between atoms: C40_40  and  N14_59 
USER                              x       y       z     vdW  Elec       q    Type
USER                           _______ _______ _______ _____ _____    ______ ____
ROOT
ATOM      1  C12 UNL     1      16.071   9.550   3.121 -0.38 +0.00    +0.104 A 
ATOM      2  C13 UNL     1      17.191   8.983   2.564 -0.46 +0.00    +0.070 A 
ATOM      3  C14 UNL     1      18.261   9.835   2.447 -0.37 +0.00    +0.104 A 
ATOM      4  C15 UNL     1      17.100  11.570   3.369 +0.18 +0.00    +0.181 A 
ATOM      5  N3  UNL     1      18.247  11.135   2.839 -0.17 -0.00    -0.348 N 
ATOM      6  H3  UNL     1      19.060  11.741   2.735 +0.13 +0.00    +0.167 HD
ATOM      7  N4  UNL     1      15.990  10.842   3.535 +1.27 -0.00    -0.348 N 
ATOM      8  H4  UNL     1      15.140  11.231   3.945 +5.12 +0.00    +0.167 HD
ENDROOT
BRANCH   1   9
ATOM      9  C11 UNL     1      14.828   8.726   3.308 -0.24 +0.00    +0.272 C 
ATOM     10  N2  UNL     1      14.934   7.839   4.362 -0.29 -0.00    -0.319 N 
ATOM     11  H34 UNL     1      15.865   7.827   4.774 +0.11 +0.00    +0.169 HD
ATOM     12  O2  UNL     1      13.890   8.886   2.541 +8.13 -0.00    -0.266 OA
BRANCH  10  13
ATOM     13  C10 UNL     1      14.029   6.852   4.814 -0.39 +0.00    +0.071 A 
ATOM     14  C5  UNL     1      12.923   6.339   4.121 -0.06 +0.00    +0.123 A 
ATOM     15  C6  UNL     1      12.167   5.267   4.646 +0.46 +0.00    +0.071 A 
ATOM     16  C7  UNL     1      12.454   4.780   5.919 -0.41 +0.00    +0.048 A 
ATOM     17  C8  UNL     1      13.515   5.316   6.660 -0.50 +0.00    +0.052 A 
ATOM     18  C9  UNL     1      14.289   6.348   6.098 -0.42 +0.00    +0.048 A 
BRANCH  14  19
ATOM     19  O1  UNL     1      12.474   6.861   2.931 -0.28 -0.00    -0.336 OA
BRANCH  19  20
ATOM     20  C4  UNL     1      11.590   7.961   3.137 -0.12 +0.00    +0.168 C 
ATOM     21  C1  UNL     1      10.187   7.561   2.716 -0.33 +0.00    +0.057 C 
ATOM     22  C2  UNL     1       9.620   6.947   3.986 -0.29 +0.00    +0.121 C 
ATOM     23  N1  UNL     1      10.222   7.708   5.101 +0.00 -0.00    -0.400 N 
ATOM     24  C3  UNL     1      11.291   8.236   4.590 -0.37 +0.00    +0.087 C 
ATOM     25  H1  UNL     1       9.875   7.798   6.056 +0.16 +0.00    +0.158 HD
ENDBRANCH  19  20
ENDBRANCH  14  19
BRANCH  15  26
ATOM     26  N11 UNL     1      11.131   4.759   3.837 +0.12 -0.00    -0.325 N 
ATOM     27  C35 UNL     1       9.946   4.177   4.226 -0.24 +0.00    +0.222 C 
ATOM     28  O6  UNL     1       9.598   3.941   5.379 -0.25 -0.00    -0.273 OA
ATOM     29  H42 UNL     1      11.303   4.812   2.829 -0.45 +0.00    +0.169 HD
BRANCH  27  30
ATOM     30  C36 UNL     1       9.037   3.865   3.051 -0.22 +0.00    +0.103 C 
BRANCH  30  31
ATOM     31  C37 UNL     1       7.894   2.941   3.441 -0.30 +0.00    +0.011 C 
BRANCH  31  32
ATOM     32  C38 UNL     1       7.220   2.203   2.281 -0.29 +0.00    +0.020 C 
BRANCH  32  33
ATOM     33  C39 UNL     1       8.135   1.927   1.084 -0.22 +0.00    +0.121 C 
BRANCH  33  34
ATOM     34  N12 UNL     1       8.146   3.091   0.196 +0.01 -0.00    -0.372 N 
ATOM     35  C40 UNL     1       7.299   3.113  -0.766 -0.08 +0.00    +0.121 C 
ATOM     36  N13 UNL     1       6.308   2.242  -1.070 -0.02 -0.00    -0.279 NA
ATOM     37  N14 UNL     1       7.318   4.093  -1.693 -0.03 -0.00    -0.279 NA
ATOM     38  H43 UNL     1       6.353   1.355  -0.590 +0.04 +0.00    +0.126 HD
ATOM     39  H44 UNL     1       6.219   2.110  -2.071 +0.03 +0.00    +0.126 HD
ATOM     40  H45 UNL     1       7.932   4.870  -1.450 -0.07 +0.00    +0.126 HD
ATOM     41  H46 UNL     1       6.407   4.453  -1.943 -0.34 +0.00    +0.126 HD
ATOM     42  H12 UNL     1       8.803   3.858   0.338 +0.06 +0.00    +0.161 HD
ENDBRANCH  33  34
ENDBRANCH  32  33
ENDBRANCH  31  32
ENDBRANCH  30  31
ENDBRANCH  27  30
ENDBRANCH  15  26
BRANCH  17  43
ATOM     43  C34 UNL     1      13.809   4.799   8.046 -0.28 +0.00    +0.417 C 
ATOM     44  F4  UNL     1      13.244   5.546   9.033 -0.06 -0.00    -0.166 F 
ATOM     45  F5  UNL     1      13.358   3.526   8.242 -0.15 -0.00    -0.166 F 
ATOM     46  F6  UNL     1      15.143   4.762   8.311 +0.53 -0.00    -0.166 F 
ENDBRANCH  17  43
ENDBRANCH  10  13
ENDBRANCH   1   9
BRANCH   3  47
ATOM     47  C16 UNL     1      19.545   9.340   1.852 +0.63 +0.00    +0.272 C 
ATOM     48  N5  UNL     1      20.616   9.440   2.712 -0.20 -0.00    -0.319 N 
ATOM     49  H35 UNL     1      20.404   9.826   3.633 +0.17 +0.00    +0.169 HD
ATOM     50  O3  UNL     1      19.555   8.902   0.707 +9.06 -0.00    -0.266 OA
BRANCH  48  51
ATOM     51  C17 UNL     1      21.960   9.068   2.505 -0.35 +0.00    +0.072 A 
ATOM     52  C18 UNL     1      22.887   8.949   3.540 -0.31 +0.00    +0.048 A 
ATOM     53  C19 UNL     1      24.218   8.595   3.271 -0.44 +0.00    +0.052 A 
ATOM     54  C20 UNL     1      24.607   8.346   1.944 -0.42 +0.00    +0.048 A 
ATOM     55  C21 UNL     1      23.687   8.416   0.888 -0.40 +0.00    +0.072 A 
ATOM     56  C22 UNL     1      22.375   8.828   1.176 -0.19 +0.00    +0.129 A 
BRANCH  53  57
ATOM     57  C33 UNL     1      25.216   8.509   4.400 +0.47 +0.00    +0.417 C 
ATOM     58  F1  UNL     1      26.458   8.939   4.051 +0.52 -0.00    -0.166 F 
ATOM     59  F2  UNL     1      25.367   7.236   4.859 +0.05 -0.00    -0.166 F 
ATOM     60  F3  UNL     1      24.858   9.253   5.486 +4.47 -0.00    -0.166 F 
ENDBRANCH  53  57
BRANCH  55  61
ATOM     61  N7  UNL     1      24.199   8.106  -0.394 -0.21 -0.00    -0.325 N 
ATOM     62  C27 UNL     1      23.594   7.344  -1.379 -0.38 +0.00    +0.222 C 
ATOM     63  O5  UNL     1      22.575   6.671  -1.270 -0.42 -0.00    -0.273 OA
ATOM     64  H37 UNL     1      25.180   8.306  -0.542 +0.12 +0.00    +0.169 HD
BRANCH  62  65
ATOM     65  C28 UNL     1      24.352   7.385  -2.695 +0.78 +0.00    +0.103 C 
BRANCH  65  66
ATOM     66  C29 UNL     1      25.397   6.275  -2.795 +2.47 +0.00    +0.011 C 
BRANCH  66  67
ATOM     67  C30 UNL     1      25.344   5.286  -1.624 -0.54 +0.00    +0.020 C 
BRANCH  67  68
ATOM     68  C31 UNL     1      26.696   5.140  -0.924 -0.34 +0.00    +0.121 C 
BRANCH  68  69
ATOM     69  N8  UNL     1      26.807   6.170   0.104 -0.09 -0.00    -0.372 N 
ATOM     70  C32 UNL     1      27.348   7.285  -0.209 -0.32 +0.00    +0.121 C 
ATOM     71  N9  UNL     1      27.449   8.266   0.712 -0.22 -0.00    -0.279 NA
ATOM     72  N10 UNL     1      27.871   7.698  -1.384 -0.11 -0.00    -0.279 NA
ATOM     73  H38 UNL     1      26.917   8.013   1.540 +0.08 +0.00    +0.126 HD
ATOM     74  H39 UNL     1      27.137   9.161   0.354 +0.07 +0.00    +0.126 HD
ATOM     75  H40 UNL     1      28.688   8.282  -1.251 +0.05 +0.00    +0.126 HD
ATOM     76  H41 UNL     1      28.065   6.953  -2.039 +0.04 +0.00    +0.126 HD
ATOM     77  H8  UNL     1      26.461   6.004   1.049 +0.11 +0.00    +0.161 HD
ENDBRANCH  68  69
ENDBRANCH  67  68
ENDBRANCH  66  67
ENDBRANCH  65  66
ENDBRANCH  62  65
ENDBRANCH  55  61
BRANCH  56  78
ATOM     78  O4  UNL     1      21.446   9.041   0.182 +0.13 -0.00    -0.309 OA
BRANCH  78  79
ATOM     79  C23 UNL     1      21.281  10.322  -0.281 +0.48 +0.00    +0.065 C 
ATOM     80  C24 UNL     1      22.173  11.239  -0.681 +0.66 +0.00    +0.089 C 
ATOM     81  N6  UNL     1      21.561  12.408  -1.075 +0.18 -0.00    -0.300 NA
ATOM     82  C25 UNL     1      20.111  12.194  -1.153 +2.48 +0.00    +0.098 C 
ATOM     83  H36 UNL     1      22.002  12.875  -1.862 -0.11 +0.00    +0.127 HD
ATOM     84  C26 UNL     1      19.886  10.862  -0.405 +1.22 +0.00    +0.080 C 
ENDBRANCH  78  79
ENDBRANCH  56  78
ENDBRANCH  48  51
ENDBRANCH   3  47
TORSDOF 22
TER
