USER    Run = 1
USER    DPF = ligand_328_receptor.dpf
USER  
USER    Estimated Free Energy of Binding    =  +5.77e+003 kcal/mol  [=(1)+(2)+(3)-(4)]
USER    
USER    (1) Final Intermolecular Energy     =  +5.76e+003 kcal/mol
USER        vdW + Hbond + desolv Energy     =  +5.76e+003 kcal/mol
USER        Electrostatic Energy            =   +0.00 kcal/mol
USER    (2) Final Total Internal Energy     =   +0.00 kcal/mol
USER    (3) Torsional Free Energy           =   +1.19 kcal/mol
USER    (4) Unbound System's Energy  [=(2)] =   +0.00 kcal/mol
USER    
USER    
USER    NEWDPF move ligand_328.pdbqt
USER    NEWDPF about 0.000000 0.000000 0.000000
USER    NEWDPF tran0 13.392554 6.873257 2.840295
USER    NEWDPF quaternion0 0.105605 -0.675783 -0.712847 0.154966
USER    NEWDPF axisangle0 0.106897 -0.684046 -0.721563 162.170358
USER    NEWDPF quat0 0.106897 -0.684046 -0.721563 162.170358
USER  keepresnum = 1 
USER  
REMARK  0 active torsions:
REMARK  status: ('A' for Active; 'I' for Inactive)
REMARK       I    between atoms: C4_4  and  C5_5 
REMARK       I    between atoms: C5_5  and  C6_6 
REMARK       I    between atoms: C6_6  and  C7_7 
REMARK       I    between atoms: C7_7  and  C8_8 
REMARK       I    between atoms: C8_8  and  C9_9 
REMARK       I    between atoms: C9_9  and  N1_62 
REMARK       I    between atoms: C10_10  and  C11_11 
REMARK       I    between atoms: C10_10  and  N1_62 
REMARK       I    between atoms: C11_11  and  C12_12 
REMARK       I    between atoms: C12_12  and  O2_51 
REMARK       I    between atoms: C13_13  and  C14_14 
REMARK       I    between atoms: C13_13  and  O2_51 
REMARK       I    between atoms: C14_14  and  O3_52 
REMARK       I    between atoms: C15_15  and  C16_16 
REMARK       I    between atoms: C15_15  and  O3_52 
REMARK       I    between atoms: C16_16  and  O4_53 
REMARK       I    between atoms: C17_17  and  C18_18 
REMARK       I    between atoms: C17_17  and  O4_53 
REMARK       I    between atoms: C18_18  and  C19_19 
REMARK       I    between atoms: C19_19  and  N2_63 
REMARK       I    between atoms: C20_20  and  C21_21 
REMARK       I    between atoms: C20_20  and  N2_63 
REMARK       I    between atoms: C21_21  and  C22_22 
REMARK       I    between atoms: C21_21  and  N6_67 
REMARK       I    between atoms: C22_22  and  C23_23 
REMARK       I    between atoms: C23_23  and  C24_24 
REMARK       I    between atoms: C24_24  and  C25_25 
REMARK       I    between atoms: C25_25  and  N3_64 
REMARK       I    between atoms: C26_26  and  C27_27 
REMARK       I    between atoms: C26_26  and  N3_64 
REMARK       I    between atoms: C27_27  and  C28_28 
REMARK       I    between atoms: C28_28  and  C29_29 
REMARK       I    between atoms: C29_29  and  C30_30 
REMARK       I    between atoms: C30_30  and  C31_31 
REMARK       I    between atoms: C31_31  and  N4_65 
REMARK       I    between atoms: C32_32  and  C33_33 
REMARK       I    between atoms: C32_32  and  N4_65 
REMARK       I    between atoms: C33_33  and  C34_34 
REMARK       I    between atoms: C34_34  and  C35_35 
REMARK       I    between atoms: C35_35  and  C36_36 
REMARK       I    between atoms: C36_36  and  C37_37 
REMARK       I    between atoms: C37_37  and  N5_66 
REMARK       I    between atoms: C38_38  and  C39_39 
REMARK       I    between atoms: C38_38  and  N6_67 
REMARK       I    between atoms: C39_39  and  C40_40 
REMARK       I    between atoms: C40_40  and  C41_41 
REMARK       I    between atoms: C41_41  and  N7_68 
REMARK       I    between atoms: C42_42  and  C43_43 
REMARK       I    between atoms: C42_42  and  N7_68 
REMARK       I    between atoms: C43_43  and  C44_44 
REMARK       I    between atoms: C44_44  and  C45_45 
REMARK       I    between atoms: C45_45  and  C46_46 
REMARK       I    between atoms: C46_46  and  C47_47 
REMARK       I    between atoms: C47_47  and  O11_60 
USER                              x       y       z     vdW  Elec       q    Type
USER                           _______ _______ _______ _____ _____    ______ ____
ROOT
ATOM      1  C1  UNL     1       8.919   4.273  -0.074 -0.13 +0.00    +0.101 C 
ATOM      2  C2  UNL     1      10.001   5.134  -0.740 -0.18 +0.00    +0.119 C 
ATOM      3  C3  UNL     1      10.186   6.441   0.047 -0.26 +0.00    +0.123 C 
ATOM      4  C4  UNL     1       8.889   6.810   0.762 -0.30 +0.00    +0.072 C 
ATOM      5  C5  UNL     1       9.038   7.791   1.931 -0.17 +0.00    +0.017 C 
ATOM      6  C6  UNL     1       9.704   9.104   1.502+99.99 +0.00    +0.002 C 
ATOM      7  C7  UNL     1       9.743  10.121   2.647+99.99 +0.00    +0.009 C 
ATOM      8  C8  UNL     1      10.544  11.372   2.281+99.99 +0.00    +0.103 C 
ATOM      9  C9  UNL     1       9.875  12.233   1.224+99.99 +0.00    +0.217 C 
ATOM     10  C10 UNL     1      10.281  14.140  -0.297+53.07 +0.00    +0.124 C 
ATOM     11  C11 UNL     1      10.352  13.522  -1.695+39.07 +0.00    +0.046 C 
ATOM     12  C12 UNL     1      11.727  12.960  -2.043+13.01 +0.00    +0.169 C 
ATOM     13  C13 UNL     1      14.044  13.569  -2.149+47.35 +0.00    +0.193 C 
ATOM     14  C14 UNL     1      14.611  12.365  -1.389+68.20 +0.00    +0.193 C 
ATOM     15  C15 UNL     1      15.432  11.810   0.785 +0.05 +0.00    +0.193 C 
ATOM     16  C16 UNL     1      15.170  10.304   0.758 +7.34 +0.00    +0.193 C 
ATOM     17  C17 UNL     1      15.992   8.241   1.651 +0.10 +0.00    +0.169 C 
ATOM     18  C18 UNL     1      14.736   7.786   2.389 +2.09 +0.00    +0.046 C 
ATOM     19  C19 UNL     1      14.891   6.396   3.005+99.99 +0.00    +0.125 C 
ATOM     20  C20 UNL     1      15.352   6.953   5.377 +0.30 +0.00    +0.240 C 
ATOM     21  C21 UNL     1      16.511   7.150   6.379+42.74 +0.00    +0.176 C 
ATOM     22  C22 UNL     1      16.037   7.250   7.837+99.99 +0.00    +0.035 C 
ATOM     23  C23 UNL     1      15.920   5.897   8.554+99.99 +0.00    +0.004 C 
ATOM     24  C24 UNL     1      14.760   4.994   8.125 +0.15 +0.00    +0.020 C 
ATOM     25  C25 UNL     1      13.378   5.568   8.457 -0.49 +0.00    +0.122 C 
ATOM     26  C26 UNL     1      11.845   4.919   6.639 -0.33 +0.00    +0.217 C 
ATOM     27  C27 UNL     1      11.283   5.391   5.311 -0.32 +0.00    +0.103 C 
ATOM     28  C28 UNL     1      10.708   4.266   4.451 -0.36 +0.00    +0.009 C 
ATOM     29  C29 UNL     1      11.779   3.290   3.961+14.43 +0.00    +0.002 C 
ATOM     30  C30 UNL     1      11.300   2.305   2.887+99.99 +0.00    +0.020 C 
ATOM     31  C31 UNL     1      10.146   1.402   3.312+99.99 +0.00    +0.122 C 
ATOM     32  C32 UNL     1       7.697   1.238   3.143 +8.99 +0.00    +0.217 C 
ATOM     33  C33 UNL     1       6.435   2.066   2.980 -0.29 +0.00    +0.103 C 
ATOM     34  C34 UNL     1       5.154   1.291   3.284 -0.38 +0.00    +0.009 C 
ATOM     35  C35 UNL     1       4.965   1.040   4.785 +0.79 +0.00    +0.002 C 
ATOM     36  C36 UNL     1       3.665   0.277   5.056 +0.85 +0.00    +0.030 C 
ATOM     37  C37 UNL     1       3.467  -0.089   6.529+99.99 +0.00    +0.267 C 
ATOM     38  C38 UNL     1      18.050   8.468   4.950 +4.72 +0.00    +0.218 C 
ATOM     39  C39 UNL     1      18.467   9.880   4.584+11.83 +0.00    +0.112 C 
ATOM     40  C40 UNL     1      19.346   9.927   3.341 +1.26 +0.00    +0.112 C 
ATOM     41  C41 UNL     1      20.803   9.691   3.678 +3.57 +0.00    +0.217 C 
ATOM     42  C42 UNL     1      22.443   7.958   4.324+99.99 +0.00    +0.122 C 
ATOM     43  C43 UNL     1      23.230   7.630   3.055 +8.52 +0.00    +0.020 C 
ATOM     44  C44 UNL     1      22.660   6.417   2.310+21.65 +0.00    +0.002 C 
ATOM     45  C45 UNL     1      23.377   6.125   0.989 -0.35 +0.00    +0.010 C 
ATOM     46  C46 UNL     1      24.838   5.716   1.165 -0.43 +0.00    +0.110 C 
ATOM     47  C47 UNL     1      25.457   5.297  -0.143 -0.43 +0.00    +0.139 C 
ATOM     48  C48 UNL     1      12.063   5.110   0.364 +2.66 +0.00    +0.316 C 
ATOM     49  S1  UNL     1       8.209   5.215   1.308 -0.17 -0.00    -0.160 SA
ATOM     50  O1  UNL     1       8.725  12.064   0.839+99.99 -0.00    -0.274 OA
ATOM     51  O2  UNL     1      12.718  13.944  -1.775+22.02 -0.00    -0.389 OA
ATOM     52  O3  UNL     1      14.493  12.567   0.021 +0.88 -0.00    -0.387 OA
ATOM     53  O4  UNL     1      16.102   9.666   1.631 -0.20 -0.00    -0.389 OA
ATOM     54  O5  UNL     1      14.207   7.351   5.587 -0.31 -0.00    -0.271 OA
ATOM     55  O6  UNL     1      11.602   3.820   7.126 -0.33 -0.00    -0.274 OA
ATOM     56  O7  UNL     1       7.698   0.023   3.305+99.99 -0.00    -0.274 OA
ATOM     57  O8  UNL     1      18.477   7.461   4.389 +0.32 -0.00    -0.274 OA
ATOM     58  O9  UNL     1      21.635  10.590   3.627 +0.28 -0.00    -0.274 OA
ATOM     59  O10 UNL     1      24.942   5.307  -1.247 -0.06 -0.00    -0.650 OA
ATOM     60  O11 UNL     1      26.729   4.881   0.017 -0.08 -0.00    -0.776 OA
ATOM     61  O12 UNL     1      13.178   4.782   0.720 +8.00 -0.00    -0.247 OA
ATOM     62  N1  UNL     1      10.696  13.231   0.751+99.99 -0.00    -0.361 N 
ATOM     63  N2  UNL     1      15.755   6.414   4.170+99.99 -0.00    -0.359 N 
ATOM     64  N3  UNL     1      12.627   5.871   7.258 -0.15 -0.00    -0.361 N 
ATOM     65  N4  UNL     1       8.849   1.994   3.048 +7.95 -0.00    -0.361 N 
ATOM     66  N5  UNL     1       3.315   1.078   7.393 +3.77 +0.00    +0.078 N 
ATOM     67  N6  UNL     1      17.141   8.416   5.983+99.99 -0.00    -0.348 N 
ATOM     68  N7  UNL     1      21.094   8.399   4.041 +7.90 -0.00    -0.361 N 
ATOM     69  N8  UNL     1      11.325   6.148   0.895 -0.18 -0.00    -0.335 N 
ATOM     70  N9  UNL     1      11.320   4.538  -0.647 -0.04 -0.00    -0.336 N 
ATOM     71  H77 UNL     1      27.017   4.646  -0.890 +0.09 +0.00    +0.167 HD
ATOM     72  H78 UNL     1      11.680  13.233   0.996+99.99 +0.00    +0.162 HD
ATOM     73  H79 UNL     1      16.761   6.343   4.014 +0.81 +0.00    +0.162 HD
ATOM     74  H80 UNL     1      12.961   6.645   6.680 +0.13 +0.00    +0.162 HD
ATOM     75  H81 UNL     1       8.752   3.001   3.093 -0.02 +0.00    +0.162 HD
ATOM     76  H82 UNL     1       4.184   1.609   7.407 +1.19 +0.00    +0.312 HD
ATOM     77  H83 UNL     1       2.607   1.700   7.007 +0.12 +0.00    +0.312 HD
ATOM     78  H84 UNL     1      16.626   9.265   6.192+22.43 +0.00    +0.163 HD
ATOM     79  H85 UNL     1      20.351   7.702   4.003 +0.19 +0.00    +0.162 HD
ATOM     80  H86 UNL     1      11.780   6.804   1.513 +0.08 +0.00    +0.164 HD
ATOM     81  H87 UNL     1      11.638   3.696  -1.110 +0.05 +0.00    +0.164 HD
ENDROOT
TORSDOF 48
TER
