USER    Run = 1
USER    DPF = ligand_354_receptor.dpf
USER  
USER    Estimated Free Energy of Binding    =   -1.29 kcal/mol  [=(1)+(2)+(3)-(4)]
USER    Estimated Inhibition Constant, Ki   =  113.75 mM (millimolar)  [Temperature = 298.15 K]
USER    
USER    (1) Final Intermolecular Energy     =   -2.48 kcal/mol
USER        vdW + Hbond + desolv Energy     =   -2.48 kcal/mol
USER        Electrostatic Energy            =   +0.00 kcal/mol
USER    (2) Final Total Internal Energy     =  +15.92 kcal/mol
USER    (3) Torsional Free Energy           =   +1.19 kcal/mol
USER    (4) Unbound System's Energy  [=(2)] =  +15.92 kcal/mol
USER    
USER    
USER    NEWDPF move ligand_354.pdbqt
USER    NEWDPF about 0.000000 0.000000 0.000000
USER    NEWDPF tran0 7.431702 7.552871 4.524368
USER    NEWDPF quaternion0 0.302162 0.675877 0.150611 0.655138
USER    NEWDPF axisangle0 0.399944 0.894597 0.199350 98.139818
USER    NEWDPF quat0 0.399944 0.894597 0.199350 98.139818
USER    NEWDPF dihe0 -1.83 3.53 69.68 118.49 6.87 170.99 96.78 54.93 155.00 99.92 180.00 146.88 -173.42 180.00 -153.50 176.91 180.00 180.00 -111.90 133.85 117.14 179.55 -180.00 180.00 -180.00 180.00 120.06 
USER  keepresnum = 1 
USER  
REMARK  27 active torsions:
REMARK  status: ('A' for Active; 'I' for Inactive)
REMARK    1  A    between atoms: C3_3  and  C5_5 
REMARK    2  A    between atoms: C8_8  and  C11_11 
REMARK    3  A    between atoms: C11_11  and  C12_12 
REMARK    4  A    between atoms: C11_11  and  N6_46 
REMARK    5  A    between atoms: C12_12  and  C13_13 
REMARK    6  A    between atoms: C13_13  and  N3_40 
REMARK    7  A    between atoms: C14_14  and  C15_15 
REMARK       I    between atoms: C14_14  and  N3_40 
REMARK    8  A    between atoms: C15_15  and  N4_42 
REMARK    9  A    between atoms: C16_16  and  C18_18 
REMARK   10  A    between atoms: C16_16  and  N4_42 
REMARK   11  A    between atoms: C18_18  and  N5_44 
REMARK   12  A    between atoms: C19_19  and  C20_20 
REMARK       I    between atoms: C19_19  and  N5_44 
REMARK   13  A    between atoms: C21_21  and  C22_22 
REMARK   14  A    between atoms: C21_21  and  N6_46 
REMARK   15  A    between atoms: C22_22  and  C23_23 
REMARK   16  A    between atoms: C23_23  and  C24_24 
REMARK   17  A    between atoms: C24_24  and  C25_25 
REMARK   18  A    between atoms: C25_25  and  N7_47 
REMARK   19  A    between atoms: C26_26  and  C27_27 
REMARK   20  A    between atoms: C26_26  and  N7_47 
REMARK   21  A    between atoms: C27_27  and  C28_28 
REMARK   22  A    between atoms: C28_28  and  C29_29 
REMARK   23  A    between atoms: C29_29  and  C30_30 
REMARK   24  A    between atoms: C30_30  and  O4_52 
REMARK   25  A    between atoms: C31_31  and  N2_39 
REMARK   26  A    between atoms: C34_34  and  S2_56 
REMARK   27  A    between atoms: N8_48  and  S2_56 
USER                              x       y       z     vdW  Elec       q    Type
USER                           _______ _______ _______ _____ _____    ______ ____
ROOT
ATOM      1  C11 UNL     1       9.468   6.283   4.540 -0.11 +0.00    +0.324 C 
ENDROOT
BRANCH   1   2
ATOM      2  C8  UNL     1       8.941   5.758   3.205 -0.22 -0.00    -0.018 A 
ATOM      3  C7  UNL     1       9.819   5.110   2.326 -0.03 +0.00    +0.011 A 
ATOM      4  C6  UNL     1       9.393   4.678   1.071 -0.03 +0.00    +0.014 A 
ATOM      5  C5  UNL     1       8.077   4.898   0.662 -0.13 -0.00    -0.007 A 
ATOM      6  C10 UNL     1       7.179   5.507   1.550 -0.16 +0.00    +0.014 A 
ATOM      7  C9  UNL     1       7.606   5.930   2.813 -0.20 +0.00    +0.011 A 
BRANCH   5   8
ATOM      8  C3  UNL     1       7.611   4.434  -0.641 -0.09 +0.00    +0.069 A 
ATOM      9  C4  UNL     1       8.095   4.855  -1.867 +0.14 +0.00    +0.058 A 
ATOM     10  C2  UNL     1       7.263   4.279  -2.832 +0.60 +0.00    +0.024 A 
ATOM     11  C1  UNL     1       7.318   4.445  -4.301 -0.03 +0.00    +0.070 C 
ATOM     12  N1  UNL     1       6.318   3.521  -2.281 -0.05 -0.00    -0.298 N 
ATOM     13  N2  UNL     1       6.544   3.574  -0.919 -0.04 -0.00    -0.256 N 
ATOM     14  H1  UNL     1       5.580   3.008  -2.764 +0.04 +0.00    +0.187 HD
BRANCH  13  15
ATOM     15  C31 UNL     1       5.738   2.745  -0.071 -0.08 +0.00    +0.057 A 
ATOM     16  C32 UNL     1       6.157   2.553   1.259 -0.12 +0.00    +0.033 A 
ATOM     17  C33 UNL     1       5.404   1.776   2.143 -0.21 +0.00    +0.027 A 
ATOM     18  C34 UNL     1       4.211   1.191   1.714 -0.16 +0.00    +0.074 A 
ATOM     19  C35 UNL     1       3.777   1.371   0.402 -0.14 +0.00    +0.027 A 
ATOM     20  C36 UNL     1       4.543   2.144  -0.490 -0.09 +0.00    +0.033 A 
BRANCH  18  21
ATOM     21  S2  UNL     1       3.226   0.295   2.894 -0.29 +0.00    +0.239 S 
ATOM     22  O5  UNL     1       2.497  -0.710   2.149 -0.37 -0.00    -0.206 OA
ATOM     23  O6  UNL     1       2.473   1.293   3.642 -0.10 -0.00    -0.206 OA
BRANCH  21  24
ATOM     24  N8  UNL     1       4.284  -0.407   3.957 -0.33 -0.00    -0.225 NA
ATOM     25  H46 UNL     1       5.112  -0.841   3.472 +0.15 +0.00    +0.136 HD
ATOM     26  H47 UNL     1       4.825   0.250   4.568 -0.01 +0.00    +0.136 HD
ENDBRANCH  21  24
ENDBRANCH  18  21
ENDBRANCH  13  15
ENDBRANCH   5   8
ENDBRANCH   1   2
BRANCH   1  27
ATOM     27  C12 UNL     1      11.025   6.313   4.540 -0.25 +0.00    +0.181 C 
ATOM     28  O1  UNL     1      11.680   7.283   4.117 -0.23 -0.00    -0.293 OA
BRANCH  27  29
ATOM     29  C13 UNL     1      11.753   5.135   5.194 -0.25 +0.00    +0.203 C 
BRANCH  29  30
ATOM     30  N3  UNL     1      12.480   5.596   6.380 -0.15 -0.00    -0.353 N 
ATOM     31  C14 UNL     1      11.667   6.172   7.286 -0.18 +0.00    +0.235 C 
ATOM     32  O2  UNL     1      10.858   7.067   7.037 +0.22 -0.00    -0.272 OA
ATOM     33  H3  UNL     1      13.486   5.493   6.505 +0.12 +0.00    +0.162 HD
BRANCH  31  34
ATOM     34  C15 UNL     1      11.932   5.656   8.724 -0.16 +0.00    +0.222 C 
BRANCH  34  35
ATOM     35  N4  UNL     1      13.138   6.272   9.315 -0.11 -0.00    -0.384 N 
ATOM     36  H4  UNL     1      13.613   5.843  10.109 +0.77 +0.00    +0.160 HD
BRANCH  35  37
ATOM     37  C16 UNL     1      13.596   7.441   8.760 -0.66 +0.00    +0.013 C 
ATOM     38  C17 UNL     1      14.301   8.441   9.328 +2.00 +0.00    +0.039 C 
BRANCH  37  39
ATOM     39  C18 UNL     1      13.216   7.545   7.235 -0.38 +0.00    +0.178 C 
BRANCH  39  40
ATOM     40  N5  UNL     1      14.349   7.227   6.325 +0.13 -0.00    -0.355 N 
ATOM     41  C19 UNL     1      14.630   8.164   5.399 +0.80 +0.00    +0.228 C 
ATOM     42  O3  UNL     1      13.942   9.137   5.082 +0.13 -0.00    -0.273 OA
ATOM     43  H5  UNL     1      14.877   6.357   6.398 +0.10 +0.00    +0.162 HD
BRANCH  41  44
ATOM     44  C20 UNL     1      15.991   7.821   4.727 -0.07 +0.00    +0.188 C 
ATOM     45  S1  UNL     1      16.642   8.962   3.383 -0.67 -0.00    -0.088 SA
ENDBRANCH  41  44
ENDBRANCH  39  40
ENDBRANCH  37  39
ENDBRANCH  35  37
ENDBRANCH  34  35
ENDBRANCH  31  34
ENDBRANCH  29  30
ENDBRANCH  27  29
ENDBRANCH   1  27
BRANCH   1  46
ATOM     46  N6  UNL     1       8.929   5.413   5.657 -0.24 +0.00    +0.099 N 
ATOM     47  H44 UNL     1       9.768   5.193   6.201 +0.21 +0.00    +0.317 HD
BRANCH  46  48
ATOM     48  C21 UNL     1       8.455   4.139   5.094 -0.22 +0.00    +0.271 C 
BRANCH  48  49
ATOM     49  C22 UNL     1       7.303   3.539   5.911 +0.92 +0.00    +0.030 C 
BRANCH  49  50
ATOM     50  C23 UNL     1       7.482   3.819   7.404 -0.47 +0.00    +0.003 C 
BRANCH  50  51
ATOM     51  C24 UNL     1       7.277   5.296   7.741 -0.38 +0.00    +0.030 C 
BRANCH  51  52
ATOM     52  C25 UNL     1       6.315   6.044   6.808 +0.03 +0.00    +0.269 C 
BRANCH  52  53
ATOM     53  N7  UNL     1       4.954   6.303   7.316 -0.38 +0.00    +0.083 N 
ATOM     54  H45 UNL     1       5.030   6.316   8.331 +0.22 +0.00    +0.315 HD
BRANCH  53  55
ATOM     55  C26 UNL     1       3.948   5.309   6.941 -0.25 +0.00    +0.269 C 
BRANCH  55  56
ATOM     56  C27 UNL     1       2.942   5.746   5.861 -0.20 +0.00    +0.030 C 
BRANCH  56  57
ATOM     57  C28 UNL     1       3.566   6.267   4.563 -0.21 +0.00    +0.004 C 
BRANCH  57  58
ATOM     58  C29 UNL     1       3.547   5.231   3.431 -0.18 +0.00    +0.026 C 
BRANCH  58  59
ATOM     59  C30 UNL     1       3.945   5.843   2.095 +0.06 +0.00    +0.164 C 
BRANCH  59  60
ATOM     60  O4  UNL     1       3.861   4.878   1.056 -0.53 -0.00    -0.401 OA
ATOM     61  H48 UNL     1       4.621   5.126   0.464 +0.05 +0.00    +0.209 HD
ENDBRANCH  59  60
ENDBRANCH  58  59
ENDBRANCH  57  58
ENDBRANCH  56  57
ENDBRANCH  55  56
ENDBRANCH  53  55
ENDBRANCH  52  53
ENDBRANCH  51  52
ENDBRANCH  50  51
ENDBRANCH  49  50
ENDBRANCH  48  49
ENDBRANCH  46  48
ENDBRANCH   1  46
TORSDOF 27
TER
