USER    Run = 1
USER    DPF = ligand_285_receptor.dpf
USER  
USER    Estimated Free Energy of Binding    =  +6.08e+004 kcal/mol  [=(1)+(2)+(3)-(4)]
USER    
USER    (1) Final Intermolecular Energy     =  +6.08e+004 kcal/mol
USER        vdW + Hbond + desolv Energy     =  +6.08e+004 kcal/mol
USER        Electrostatic Energy            =   +0.00 kcal/mol
USER    (2) Final Total Internal Energy     =   +0.00 kcal/mol
USER    (3) Torsional Free Energy           =   +1.19 kcal/mol
USER    (4) Unbound System's Energy  [=(2)] =   +0.00 kcal/mol
USER    
USER    
USER    NEWDPF move ligand_285.pdbqt
USER    NEWDPF about 0.000000 0.000000 0.000000
USER    NEWDPF tran0 17.080295 5.524131 2.746886
USER    NEWDPF quaternion0 -0.531650 0.044024 0.189149 -0.824398
USER    NEWDPF axisangle0 -0.939295 0.077779 0.334180 -68.944950
USER    NEWDPF quat0 -0.939295 0.077779 0.334180 -68.944950
USER  keepresnum = 1 
USER  
REMARK  0 active torsions:
REMARK  status: ('A' for Active; 'I' for Inactive)
REMARK       I    between atoms: C2_2  and  C3_3 
REMARK       I    between atoms: C3_3  and  C5_5 
REMARK       I    between atoms: C5_5  and  C6_6 
REMARK       I    between atoms: C5_5  and  N3_86 
REMARK       I    between atoms: C6_6  and  C7_7 
REMARK       I    between atoms: C6_6  and  O5_73 
REMARK       I    between atoms: C7_7  and  C8_8 
REMARK       I    between atoms: C8_8  and  N1_84 
REMARK       I    between atoms: C12_12  and  C13_13 
REMARK       I    between atoms: C13_13  and  C14_14 
REMARK       I    between atoms: C13_13  and  O4_72 
REMARK       I    between atoms: C14_14  and  C16_16 
REMARK       I    between atoms: C16_16  and  N2_85 
REMARK       I    between atoms: C17_17  and  C19_19 
REMARK       I    between atoms: C17_17  and  N2_85 
REMARK       I    between atoms: C19_19  and  C20_20 
REMARK       I    between atoms: C19_19  and  O3_71 
REMARK       I    between atoms: C29_29  and  C30_30 
REMARK       I    between atoms: C29_29  and  N3_86 
REMARK       I    between atoms: C30_30  and  C31_31 
REMARK       I    between atoms: C30_30  and  N4_87 
REMARK       I    between atoms: C34_34  and  C35_35 
REMARK       I    between atoms: C34_34  and  N4_87 
REMARK       I    between atoms: C35_35  and  C36_36 
REMARK       I    between atoms: C35_35  and  N5_88 
REMARK       I    between atoms: C40_40  and  O9_77 
REMARK       I    between atoms: C40_40  and  N5_88 
REMARK       I    between atoms: C41_41  and  C42_42 
REMARK       I    between atoms: C41_41  and  O9_77 
REMARK       I    between atoms: C45_45  and  N6_89 
REMARK       I    between atoms: C48_48  and  C49_49 
REMARK       I    between atoms: C48_48  and  N6_89 
REMARK       I    between atoms: C49_49  and  C50_50 
REMARK       I    between atoms: C49_49  and  N9_92 
REMARK       I    between atoms: C50_50  and  C51_51 
REMARK       I    between atoms: C51_51  and  C52_52 
REMARK       I    between atoms: C52_52  and  N7_90 
REMARK       I    between atoms: C53_53  and  N7_90 
REMARK       I    between atoms: C53_53  and  N8_91 
REMARK       I    between atoms: C54_54  and  C55_55 
REMARK       I    between atoms: C54_54  and  N9_92 
REMARK       I    between atoms: C55_55  and  C56_56 
REMARK       I    between atoms: C55_55  and  N10_93 
REMARK       I    between atoms: C59_59  and  C60_60 
REMARK       I    between atoms: C59_59  and  N10_93 
REMARK       I    between atoms: C60_60  and  C61_61 
REMARK       I    between atoms: C61_61  and  C62_62 
REMARK       I    between atoms: C62_62  and  C63_63 
REMARK       I    between atoms: C63_63  and  C64_64 
REMARK       I    between atoms: C64_64  and  N11_94 
REMARK       I    between atoms: C67_67  and  S1_95 
USER                              x       y       z     vdW  Elec       q    Type
USER                           _______ _______ _______ _____ _____    ______ ____
ROOT
ATOM      1  C1  UNL     1      12.500   5.367  10.024 +3.82 +0.00    +0.005 C 
ATOM      2  C2  UNL     1      11.286   4.506   9.698+11.21 +0.00    +0.002 C 
ATOM      3  C3  UNL     1      10.281   5.164   8.715 +0.18 +0.00    +0.006 C 
ATOM      4  C4  UNL     1       8.980   4.354   8.775 -0.26 +0.00    +0.012 C 
ATOM      5  C5  UNL     1      10.886   5.342   7.279 -0.34 +0.00    +0.119 C 
ATOM      6  C6  UNL     1      10.939   4.043   6.396 -0.40 +0.00    +0.152 C 
ATOM      7  C7  UNL     1       9.669   3.721   5.604 -0.39 +0.00    +0.137 C 
ATOM      8  C8  UNL     1       9.718   2.266   5.187 +7.44 +0.00    +0.222 C 
ATOM      9  C9  UNL     1      10.280   0.577   3.517+99.99 +0.00    +0.126 C 
ATOM     10  C10 UNL     1      10.463   0.576   2.014 +0.84 +0.00    +0.022 C 
ATOM     11  C11 UNL     1      10.932   1.995   1.724+99.99 +0.00    +0.029 C 
ATOM     12  C12 UNL     1      10.170   2.870   2.726+19.24 +0.00    +0.117 C 
ATOM     13  C13 UNL     1       8.823   3.474   2.204 -0.12 +0.00    +0.156 C 
ATOM     14  C14 UNL     1       8.952   4.793   1.411 -0.14 +0.00    +0.105 C 
ATOM     15  C15 UNL     1       9.561   5.931   2.229 -0.26 +0.00    +0.022 C 
ATOM     16  C16 UNL     1       9.681   4.649   0.079 -0.05 +0.00    +0.224 C 
ATOM     17  C17 UNL     1       9.358   4.116  -2.331 -0.17 +0.00    +0.113 C 
ATOM     18  C18 UNL     1       8.167   4.275  -3.274 -0.17 +0.00    +0.035 C 
ATOM     19  C19 UNL     1      10.260   2.896  -2.693 +0.45 +0.00    +0.173 C 
ATOM     20  C20 UNL     1       9.527   1.575  -2.825 +4.96 -0.00    -0.028 A 
ATOM     21  C21 UNL     1       9.304   1.016  -4.094+99.99 +0.00    +0.010 A 
ATOM     22  C22 UNL     1       8.607  -0.186  -4.233 +3.65 +0.00    +0.001 A 
ATOM     23  C23 UNL     1       8.125  -0.848  -3.107 -0.24 +0.00    +0.000 A 
ATOM     24  C24 UNL     1       8.343  -0.310  -1.841 -0.21 +0.00    +0.001 A 
ATOM     25  C25 UNL     1       9.040   0.891  -1.704 -0.17 +0.00    +0.010 A 
ATOM     26  C26 UNL     1       7.046   1.879   2.094 -0.20 +0.00    +0.202 C 
ATOM     27  C27 UNL     1      13.181   3.524   5.735 +1.94 +0.00    +0.202 C 
ATOM     28  C28 UNL     1       8.963   6.843   6.517+35.32 +0.00    +0.153 C 
ATOM     29  C29 UNL     1      11.178   7.240   5.610 -0.26 +0.00    +0.243 C 
ATOM     30  C30 UNL     1      12.718   7.292   5.811 -0.34 +0.00    +0.180 C 
ATOM     31  C31 UNL     1      13.077   8.214   7.003 -0.50 +0.00    +0.009 C 
ATOM     32  C32 UNL     1      14.545   8.066   7.413+97.05 +0.00    +0.012 C 
ATOM     33  C33 UNL     1      12.762   9.690   6.738+11.54 +0.00    +0.012 C 
ATOM     34  C34 UNL     1      14.497   7.212   4.070 -0.26 +0.00    +0.241 C 
ATOM     35  C35 UNL     1      14.908   7.740   2.670 +1.71 +0.00    +0.184 C 
ATOM     36  C36 UNL     1      14.165   7.031   1.502+92.38 +0.00    +0.010 C 
ATOM     37  C37 UNL     1      12.856   7.752   1.155+23.45 +0.00    +0.012 C 
ATOM     38  C38 UNL     1      13.873   5.546   1.747+99.99 +0.00    +0.012 C 
ATOM     39  C39 UNL     1      17.085   6.509   2.208 +8.47 +0.00    +0.156 C 
ATOM     40  C40 UNL     1      17.052   8.795   3.167 -0.32 +0.00    +0.363 C 
ATOM     41  C41 UNL     1      19.107   9.692   3.831 +4.26 +0.00    +0.219 C 
ATOM     42  C42 UNL     1      20.587   9.398   3.765 +2.94 -0.00    -0.034 A 
ATOM     43  C43 UNL     1      21.377   9.444   4.919+24.85 +0.00    +0.011 A 
ATOM     44  C44 UNL     1      22.752   9.186   4.858 +2.00 +0.00    +0.030 A 
ATOM     45  C45 UNL     1      23.361   8.878   3.641 -0.39 +0.00    +0.034 A 
ATOM     46  C46 UNL     1      22.575   8.847   2.484 -0.42 +0.00    +0.030 A 
ATOM     47  C47 UNL     1      21.203   9.107   2.543 -0.20 +0.00    +0.011 A 
ATOM     48  C48 UNL     1      25.726   8.706   4.446 +3.55 +0.00    +0.245 C 
ATOM     49  C49 UNL     1      27.140   8.344   3.924+43.84 +0.00    +0.177 C 
ATOM     50  C50 UNL     1      27.745   9.524   3.148 +7.12 +0.00    +0.036 C 
ATOM     51  C51 UNL     1      27.943  10.806   3.964+99.99 +0.00    +0.022 C 
ATOM     52  C52 UNL     1      28.922  10.648   5.123+99.99 +0.00    +0.124 C 
ATOM     53  C53 UNL     1      30.189  12.100   6.612 +2.68 +0.00    +0.291 C 
ATOM     54  C54 UNL     1      27.108   5.890   3.575+99.99 +0.00    +0.241 C 
ATOM     55  C55 UNL     1      26.849   4.799   2.511+99.99 +0.00    +0.180 C 
ATOM     56  C56 UNL     1      27.558   3.466   2.858+99.99 +0.00    +0.009 C 
ATOM     57  C57 UNL     1      27.723   2.601   1.603+99.99 +0.00    +0.012 C 
ATOM     58  C58 UNL     1      26.869   2.638   3.949+99.99 +0.00    +0.012 C 
ATOM     59  C59 UNL     1      24.652   5.555   1.630 +0.02 +0.00    +0.218 C 
ATOM     60  C60 UNL     1      23.186   5.165   1.552 +0.91 +0.00    +0.103 C 
ATOM     61  C61 UNL     1      22.441   5.781   0.369 +5.05 +0.00    +0.009 C 
ATOM     62  C62 UNL     1      22.432   4.927  -0.905+99.99 +0.00    +0.002 C 
ATOM     63  C63 UNL     1      23.755   4.875  -1.672 +7.57 +0.00    +0.020 C 
ATOM     64  C64 UNL     1      24.592   3.631  -1.360 +1.41 +0.00    +0.135 C 
ATOM     65  C65 UNL     1      26.933   4.158  -2.005 -0.23 +0.00    +0.228 C 
ATOM     66  C66 UNL     1      27.844   3.949  -3.178 +0.28 +0.00    +0.128 C 
ATOM     67  C67 UNL     1      27.090   2.972  -4.067 +0.36 +0.00    +0.145 C 
ATOM     68  C68 UNL     1      25.712   2.905  -3.453 +0.45 +0.00    +0.240 C 
ATOM     69  O1  UNL     1       9.574   1.390   6.045+99.99 -0.00    -0.273 OA
ATOM     70  O2  UNL     1      10.854   4.969  -0.095 -0.14 -0.00    -0.273 OA
ATOM     71  O3  UNL     1      11.347   2.736  -1.777 +1.36 -0.00    -0.389 OA
ATOM     72  O4  UNL     1       8.079   2.554   1.383 -0.09 -0.00    -0.388 OA
ATOM     73  O5  UNL     1      11.975   4.207   5.401 -0.23 -0.00    -0.388 OA
ATOM     74  O6  UNL     1      10.664   7.896   4.693 -0.30 -0.00    -0.271 OA
ATOM     75  O7  UNL     1      15.148   6.370   4.689 +1.22 -0.00    -0.271 OA
ATOM     76  O8  UNL     1      16.488   9.771   3.648 -0.34 -0.00    -0.238 OA
ATOM     77  O9  UNL     1      18.401   8.634   3.179 -0.34 -0.00    -0.299 OA
ATOM     78  O10 UNL     1      25.590   9.219   5.557+99.99 -0.00    -0.271 OA
ATOM     79  O11 UNL     1      31.151  11.355   6.710 +2.09 -0.00    -0.254 OA
ATOM     80  O12 UNL     1      27.225   5.660   4.773+99.99 -0.00    -0.271 OA
ATOM     81  O13 UNL     1      25.112   6.592   1.162 -0.25 -0.00    -0.274 OA
ATOM     82  O14 UNL     1      27.228   4.823  -1.023 -0.22 -0.00    -0.273 OA
ATOM     83  O15 UNL     1      24.739   2.361  -3.955+17.18 -0.00    -0.272 OA
ATOM     84  N1  UNL     1       9.958   1.951   3.868+51.62 -0.00    -0.345 N 
ATOM     85  N2  UNL     1       8.898   4.153  -0.940 -0.01 -0.00    -0.354 N 
ATOM     86  N3  UNL     1      10.393   6.555   6.551 -0.06 -0.00    -0.347 N 
ATOM     87  N4  UNL     1      13.319   7.732   4.555 -0.20 -0.00    -0.346 N 
ATOM     88  N5  UNL     1      16.384   7.743   2.545 -0.06 -0.00    -0.319 N 
ATOM     89  N6  UNL     1      24.727   8.577   3.493 -0.30 -0.00    -0.325 N 
ATOM     90  N7  UNL     1      29.092  11.905   5.825+99.99 -0.00    -0.348 N 
ATOM     91  N8  UNL     1      30.114  13.266   7.303 -0.31 -0.00    -0.254 NA
ATOM     92  N9  UNL     1      27.096   7.171   3.052 +1.89 -0.00    -0.346 N 
ATOM     93  N10 UNL     1      25.403   4.643   2.338 +7.75 -0.00    -0.347 N 
ATOM     94  N11 UNL     1      25.745   3.532  -2.239 -0.24 -0.00    -0.287 N 
ATOM     95  S1  UNL     1      27.853   1.316  -4.075 -0.25 -0.00    -0.167 SA
ATOM     96  H98 UNL     1      11.457   3.586  -1.302 +0.11 +0.00    +0.210 HD
ATOM     97  H99 UNL     1       8.131   3.546  -0.665 +0.07 +0.00    +0.163 HD
ATOM     98  HA0 UNL     1      12.764   8.371   3.995 +0.07 +0.00    +0.163 HD
ATOM     99  HA1 UNL     1      25.010   8.233   2.580 +0.14 +0.00    +0.169 HD
ATOM    100  HA2 UNL     1      28.251  12.301   6.223 +0.74 +0.00    +0.163 HD
ATOM    101  HA3 UNL     1      29.715  14.044   6.797 +0.06 +0.00    +0.128 HD
ATOM    102  HA4 UNL     1      30.977  13.484   7.786 +0.05 +0.00    +0.128 HD
ATOM    103  HA5 UNL     1      26.727   7.259   2.105 +0.11 +0.00    +0.163 HD
ATOM    104  HA6 UNL     1      24.914   4.118   3.053 +0.39 +0.00    +0.163 HD
ATOM    105  HA7 UNL     1      27.582   0.996  -2.800 -0.44 +0.00    +0.102 HD
ENDROOT
TORSDOF 41
TER
