USER    Run = 1
USER    DPF = ligand_33_receptor.dpf
USER  
USER    Estimated Free Energy of Binding    =  +5.23e+003 kcal/mol  [=(1)+(2)+(3)-(4)]
USER    
USER    (1) Final Intermolecular Energy     =  +5.23e+003 kcal/mol
USER        vdW + Hbond + desolv Energy     =  +5.23e+003 kcal/mol
USER        Electrostatic Energy            =   +0.00 kcal/mol
USER    (2) Final Total Internal Energy     =  +12.61 kcal/mol
USER    (3) Torsional Free Energy           =   +1.19 kcal/mol
USER    (4) Unbound System's Energy  [=(2)] =  +12.61 kcal/mol
USER    
USER    
USER    NEWDPF move ligand_33.pdbqt
USER    NEWDPF about 0.000000 0.000000 0.000000
USER    NEWDPF tran0 13.572792 7.386934 4.120175
USER    NEWDPF quaternion0 0.099261 -0.536916 -0.837611 -0.016617
USER    NEWDPF axisangle0 0.099275 -0.536990 -0.837727 -178.095693
USER    NEWDPF quat0 0.099275 -0.536990 -0.837727 -178.095693
USER    NEWDPF dihe0 50.62 26.79 -175.98 -180.00 -72.09 36.40 -69.93 49.74 -130.09 101.22 92.27 -65.54 112.11 162.51 -53.24 57.45 22.25 -6.81 12.00 -57.60 73.04 -67.81 -128.84 -147.65 
USER  keepresnum = 1 
USER  
REMARK  24 active torsions:
REMARK  status: ('A' for Active; 'I' for Inactive)
REMARK    1  A    between atoms: C4_4  and  O3_117 
REMARK    2  A    between atoms: C5_5  and  C7_7 
REMARK    3  A    between atoms: C8_8  and  C9_9 
REMARK       I    between atoms: C8_8  and  N2_91 
REMARK    4  A    between atoms: C14_14  and  O2_116 
REMARK    5  A    between atoms: C15_15  and  O3_117 
REMARK    6  A    between atoms: C26_26  and  O10_124 
REMARK    7  A    between atoms: C33_33  and  O4_118 
REMARK    8  A    between atoms: C37_37  and  O4_118 
REMARK    9  A    between atoms: C42_42  and  C43_43 
REMARK   10  A    between atoms: C44_44  and  C45_45 
REMARK       I    between atoms: C44_44  and  N7_99 
REMARK   11  A    between atoms: C50_50  and  O6_120 
REMARK   12  A    between atoms: C55_55  and  O7_121 
REMARK   13  A    between atoms: C59_59  and  O7_121 
REMARK   14  A    between atoms: C64_64  and  C65_65 
REMARK   15  A    between atoms: C66_66  and  C67_67 
REMARK       I    between atoms: C66_66  and  N11_106 
REMARK   16  A    between atoms: C72_72  and  O9_123 
REMARK   17  A    between atoms: C75_75  and  O10_124 
REMARK   18  A    between atoms: C80_80  and  C81_81 
REMARK   19  A    between atoms: C82_82  and  C83_83 
REMARK       I    between atoms: C82_82  and  N16_114 
REMARK   20  A    between atoms: C88_88  and  O12_126 
REMARK   21  A    between atoms: N1_89  and  N2_91 
REMARK   22  A    between atoms: N6_97  and  N7_99 
REMARK   23  A    between atoms: N10_104  and  N11_106 
REMARK   24  A    between atoms: N15_112  and  N16_114 
USER                              x       y       z     vdW  Elec       q    Type
USER                           _______ _______ _______ _____ _____    ______ ____
ROOT
ATOM      1  C15 UNL     1      17.389  10.560   1.863 -0.43 +0.00    +0.077 A 
ATOM      2  C16 UNL     1      16.932   9.800   2.941 -0.45 +0.00    +0.053 A 
ATOM      3  C17 UNL     1      16.053   8.761   2.692 -0.48 +0.00    +0.025 A 
ATOM      4  C18 UNL     1      15.648   8.481   1.387 +0.13 +0.00    +0.022 A 
ATOM      5  C19 UNL     1      16.075   9.246   0.311 -0.35 +0.00    +0.019 A 
ATOM      6  C20 UNL     1      16.943  10.311   0.553 -0.46 +0.00    +0.038 A 
ATOM      7  C21 UNL     1      14.701   7.377   1.467+74.24 +0.00    +0.119 A 
ATOM      8  C22 UNL     1      12.998   6.062   0.411 +0.47 +0.00    +0.119 A 
ATOM      9  C23 UNL     1      12.308   5.515  -0.650 -0.08 +0.00    +0.022 A 
ATOM     10  C24 UNL     1      12.582   5.692  -2.007 +3.26 +0.00    +0.019 A 
ATOM     11  C25 UNL     1      11.582   5.108  -2.821 +3.11 +0.00    +0.038 A 
ATOM     12  C26 UNL     1      10.446   4.396  -2.289 -0.06 +0.00    +0.077 A 
ATOM     13  C27 UNL     1      10.236   4.123  -0.920 -0.17 +0.00    +0.053 A 
ATOM     14  C28 UNL     1      11.186   4.773  -0.138 +0.57 +0.00    +0.025 A 
ATOM     15  C29 UNL     1      11.132   4.923   1.230+34.13 +0.00    +0.119 A 
ATOM     16  C30 UNL     1      10.127   4.675   3.390 +0.05 +0.00    +0.119 A 
ATOM     17  C31 UNL     1       8.967   4.350   4.213 -0.27 +0.00    +0.025 A 
ATOM     18  C32 UNL     1       9.289   4.684   5.533 -0.30 +0.00    +0.056 A 
ATOM     19  C33 UNL     1       8.387   4.372   6.549 -0.37 +0.00    +0.091 A 
ATOM     20  C34 UNL     1       7.130   3.832   6.206 -0.07 +0.00    +0.038 A 
ATOM     21  C35 UNL     1       6.810   3.547   4.871 -0.06 +0.00    +0.004 A 
ATOM     22  C36 UNL     1       7.743   3.794   3.866 -0.25 +0.00    +0.016 A 
ATOM     23  C51 UNL     1      10.645   5.251   5.466 -0.24 +0.00    +0.122 A 
ATOM     24  C52 UNL     1      12.560   6.253   6.504 -0.32 +0.00    +0.119 A 
ATOM     25  C53 UNL     1      13.373   6.502   7.588 -0.51 +0.00    +0.025 A 
ATOM     26  C54 UNL     1      14.650   7.027   7.135 +2.49 +0.00    +0.056 A 
ATOM     27  C55 UNL     1      15.702   7.281   8.047+99.99 +0.00    +0.091 A 
ATOM     28  C56 UNL     1      15.342   7.054   9.402+16.43 +0.00    +0.038 A 
ATOM     29  C57 UNL     1      14.067   6.560   9.819 +3.91 +0.00    +0.004 A 
ATOM     30  C58 UNL     1      13.031   6.246   8.920 -0.49 +0.00    +0.016 A 
ATOM     31  C73 UNL     1      14.562   7.214   5.760 +0.06 +0.00    +0.122 A 
ATOM     32  C74 UNL     1      15.326   7.840   3.566 -0.37 +0.00    +0.119 A 
ATOM     33  N3  UNL     1      14.092   6.887   0.347 +6.71 -0.00    -0.327 N 
ATOM     34  H3  UNL     1      14.463   7.144  -0.569 -0.12 +0.00    +0.169 HD
ATOM     35  N4  UNL     1      12.277   5.670   1.550 +0.70 -0.00    -0.327 N 
ATOM     36  N5  UNL     1      10.118   4.492   2.045 +3.39 -0.00    -0.327 N 
ATOM     37  H5  UNL     1       9.323   4.013   1.623 -0.19 +0.00    +0.169 HD
ATOM     38  N8  UNL     1      11.108   5.191   4.180 -0.09 -0.00    -0.327 N 
ATOM     39  H8  UNL     1      12.033   5.483   3.866 +0.08 +0.00    +0.169 HD
ATOM     40  N9  UNL     1      11.298   5.718   6.560 -0.11 -0.00    -0.327 N 
ATOM     41  H9  UNL     1      10.830   5.668   7.465 +0.13 +0.00    +0.169 HD
ATOM     42  N12 UNL     1      15.441   7.868   4.926 +0.00 -0.00    -0.327 N 
ATOM     43  H12 UNL     1      16.211   8.394   5.342 +0.28 +0.00    +0.169 HD
ATOM     44  N13 UNL     1      14.538   7.026   2.787 +6.27 -0.00    -0.327 N 
ATOM     45  H13 UNL     1      13.930   6.283   3.132 -0.42 +0.00    +0.169 HD
ATOM     46  N14 UNL     1      13.317   6.662   5.397 -0.20 -0.00    -0.327 N 
ATOM     47  H50 UNL     1      12.540   5.953   2.491 +0.05 +0.00    +0.169 HD
ATOM     48  H53 UNL     1      13.014   6.586   4.429 +0.11 +0.00    +0.169 HD
ENDROOT
BRANCH   1  49
ATOM     49  O3  UNL     1      18.215  11.642   2.096 -0.32 -0.00    -0.310 OA
BRANCH  49  50
ATOM     50  C4  UNL     1      19.014  12.008   1.034 -0.60 +0.00    +0.087 A 
ATOM     51  C3  UNL     1      18.515  12.850   0.031 +5.37 +0.00    +0.038 A 
ATOM     52  C2  UNL     1      19.348  13.306  -0.993+99.99 +0.00    +0.003 A 
ATOM     53  C1  UNL     1      20.692  12.941  -1.012+23.60 +0.00    +0.001 A 
ATOM     54  C6  UNL     1      21.198  12.109  -0.012 +0.50 +0.00    +0.015 A 
ATOM     55  C5  UNL     1      20.361  11.636   1.011 -0.49 +0.00    +0.015 A 
BRANCH  55  56
ATOM     56  C7  UNL     1      20.904  10.667   1.987 -0.25 +0.00    +0.121 C 
ATOM     57  N1  UNL     1      20.825  10.884   3.267 +2.07 -0.00    -0.308 N 
ATOM     58  H1  UNL     1      20.250  11.622   3.674 +3.56 +0.00    +0.186 HD
BRANCH  57  59
ATOM     59  N2  UNL     1      21.587  10.025   4.020 +1.58 -0.00    -0.266 N 
ATOM     60  C8  UNL     1      22.932   9.883   3.729 -0.39 +0.00    +0.272 C 
ATOM     61  O1  UNL     1      23.601  10.659   3.036 +0.59 -0.00    -0.266 OA
ATOM     62  H49 UNL     1      21.086   9.364   4.639 +0.31 +0.00    +0.190 HD
BRANCH  60  63
ATOM     63  C9  UNL     1      23.657   8.736   4.344 +0.06 +0.00    +0.066 A 
ATOM     64  C10 UNL     1      23.464   8.368   5.679+13.30 +0.00    +0.020 A 
ATOM     65  C11 UNL     1      24.184   7.307   6.236+33.08 +0.00    +0.001 A 
ATOM     66  C12 UNL     1      25.080   6.580   5.454 +8.58 +0.00    +0.003 A 
ATOM     67  C13 UNL     1      25.245   6.901   4.107 +6.56 +0.00    +0.037 A 
ATOM     68  C14 UNL     1      24.530   7.964   3.555 +0.73 +0.00    +0.081 A 
BRANCH  68  69
ATOM     69  O2  UNL     1      24.724   8.195   2.214 -0.20 -0.00    -0.360 OA
ATOM     70  H55 UNL     1      24.806   9.174   2.123 +0.18 +0.00    +0.217 HD
ENDBRANCH  68  69
ENDBRANCH  60  63
ENDBRANCH  57  59
ENDBRANCH  55  56
ENDBRANCH  49  50
ENDBRANCH   1  49
BRANCH  27  71
ATOM     71  O7  UNL     1      17.014   7.667   7.815+99.99 -0.00    -0.309 OA
BRANCH  71  72
ATOM     72  C59 UNL     1      17.984   6.716   8.024+99.99 +0.00    +0.087 A 
ATOM     73  C60 UNL     1      18.051   5.953   9.198+99.99 +0.00    +0.038 A 
ATOM     74  C61 UNL     1      19.030   4.968   9.346+99.99 +0.00    +0.003 A 
ATOM     75  C62 UNL     1      19.980   4.770   8.347+99.99 +0.00    +0.001 A 
ATOM     76  C63 UNL     1      19.953   5.561   7.199 +2.42 +0.00    +0.015 A 
ATOM     77  C64 UNL     1      18.942   6.519   7.031+99.99 +0.00    +0.015 A 
BRANCH  77  78
ATOM     78  C65 UNL     1      19.025   7.354   5.829+99.99 +0.00    +0.121 C 
ATOM     79  N10 UNL     1      19.886   8.228   5.396 +8.98 -0.00    -0.308 N 
ATOM     80  H10 UNL     1      19.783   8.621   4.460 +0.13 +0.00    +0.186 HD
BRANCH  79  81
ATOM     81  N11 UNL     1      20.935   8.626   6.195+25.88 -0.00    -0.266 N 
ATOM     82  C66 UNL     1      20.645   9.552   7.188+18.30 +0.00    +0.272 C 
ATOM     83  O8  UNL     1      19.488   9.961   7.403+21.92 -0.00    -0.266 OA
ATOM     84  H52 UNL     1      21.877   8.166   6.114+29.86 +0.00    +0.190 HD
BRANCH  82  85
ATOM     85  C67 UNL     1      21.734  10.202   7.960 -0.21 +0.00    +0.066 A 
ATOM     86  C68 UNL     1      23.076  10.017   7.663+53.88 +0.00    +0.020 A 
ATOM     87  C69 UNL     1      24.067  10.738   8.335+25.39 +0.00    +0.001 A 
ATOM     88  C70 UNL     1      23.729  11.613   9.363 -0.29 +0.00    +0.003 A 
ATOM     89  C71 UNL     1      22.393  11.763   9.729 -0.52 +0.00    +0.037 A 
ATOM     90  C72 UNL     1      21.407  11.061   9.033 -0.63 +0.00    +0.081 A 
BRANCH  90  91
ATOM     91  O9  UNL     1      20.109  11.262   9.457 -0.97 -0.00    -0.360 OA
ATOM     92  H57 UNL     1      19.668  10.394   9.314 +0.18 +0.00    +0.217 HD
ENDBRANCH  90  91
ENDBRANCH  82  85
ENDBRANCH  79  81
ENDBRANCH  77  78
ENDBRANCH  71  72
ENDBRANCH  27  71
BRANCH  12  93
ATOM     93  O10 UNL     1       9.425   3.965  -3.128 -0.11 -0.00    -0.310 OA
BRANCH  93  94
ATOM     94  C75 UNL     1       8.383   3.272  -2.547 -0.11 +0.00    +0.087 A 
ATOM     95  C76 UNL     1       7.128   3.551  -3.111 -0.14 +0.00    +0.038 A 
ATOM     96  C77 UNL     1       5.974   2.926  -2.637 -0.11 +0.00    +0.003 A 
ATOM     97  C78 UNL     1       6.067   2.003  -1.598 -0.09 +0.00    +0.001 A 
ATOM     98  C79 UNL     1       7.314   1.699  -1.047 -0.10 +0.00    +0.015 A 
ATOM     99  C80 UNL     1       8.483   2.316  -1.525 -0.11 +0.00    +0.015 A 
BRANCH  99 100
ATOM    100  C81 UNL     1       9.769   1.929  -0.904 -0.19 +0.00    +0.121 C 
ATOM    101  N15 UNL     1      10.052   2.204   0.334 +0.36 -0.00    -0.308 N 
ATOM    102  H15 UNL     1       9.383   2.568   1.012 -0.16 +0.00    +0.186 HD
BRANCH 101 103
ATOM    103  N16 UNL     1      11.377   1.937   0.611+26.43 -0.00    -0.266 N 
ATOM    104  C82 UNL     1      11.718   0.855   1.410 +3.90 +0.00    +0.272 C 
ATOM    105  O11 UNL     1      11.038  -0.169   1.534 +1.29 -0.00    -0.266 OA
ATOM    106  H54 UNL     1      12.042   2.733   0.668+99.99 +0.00    +0.190 HD
BRANCH 104 107
ATOM    107  C83 UNL     1      12.962   1.053   2.222+50.64 +0.00    +0.066 A 
ATOM    108  C84 UNL     1      12.851   1.829   3.389+88.54 +0.00    +0.020 A 
ATOM    109  C85 UNL     1      13.999   2.240   4.068+99.99 +0.00    +0.001 A 
ATOM    110  C86 UNL     1      15.252   1.856   3.597+49.16 +0.00    +0.003 A 
ATOM    111  C87 UNL     1      15.366   1.026   2.484+94.65 +0.00    +0.037 A 
ATOM    112  C88 UNL     1      14.229   0.637   1.788+16.66 +0.00    +0.081 A 
BRANCH 112 113
ATOM    113  O12 UNL     1      14.370  -0.108   0.647+10.53 -0.00    -0.360 OA
ATOM    114  H58 UNL     1      13.470  -0.539   0.464 +2.02 +0.00    +0.217 HD
ENDBRANCH 112 113
ENDBRANCH 104 107
ENDBRANCH 101 103
ENDBRANCH  99 100
ENDBRANCH  93  94
ENDBRANCH  12  93
BRANCH  19 115
ATOM    115  O4  UNL     1       8.715   4.573   7.878 -0.33 -0.00    -0.309 OA
BRANCH 115 116
ATOM    116  C37 UNL     1       8.412   5.819   8.388 +0.18 +0.00    +0.087 A 
ATOM    117  C38 UNL     1       8.779   6.047   9.719+10.11 +0.00    +0.038 A 
ATOM    118  C39 UNL     1       8.556   7.293  10.310+99.99 +0.00    +0.003 A 
ATOM    119  C40 UNL     1       7.955   8.317   9.575+31.48 +0.00    +0.001 A 
ATOM    120  C41 UNL     1       7.557   8.087   8.256+71.53 +0.00    +0.015 A 
ATOM    121  C42 UNL     1       7.764   6.833   7.669+20.35 +0.00    +0.015 A 
BRANCH 121 122
ATOM    122  C43 UNL     1       7.267   6.580   6.311+23.58 +0.00    +0.121 C 
ATOM    123  N6  UNL     1       7.913   6.911   5.229+15.27 -0.00    -0.308 N 
ATOM    124  H6  UNL     1       8.766   7.468   5.184 +0.83 +0.00    +0.186 HD
BRANCH 123 125
ATOM    125  N7  UNL     1       7.239   6.374   4.156 +0.02 -0.00    -0.266 N 
ATOM    126  C44 UNL     1       6.595   7.087   3.168 +1.00 +0.00    +0.272 C 
ATOM    127  O5  UNL     1       6.469   8.316   3.131 +8.00 -0.00    -0.266 OA
ATOM    128  H51 UNL     1       7.304   5.341   4.005 +0.10 +0.00    +0.190 HD
BRANCH 126 129
ATOM    129  C45 UNL     1       6.032   6.231   2.065 -0.22 +0.00    +0.066 A 
ATOM    130  C46 UNL     1       6.637   6.280   0.799 -0.27 +0.00    +0.020 A 
ATOM    131  C47 UNL     1       6.196   5.435  -0.226 -0.05 +0.00    +0.001 A 
ATOM    132  C48 UNL     1       5.141   4.551   0.007 -0.18 +0.00    +0.003 A 
ATOM    133  C49 UNL     1       4.510   4.524   1.249 -0.14 +0.00    +0.037 A 
ATOM    134  C50 UNL     1       4.960   5.351   2.268 -0.16 +0.00    +0.081 A 
BRANCH 134 135
ATOM    135  O6  UNL     1       4.328   5.303   3.476 -0.08 -0.00    -0.360 OA
ATOM    136  H56 UNL     1       4.097   6.251   3.761 +0.07 +0.00    +0.217 HD
ENDBRANCH 134 135
ENDBRANCH 126 129
ENDBRANCH 123 125
ENDBRANCH 121 122
ENDBRANCH 115 116
ENDBRANCH  19 115
TORSDOF 24
TER
