USER    Run = 1
USER    DPF = ligand_149_receptor.dpf
USER  
USER    Estimated Free Energy of Binding    =  +5.77e+003 kcal/mol  [=(1)+(2)+(3)-(4)]
USER    
USER    (1) Final Intermolecular Energy     =  +5.77e+003 kcal/mol
USER        vdW + Hbond + desolv Energy     =  +5.77e+003 kcal/mol
USER        Electrostatic Energy            =   +0.00 kcal/mol
USER    (2) Final Total Internal Energy     =   +0.00 kcal/mol
USER    (3) Torsional Free Energy           =   +1.19 kcal/mol
USER    (4) Unbound System's Energy  [=(2)] =   +0.00 kcal/mol
USER    
USER    
USER    NEWDPF move ligand_149.pdbqt
USER    NEWDPF about 0.000000 0.000000 0.000000
USER    NEWDPF tran0 15.321828 6.173111 3.448939
USER    NEWDPF quaternion0 -0.084249 -0.195828 -0.975938 -0.045805
USER    NEWDPF axisangle0 -0.084338 -0.196034 -0.976964 -174.749309
USER    NEWDPF quat0 -0.084338 -0.196034 -0.976964 -174.749309
USER  keepresnum = 1 
USER  
REMARK  0 active torsions:
REMARK  status: ('A' for Active; 'I' for Inactive)
REMARK       I    between atoms: C4_4  and  C7_7 
REMARK       I    between atoms: C7_7  and  C8_8 
REMARK       I    between atoms: C8_8  and  C9_9 
REMARK       I    between atoms: C8_8  and  N4_64 
REMARK       I    between atoms: C9_9  and  N1_61 
REMARK       I    between atoms: C10_10  and  C11_11 
REMARK       I    between atoms: C10_10  and  C15_15 
REMARK       I    between atoms: C10_10  and  N1_61 
REMARK       I    between atoms: C11_11  and  C12_12 
REMARK       I    between atoms: C12_12  and  C13_13 
REMARK       I    between atoms: C13_13  and  C14_14 
REMARK       I    between atoms: C14_14  and  N2_62 
REMARK       I    between atoms: C15_15  and  N3_63 
REMARK       I    between atoms: C16_16  and  C17_17 
REMARK       I    between atoms: C16_16  and  N4_64 
REMARK       I    between atoms: C17_17  and  C18_18 
REMARK       I    between atoms: C17_17  and  N6_66 
REMARK       I    between atoms: C18_18  and  C19_19 
REMARK       I    between atoms: C19_19  and  C20_20 
REMARK       I    between atoms: C20_20  and  C21_21 
REMARK       I    between atoms: C21_21  and  N5_65 
REMARK       I    between atoms: C22_22  and  C23_23 
REMARK       I    between atoms: C22_22  and  N6_66 
REMARK       I    between atoms: C23_23  and  C24_24 
REMARK       I    between atoms: C24_24  and  C25_25 
REMARK       I    between atoms: C25_25  and  C26_26 
REMARK       I    between atoms: C27_27  and  C28_28 
REMARK       I    between atoms: C28_28  and  C29_29 
REMARK       I    between atoms: C29_29  and  C30_30 
REMARK       I    between atoms: C30_30  and  C31_31 
REMARK       I    between atoms: C31_31  and  N7_67 
REMARK       I    between atoms: C32_32  and  C33_33 
REMARK       I    between atoms: C32_32  and  C37_37 
REMARK       I    between atoms: C32_32  and  N7_67 
REMARK       I    between atoms: C33_33  and  C34_34 
REMARK       I    between atoms: C34_34  and  C35_35 
REMARK       I    between atoms: C35_35  and  C36_36 
REMARK       I    between atoms: C36_36  and  N8_68 
REMARK       I    between atoms: C37_37  and  N9_69 
REMARK       I    between atoms: C38_38  and  C39_39 
REMARK       I    between atoms: C38_38  and  C46_46 
REMARK       I    between atoms: C38_38  and  N9_69 
REMARK       I    between atoms: C39_39  and  C40_40 
REMARK       I    between atoms: C46_46  and  N10_70 
REMARK       I    between atoms: C47_47  and  C48_48 
REMARK       I    between atoms: C47_47  and  C52_52 
REMARK       I    between atoms: C47_47  and  N10_70 
REMARK       I    between atoms: C48_48  and  C49_49 
REMARK       I    between atoms: C49_49  and  C50_50 
REMARK       I    between atoms: C50_50  and  C51_51 
REMARK       I    between atoms: C51_51  and  N11_71 
REMARK       I    between atoms: C52_52  and  N12_72 
USER                              x       y       z     vdW  Elec       q    Type
USER                           _______ _______ _______ _____ _____    ______ ____
ROOT
ATOM      1  C1  UNL     1      27.337   9.064  -1.772+99.99 +0.00    +0.000 A 
ATOM      2  C2  UNL     1      26.102   8.438  -1.927+99.99 +0.00    +0.001 A 
ATOM      3  C3  UNL     1      25.225   8.346  -0.847 +2.31 +0.00    +0.007 A 
ATOM      4  C4  UNL     1      25.578   8.879   0.401 +0.57 -0.00    -0.056 A 
ATOM      5  C5  UNL     1      26.815   9.523   0.542 +2.63 +0.00    +0.007 A 
ATOM      6  C6  UNL     1      27.692   9.608  -0.539+99.99 +0.00    +0.001 A 
ATOM      7  C7  UNL     1      24.650   8.727   1.583 -0.46 +0.00    +0.073 C 
ATOM      8  C8  UNL     1      24.568   7.281   2.108 -0.03 +0.00    +0.180 C 
ATOM      9  C9  UNL     1      25.829   6.907   2.910 +0.30 +0.00    +0.241 C 
ATOM     10  C10 UNL     1      28.231   6.265   2.761+99.99 +0.00    +0.176 C 
ATOM     11  C11 UNL     1      29.057   5.365   1.834+19.53 +0.00    +0.035 C 
ATOM     12  C12 UNL     1      28.385   4.036   1.462 +9.08 +0.00    +0.004 C 
ATOM     13  C13 UNL     1      27.983   3.138   2.640+99.99 +0.00    +0.030 C 
ATOM     14  C14 UNL     1      29.122   2.752   3.586+99.99 +0.00    +0.267 C 
ATOM     15  C15 UNL     1      28.999   7.567   3.096 +1.19 +0.00    +0.238 C 
ATOM     16  C16 UNL     1      22.146   6.975   2.555+34.66 +0.00    +0.241 C 
ATOM     17  C17 UNL     1      21.081   6.808   3.656+54.46 +0.00    +0.176 C 
ATOM     18  C18 UNL     1      21.132   5.406   4.282+99.99 +0.00    +0.035 C 
ATOM     19  C19 UNL     1      20.868   4.260   3.297+99.99 +0.00    +0.004 C 
ATOM     20  C20 UNL     1      20.957   2.901   3.998 +4.00 +0.00    +0.030 C 
ATOM     21  C21 UNL     1      20.605   1.722   3.088+99.99 +0.00    +0.267 C 
ATOM     22  C22 UNL     1      19.254   8.382   3.166 +0.18 +0.00    +0.218 C 
ATOM     23  C23 UNL     1      18.026   8.574   2.294 -0.27 +0.00    +0.103 C 
ATOM     24  C24 UNL     1      17.299   9.894   2.553 -0.54 +0.00    +0.013 C 
ATOM     25  C25 UNL     1      16.561   9.944   3.899 -0.38 +0.00    +0.027 C 
ATOM     26  C26 UNL     1      15.353   9.060   4.087 -0.33 -0.00    -0.031 C 
ATOM     27  C27 UNL     1      14.665   8.399   3.141 -0.37 -0.00    -0.031 C 
ATOM     28  C28 UNL     1      13.451   7.525   3.335 -0.46 +0.00    +0.027 C 
ATOM     29  C29 UNL     1      12.960   7.334   4.776 -0.48 +0.00    +0.013 C 
ATOM     30  C30 UNL     1      11.778   6.368   4.863 -0.33 +0.00    +0.103 C 
ATOM     31  C31 UNL     1      10.478   6.946   4.335 -0.25 +0.00    +0.218 C 
ATOM     32  C32 UNL     1       8.096   6.434   4.008 -0.10 +0.00    +0.176 C 
ATOM     33  C33 UNL     1       7.341   5.406   3.158 -0.21 +0.00    +0.035 C 
ATOM     34  C34 UNL     1       7.855   5.275   1.720 -0.18 +0.00    +0.004 C 
ATOM     35  C35 UNL     1       7.837   6.562   0.885 -0.31 +0.00    +0.030 C 
ATOM     36  C36 UNL     1       6.499   7.305   0.824 -0.30 +0.00    +0.267 C 
ATOM     37  C37 UNL     1       7.379   6.594   5.364 +8.00 +0.00    +0.241 C 
ATOM     38  C38 UNL     1       5.387   7.634   6.475+44.43 +0.00    +0.180 C 
ATOM     39  C39 UNL     1       4.705   9.017   6.390+99.99 +0.00    +0.073 C 
ATOM     40  C40 UNL     1       4.137   9.363   5.027+95.13 -0.00    -0.056 A 
ATOM     41  C41 UNL     1       4.888  10.133   4.125+93.55 +0.00    +0.007 A 
ATOM     42  C42 UNL     1       4.394  10.415   2.850+26.28 +0.00    +0.001 A 
ATOM     43  C43 UNL     1       3.145   9.934   2.465+46.88 +0.00    +0.000 A 
ATOM     44  C44 UNL     1       2.387   9.177   3.355 +0.11 +0.00    +0.001 A 
ATOM     45  C45 UNL     1       2.879   8.894   4.630 -0.07 +0.00    +0.007 A 
ATOM     46  C46 UNL     1       4.368   6.484   6.682 -0.21 +0.00    +0.241 C 
ATOM     47  C47 UNL     1       4.152   4.058   7.037 -0.35 +0.00    +0.176 C 
ATOM     48  C48 UNL     1       4.641   2.780   6.344 +0.66 +0.00    +0.035 C 
ATOM     49  C49 UNL     1       4.395   2.813   4.832 -0.30 +0.00    +0.004 C 
ATOM     50  C50 UNL     1       4.738   1.496   4.129 -0.34 +0.00    +0.030 C 
ATOM     51  C51 UNL     1       6.227   1.151   4.182 +5.23 +0.00    +0.267 C 
ATOM     52  C52 UNL     1       4.304   3.903   8.563+19.30 +0.00    +0.238 C 
ATOM     53  O1  UNL     1      25.854   6.928   4.144 -0.29 -0.00    -0.271 OA
ATOM     54  O2  UNL     1      30.172   7.781   2.806 -0.32 -0.00    -0.271 OA
ATOM     55  O3  UNL     1      21.875   6.928   1.355+98.23 -0.00    -0.271 OA
ATOM     56  O4  UNL     1      19.750   9.266   3.856 +0.44 -0.00    -0.274 OA
ATOM     57  O5  UNL     1      10.332   8.117   4.005 -0.35 -0.00    -0.274 OA
ATOM     58  O6  UNL     1       7.730   5.999   6.383 +0.40 -0.00    -0.271 OA
ATOM     59  O7  UNL     1       3.194   6.659   6.999 -0.19 -0.00    -0.271 OA
ATOM     60  O8  UNL     1       5.275   4.306   9.199+99.99 -0.00    -0.271 OA
ATOM     61  N1  UNL     1      26.934   6.581   2.160 +3.60 -0.00    -0.346 N 
ATOM     62  N2  UNL     1      30.185   2.043   2.890 +1.30 +0.00    +0.078 N 
ATOM     63  N3  UNL     1      28.309   8.476   3.854+99.99 -0.00    -0.368 N 
ATOM     64  N4  UNL     1      23.433   7.112   3.015+38.30 -0.00    -0.346 N 
ATOM     65  N5  UNL     1      21.545   1.548   1.988+99.99 +0.00    +0.078 N 
ATOM     66  N6  UNL     1      19.770   7.104   3.088+63.19 -0.00    -0.348 N 
ATOM     67  N7  UNL     1       9.467   6.010   4.267 -0.07 -0.00    -0.348 N 
ATOM     68  N8  UNL     1       5.440   6.494   0.240 -0.07 +0.00    +0.078 N 
ATOM     69  N9  UNL     1       6.257   7.385   5.318+99.99 -0.00    -0.346 N 
ATOM     70  N10 UNL     1       4.923   5.218   6.611 -0.20 -0.00    -0.346 N 
ATOM     71  N11 UNL     1       6.492  -0.047   3.395+14.76 +0.00    +0.078 N 
ATOM     72  N12 UNL     1       3.308   3.205   9.189+14.52 -0.00    -0.368 N 
ATOM     73  H67 UNL     1      26.944   6.843   1.179 +0.11 +0.00    +0.163 HD
ATOM     74  H68 UNL     1      30.901   1.759   3.559 -0.27 +0.00    +0.312 HD
ATOM     75  H69 UNL     1      29.819   1.184   2.482 +0.17 +0.00    +0.312 HD
ATOM     76  H70 UNL     1      27.490   8.166   4.373+84.35 +0.00    +0.159 HD
ATOM     77  H71 UNL     1      28.842   9.249   4.231 +0.59 +0.00    +0.159 HD
ATOM     78  H72 UNL     1      23.621   7.207   4.010 +6.16 +0.00    +0.163 HD
ATOM     79  H73 UNL     1      22.496   1.504   2.348 +0.17 +0.00    +0.312 HD
ATOM     80  H74 UNL     1      21.512   2.355   1.367 -0.23 +0.00    +0.312 HD
ATOM     81  H75 UNL     1      19.546   6.599   2.237+99.99 +0.00    +0.163 HD
ATOM     82  H76 UNL     1       9.562   5.209   4.883 +0.10 +0.00    +0.163 HD
ATOM     83  H77 UNL     1       5.257   5.674   0.816 +0.10 +0.00    +0.312 HD
ATOM     84  H78 UNL     1       4.573   7.029   0.225 +1.51 +0.00    +0.312 HD
ATOM     85  H79 UNL     1       5.882   7.633   4.410+34.15 +0.00    +0.163 HD
ATOM     86  H80 UNL     1       5.922   5.189   6.829 +0.08 +0.00    +0.163 HD
ATOM     87  H81 UNL     1       7.476  -0.296   3.477+29.73 +0.00    +0.312 HD
ATOM     88  H82 UNL     1       5.967  -0.834   3.775 +0.73 +0.00    +0.312 HD
ATOM     89  H83 UNL     1       2.376   3.199   8.795 -0.33 +0.00    +0.159 HD
ATOM     90  H84 UNL     1       3.365   3.203  10.201 +6.11 +0.00    +0.159 HD
ENDROOT
TORSDOF 44
TER
