USER    Run = 1
USER    DPF = ligand_81_receptor.dpf
USER  
USER    Estimated Free Energy of Binding    =  -12.52 kcal/mol  [=(1)+(2)+(3)-(4)]
USER    Estimated Inhibition Constant, Ki   =  664.06 pM (picomolar)  [Temperature = 298.15 K]
USER    
USER    (1) Final Intermolecular Energy     =  -13.71 kcal/mol
USER        vdW + Hbond + desolv Energy     =  -13.71 kcal/mol
USER        Electrostatic Energy            =   +0.00 kcal/mol
USER    (2) Final Total Internal Energy     =   -4.99 kcal/mol
USER    (3) Torsional Free Energy           =   +1.19 kcal/mol
USER    (4) Unbound System's Energy  [=(2)] =   -4.99 kcal/mol
USER    
USER    
USER    NEWDPF move ligand_81.pdbqt
USER    NEWDPF about 0.000000 0.000000 0.000000
USER    NEWDPF tran0 17.452487 5.317723 4.671810
USER    NEWDPF quaternion0 0.244346 -0.039027 -0.196804 -0.948705
USER    NEWDPF axisangle0 0.772845 -0.123440 -0.622473 -36.862187
USER    NEWDPF quat0 0.772845 -0.123440 -0.622473 -36.862187
USER    NEWDPF dihe0 -180.00 148.67 72.38 32.48 -85.57 -179.48 146.02 106.65 -149.02 15.84 77.94 99.43 6.55 20.89 -177.85 66.62 
USER  keepresnum = 1 
USER  
REMARK  16 active torsions:
REMARK  status: ('A' for Active; 'I' for Inactive)
REMARK    1  A    between atoms: C2_2  and  C3_3 
REMARK    2  A    between atoms: C2_2  and  N11_55 
REMARK       I    between atoms: C3_3  and  N1_45 
REMARK    3  A    between atoms: C4_4  and  C5_5 
REMARK    4  A    between atoms: C4_4  and  N1_45 
REMARK    5  A    between atoms: C5_5  and  N2_46 
REMARK    6  A    between atoms: C6_6  and  C7_7 
REMARK       I    between atoms: C6_6  and  N2_46 
REMARK    7  A    between atoms: C12_12  and  N4_48 
REMARK    8  A    between atoms: C15_15  and  C16_16 
REMARK       I    between atoms: C15_15  and  N4_48 
REMARK    9  A    between atoms: C22_22  and  C24_24 
REMARK       I    between atoms: C24_24  and  N6_50 
REMARK   10  A    between atoms: C25_25  and  N6_50 
REMARK   11  A    between atoms: C32_32  and  C33_33 
REMARK       I    between atoms: C33_33  and  N8_52 
REMARK   12  A    between atoms: C34_34  and  C35_35 
REMARK   13  A    between atoms: C34_34  and  N8_52 
REMARK   14  A    between atoms: C35_35  and  N9_53 
REMARK   15  A    between atoms: C36_36  and  C37_37 
REMARK       I    between atoms: C36_36  and  N9_53 
REMARK   16  A    between atoms: C37_37  and  N10_54 
USER                              x       y       z     vdW  Elec       q    Type
USER                           _______ _______ _______ _____ _____    ______ ____
ROOT
ATOM      1  C16 UNL     1      16.088   8.763   3.408 -0.49 +0.00    +0.033 A 
ATOM      2  C17 UNL     1      17.251   8.013   3.644 -0.54 +0.00    +0.030 A 
ATOM      3  C18 UNL     1      18.509   8.614   3.444 -0.51 -0.00    -0.006 A 
ATOM      4  C19 UNL     1      18.561   9.942   3.028 -0.34 +0.00    +0.043 A 
ATOM      5  C20 UNL     1      17.416  10.714   2.806 -0.46 +0.00    +0.031 A 
ATOM      6  C21 UNL     1      16.174  10.102   3.009 -0.39 +0.00    +0.019 A 
ATOM      7  C22 UNL     1      20.701   9.205   3.242 -0.14 +0.00    +0.102 A 
ATOM      8  C23 UNL     1      19.853   8.162   3.576 +0.32 +0.00    +0.049 A 
ATOM      9  N5  UNL     1      19.890  10.270   2.911 +0.08 -0.00    -0.351 N 
ATOM     10  H33 UNL     1      20.250  11.172   2.627 +0.13 +0.00    +0.166 HD
ENDROOT
BRANCH   1  11
ATOM     11  C15 UNL     1      14.771   8.097   3.623 -0.36 +0.00    +0.256 C 
ATOM     12  O3  UNL     1      13.854   8.368   2.857 +0.06 -0.00    -0.267 OA
ATOM     13  N4  UNL     1      14.721   7.257   4.719 -0.27 -0.00    -0.323 N 
ATOM     14  H32 UNL     1      15.528   7.253   5.331 +0.11 +0.00    +0.169 HD
BRANCH  13  15
ATOM     15  C12 UNL     1      13.631   6.465   5.145 -0.41 +0.00    +0.037 A 
ATOM     16  C11 UNL     1      12.490   6.245   4.367 -0.25 +0.00    +0.059 A 
ATOM     17  C10 UNL     1      11.475   5.434   4.896 -0.28 +0.00    +0.045 A 
ATOM     18  C9  UNL     1      11.559   4.843   6.152 -0.40 -0.00    -0.007 A 
ATOM     19  N3  UNL     1      10.270   5.059   4.355 -0.09 -0.00    -0.351 N 
ATOM     20  C8  UNL     1      10.359   4.102   6.347 -0.40 +0.00    +0.049 A 
ATOM     21  C14 UNL     1      12.711   5.064   6.925 -0.49 +0.00    +0.016 A 
ATOM     22  C7  UNL     1       9.563   4.251   5.221 -0.30 +0.00    +0.102 A 
ATOM     23  C13 UNL     1      13.734   5.873   6.410 -0.49 +0.00    +0.030 A 
ATOM     24  H31 UNL     1       9.932   5.337   3.442 +0.06 +0.00    +0.166 HD
BRANCH  22  25
ATOM     25  C6  UNL     1       8.259   3.734   4.867 -0.22 +0.00    +0.268 C 
ATOM     26  O2  UNL     1       8.129   2.743   4.153 -0.19 -0.00    -0.266 OA
ATOM     27  N2  UNL     1       7.192   4.429   5.386 -0.12 -0.00    -0.354 N 
ATOM     28  H30 UNL     1       7.385   5.298   5.858 +0.09 +0.00    +0.162 HD
BRANCH  27  29
ATOM     29  C5  UNL     1       5.800   4.168   5.035 -0.24 +0.00    +0.142 C 
BRANCH  29  30
ATOM     30  C4  UNL     1       5.329   4.883   3.760 -0.15 +0.00    +0.142 C 
BRANCH  30  31
ATOM     31  N1  UNL     1       6.041   4.428   2.582 -0.01 -0.00    -0.358 N 
ATOM     32  C3  UNL     1       5.904   5.083   1.376 -0.11 +0.00    +0.250 C 
ATOM     33  O1  UNL     1       5.084   5.981   1.188 -0.18 -0.00    -0.271 OA
ATOM     34  H29 UNL     1       6.949   4.000   2.763 +0.07 +0.00    +0.162 HD
BRANCH  32  35
ATOM     35  C2  UNL     1       6.899   4.627   0.288 -0.05 +0.00    +0.304 C 
ATOM     36  C1  UNL     1       8.118   3.999   0.954 -0.14 +0.00    +0.053 C 
BRANCH  35  37
ATOM     37  N11 UNL     1       7.284   5.785  -0.540 -0.07 +0.00    +0.091 N 
ATOM     38  H40 UNL     1       7.309   5.470  -1.514 -0.41 +0.00    +0.313 HD
ATOM     39  H41 UNL     1       6.565   6.502  -0.488 -0.29 +0.00    +0.313 HD
ENDBRANCH  35  37
ENDBRANCH  32  35
ENDBRANCH  30  31
ENDBRANCH  29  30
ENDBRANCH  27  29
ENDBRANCH  22  25
ENDBRANCH  13  15
ENDBRANCH   1  11
BRANCH   7  40
ATOM     40  C24 UNL     1      22.148   9.332   3.189 -0.30 +0.00    +0.272 C 
ATOM     41  O4  UNL     1      22.721  10.113   3.941 -0.41 -0.00    -0.266 OA
ATOM     42  N6  UNL     1      22.759   8.516   2.258 -0.20 -0.00    -0.322 N 
ATOM     43  H34 UNL     1      22.154   7.905   1.731 +0.15 +0.00    +0.169 HD
BRANCH  42  44
ATOM     44  C25 UNL     1      24.135   8.413   1.957 -0.42 +0.00    +0.037 A 
ATOM     45  C26 UNL     1      24.462   7.852   0.710 -0.39 +0.00    +0.059 A 
ATOM     46  C27 UNL     1      25.816   7.729   0.370 -0.36 +0.00    +0.045 A 
ATOM     47  C28 UNL     1      26.841   8.145   1.213 -0.44 -0.00    -0.007 A 
ATOM     48  N7  UNL     1      26.406   7.230  -0.768 -0.13 -0.00    -0.351 N 
ATOM     49  C29 UNL     1      26.505   8.707   2.455 -0.55 +0.00    +0.016 A 
ATOM     50  C31 UNL     1      28.064   7.879   0.542 -0.33 +0.00    +0.049 A 
ATOM     51  C30 UNL     1      25.153   8.833   2.814 -0.56 +0.00    +0.030 A 
ATOM     52  C32 UNL     1      27.781   7.286  -0.676 -0.26 +0.00    +0.102 A 
ATOM     53  H35 UNL     1      25.900   6.909  -1.587 +0.10 +0.00    +0.166 HD
BRANCH  52  54
ATOM     54  C33 UNL     1      28.713   6.860  -1.699 -0.18 +0.00    +0.268 C 
ATOM     55  O5  UNL     1      29.375   5.829  -1.614 -0.10 -0.00    -0.266 OA
ATOM     56  N8  UNL     1      28.814   7.709  -2.780 +0.01 -0.00    -0.354 N 
ATOM     57  H36 UNL     1      28.341   8.602  -2.733 +0.11 +0.00    +0.162 HD
BRANCH  56  58
ATOM     58  C34 UNL     1      29.962   7.675  -3.661 -0.24 +0.00    +0.142 C 
BRANCH  58  59
ATOM     59  C35 UNL     1      31.197   8.291  -2.987 -0.19 +0.00    +0.142 C 
BRANCH  59  60
ATOM     60  N9  UNL     1      31.225   8.131  -1.538 -0.04 -0.00    -0.358 N 
ATOM     61  C36 UNL     1      31.086   9.150  -0.618 -0.18 +0.00    +0.250 C 
ATOM     62  O6  UNL     1      31.120  10.348  -0.888 -0.80 -0.00    -0.271 OA
ATOM     63  H37 UNL     1      30.988   7.218  -1.153 +0.06 +0.00    +0.162 HD
BRANCH  61  64
ATOM     64  C37 UNL     1      30.958   8.634   0.832 -0.05 +0.00    +0.304 C 
ATOM     65  C38 UNL     1      32.116   9.161   1.667 -0.20 +0.00    +0.053 C 
BRANCH  64  66
ATOM     66  N10 UNL     1      30.973   7.151   0.834 -0.18 +0.00    +0.091 N 
ATOM     67  H38 UNL     1      31.944   6.841   0.755 +0.10 +0.00    +0.313 HD
ATOM     68  H39 UNL     1      30.514   6.819  -0.016 +0.12 +0.00    +0.313 HD
ENDBRANCH  64  66
ENDBRANCH  61  64
ENDBRANCH  59  60
ENDBRANCH  58  59
ENDBRANCH  56  58
ENDBRANCH  52  54
ENDBRANCH  42  44
ENDBRANCH   7  40
TORSDOF 16
TER
