USER    Run = 1
USER    DPF = ligand_127_receptor.dpf
USER  
USER    Estimated Free Energy of Binding    =  +1.84e+005 kcal/mol  [=(1)+(2)+(3)-(4)]
USER    
USER    (1) Final Intermolecular Energy     =  +1.84e+005 kcal/mol
USER        vdW + Hbond + desolv Energy     =  +1.84e+005 kcal/mol
USER        Electrostatic Energy            =   +0.00 kcal/mol
USER    (2) Final Total Internal Energy     =   +0.00 kcal/mol
USER    (3) Torsional Free Energy           =   +1.19 kcal/mol
USER    (4) Unbound System's Energy  [=(2)] =   +0.00 kcal/mol
USER    
USER    
USER    NEWDPF move ligand_127.pdbqt
USER    NEWDPF about 0.000000 0.000000 0.000000
USER    NEWDPF tran0 14.369194 7.310541 2.943032
USER    NEWDPF quaternion0 -0.170142 0.861695 -0.475280 0.051395
USER    NEWDPF axisangle0 -0.170367 0.862836 -0.475909 174.107919
USER    NEWDPF quat0 -0.170367 0.862836 -0.475909 174.107919
USER  keepresnum = 1 
USER  
REMARK  0 active torsions:
REMARK  status: ('A' for Active; 'I' for Inactive)
REMARK       I    between atoms: C2_2  and  O1_73 
REMARK       I    between atoms: C3_3  and  C15_15 
REMARK       I    between atoms: C5_5  and  C8_8 
REMARK       I    between atoms: C8_8  and  C9_9 
REMARK       I    between atoms: C9_9  and  C10_10 
REMARK       I    between atoms: C10_10  and  C11_11 
REMARK       I    between atoms: C10_10  and  N4_92 
REMARK       I    between atoms: C11_11  and  C12_12 
REMARK       I    between atoms: C12_12  and  C13_13 
REMARK       I    between atoms: C13_13  and  N1_88 
REMARK       I    between atoms: C14_14  and  N1_88 
REMARK       I    between atoms: C14_14  and  N2_89 
REMARK       I    between atoms: C14_14  and  N3_91 
REMARK       I    between atoms: C15_15  and  N5_93 
REMARK       I    between atoms: C16_16  and  C17_17 
REMARK       I    between atoms: C16_16  and  C21_21 
REMARK       I    between atoms: C16_16  and  N5_93 
REMARK       I    between atoms: C17_17  and  C18_18 
REMARK       I    between atoms: C18_18  and  C19_19 
REMARK       I    between atoms: C19_19  and  N6_94 
REMARK       I    between atoms: C20_20  and  N6_94 
REMARK       I    between atoms: C20_20  and  N7_95 
REMARK       I    between atoms: C20_20  and  N8_97 
REMARK       I    between atoms: C21_21  and  C22_22 
REMARK       I    between atoms: C22_22  and  C23_23 
REMARK       I    between atoms: C25_25  and  C31_31 
REMARK       I    between atoms: C26_26  and  O5_77 
REMARK       I    between atoms: C29_29  and  C30_30 
REMARK       I    between atoms: C29_29  and  O5_77 
REMARK       I    between atoms: C30_30  and  O7_79 
REMARK       I    between atoms: C31_31  and  N9_98 
REMARK       I    between atoms: C32_32  and  C33_33 
REMARK       I    between atoms: C32_32  and  C37_37 
REMARK       I    between atoms: C32_32  and  N9_98 
REMARK       I    between atoms: C33_33  and  C34_34 
REMARK       I    between atoms: C34_34  and  C35_35 
REMARK       I    between atoms: C35_35  and  N10_99 
REMARK       I    between atoms: C36_36  and  N10_99 
REMARK       I    between atoms: C36_36  and  N11_100 
REMARK       I    between atoms: C36_36  and  N12_102 
REMARK       I    between atoms: C37_37  and  C38_38 
REMARK       I    between atoms: C38_38  and  C39_39 
REMARK       I    between atoms: C41_41  and  C46_46 
REMARK       I    between atoms: C42_42  and  O10_82 
REMARK       I    between atoms: C46_46  and  N13_103 
REMARK       I    between atoms: C47_47  and  C48_48 
REMARK       I    between atoms: C47_47  and  C52_52 
REMARK       I    between atoms: C47_47  and  N13_103 
REMARK       I    between atoms: C48_48  and  C49_49 
REMARK       I    between atoms: C49_49  and  C50_50 
REMARK       I    between atoms: C50_50  and  N14_104 
REMARK       I    between atoms: C51_51  and  N14_104 
REMARK       I    between atoms: C51_51  and  N16_107 
REMARK       I    between atoms: C52_52  and  C53_53 
REMARK       I    between atoms: C53_53  and  C54_54 
REMARK       I    between atoms: C56_56  and  C61_61 
REMARK       I    between atoms: C57_57  and  O13_85 
REMARK       I    between atoms: C61_61  and  N17_108 
REMARK       I    between atoms: C62_62  and  C63_63 
REMARK       I    between atoms: C62_62  and  C72_72 
REMARK       I    between atoms: C62_62  and  N17_108 
REMARK       I    between atoms: C63_63  and  C64_64 
REMARK       I    between atoms: C72_72  and  N19_110 
USER                              x       y       z     vdW  Elec       q    Type
USER                           _______ _______ _______ _____ _____    ______ ____
ROOT
ATOM      1  C1  UNL     1      13.578   8.449   2.722 +7.09 +0.00    +0.210 C 
ATOM      2  C2  UNL     1      11.717   8.744   4.191 +0.33 +0.00    +0.084 A 
ATOM      3  C3  UNL     1      10.695   8.164   4.967 -0.35 +0.00    +0.065 A 
ATOM      4  C4  UNL     1       9.656   8.971   5.464+20.75 +0.00    +0.027 A 
ATOM      5  C5  UNL     1       9.582  10.334   5.152+40.06 -0.00    -0.050 A 
ATOM      6  C6  UNL     1      10.610  10.904   4.399+99.99 +0.00    +0.010 A 
ATOM      7  C7  UNL     1      11.675  10.122   3.941+82.28 +0.00    +0.038 A 
ATOM      8  C8  UNL     1       8.372  11.145   5.539+99.99 +0.00    +0.119 C 
ATOM      9  C9  UNL     1       7.295  11.171   4.462+99.99 +0.00    +0.163 C 
ATOM     10  C10 UNL     1       6.616   9.834   4.098+99.99 +0.00    +0.287 C 
ATOM     11  C11 UNL     1       7.300   9.176   2.889 +7.07 +0.00    +0.045 C 
ATOM     12  C12 UNL     1       7.240   7.640   2.909 +0.30 +0.00    +0.022 C 
ATOM     13  C13 UNL     1       5.857   7.048   2.649 -0.04 +0.00    +0.122 C 
ATOM     14  C14 UNL     1       5.746   6.580   0.240 -0.10 +0.00    +0.143 C 
ATOM     15  C15 UNL     1      10.570   6.701   5.252 -0.20 +0.00    +0.255 C 
ATOM     16  C16 UNL     1      11.192   4.395   4.586 -0.12 +0.00    +0.154 C 
ATOM     17  C17 UNL     1      11.530   3.744   3.233+99.99 +0.00    +0.034 C 
ATOM     18  C18 UNL     1      10.726   4.270   2.035+99.99 +0.00    +0.022 C 
ATOM     19  C19 UNL     1       9.202   4.195   2.162 +0.04 +0.00    +0.122 C 
ATOM     20  C20 UNL     1       7.464   2.450   2.207 -0.22 +0.00    +0.143 C 
ATOM     21  C21 UNL     1      12.071   3.754   5.682 -0.28 +0.00    +0.153 C 
ATOM     22  C22 UNL     1      12.828   4.665   6.637 -0.50 +0.00    +0.119 C 
ATOM     23  C23 UNL     1      14.070   4.047   7.246 -0.26 -0.00    -0.050 A 
ATOM     24  C24 UNL     1      15.045   3.466   6.423+99.99 +0.00    +0.027 A 
ATOM     25  C25 UNL     1      16.236   2.965   6.965+99.99 +0.00    +0.065 A 
ATOM     26  C26 UNL     1      16.449   3.027   8.343+99.99 +0.00    +0.085 A 
ATOM     27  C27 UNL     1      15.491   3.614   9.171+99.99 +0.00    +0.038 A 
ATOM     28  C28 UNL     1      14.306   4.119   8.625 +3.23 +0.00    +0.010 A 
ATOM     29  C29 UNL     1      17.616   1.256   9.255+99.99 +0.00    +0.285 C 
ATOM     30  C30 UNL     1      19.021   0.696   9.151+17.09 +0.00    +0.164 C 
ATOM     31  C31 UNL     1      17.233   2.370   6.049+99.99 +0.00    +0.255 C 
ATOM     32  C32 UNL     1      18.370   2.659   3.872+99.99 +0.00    +0.154 C 
ATOM     33  C33 UNL     1      18.271   3.645   2.694+16.35 +0.00    +0.034 C 
ATOM     34  C34 UNL     1      16.826   3.865   2.226+99.99 +0.00    +0.022 C 
ATOM     35  C35 UNL     1      16.590   5.235   1.594+99.99 +0.00    +0.122 C 
ATOM     36  C36 UNL     1      16.668   6.602   3.685+91.99 +0.00    +0.143 C 
ATOM     37  C37 UNL     1      19.862   2.349   4.120+99.99 +0.00    +0.153 C 
ATOM     38  C38 UNL     1      20.528   2.780   5.415+76.48 +0.00    +0.119 C 
ATOM     39  C39 UNL     1      20.531   4.274   5.633 +9.21 -0.00    -0.050 A 
ATOM     40  C40 UNL     1      20.992   5.146   4.640+99.99 +0.00    +0.027 A 
ATOM     41  C41 UNL     1      20.923   6.542   4.800+99.99 +0.00    +0.065 A 
ATOM     42  C42 UNL     1      20.429   7.074   6.011+99.99 +0.00    +0.084 A 
ATOM     43  C43 UNL     1      20.008   6.194   7.018 +7.27 +0.00    +0.038 A 
ATOM     44  C44 UNL     1      20.061   4.810   6.831 +5.59 +0.00    +0.010 A 
ATOM     45  C45 UNL     1      20.150   8.968   7.441+99.99 +0.00    +0.210 C 
ATOM     46  C46 UNL     1      21.354   7.357   3.614+41.24 +0.00    +0.255 C 
ATOM     47  C47 UNL     1      21.179   9.529   2.473 -0.37 +0.00    +0.154 C 
ATOM     48  C48 UNL     1      21.619  10.966   2.756 +3.22 +0.00    +0.034 C 
ATOM     49  C49 UNL     1      23.104  11.099   3.126+23.17 +0.00    +0.022 C 
ATOM     50  C50 UNL     1      24.097  10.646   2.051 +4.98 +0.00    +0.122 C 
ATOM     51  C51 UNL     1      23.177  11.172  -0.196 +2.00 +0.00    +0.143 C 
ATOM     52  C52 UNL     1      19.731   9.512   1.958 +0.06 +0.00    +0.153 C 
ATOM     53  C53 UNL     1      19.550   9.669   0.453 +0.28 +0.00    +0.119 C 
ATOM     54  C54 UNL     1      18.114   9.499   0.010 -0.29 -0.00    -0.050 A 
ATOM     55  C55 UNL     1      17.182  10.522   0.221 -0.37 +0.00    +0.027 A 
ATOM     56  C56 UNL     1      15.820  10.353  -0.095 +4.16 +0.00    +0.065 A 
ATOM     57  C57 UNL     1      15.383   9.132  -0.639 +4.93 +0.00    +0.084 A 
ATOM     58  C58 UNL     1      16.328   8.125  -0.889 -0.37 +0.00    +0.038 A 
ATOM     59  C59 UNL     1      17.677   8.306  -0.565 +4.03 +0.00    +0.010 A 
ATOM     60  C60 UNL     1      13.597   7.735  -1.398+99.99 +0.00    +0.210 C 
ATOM     61  C61 UNL     1      14.936  11.525   0.197 +0.86 +0.00    +0.255 C 
ATOM     62  C62 UNL     1      12.619  12.410   0.432+99.99 +0.00    +0.181 C 
ATOM     63  C63 UNL     1      11.175  11.939   0.169+77.42 +0.00    +0.075 C 
ATOM     64  C64 UNL     1      10.980  11.207  -1.127+47.39 -0.00    -0.028 A 
ATOM     65  C65 UNL     1      11.319  11.655  -2.389 +1.95 +0.00    +0.096 A 
ATOM     66  C66 UNL     1      10.386   9.624  -2.658 +0.23 +0.00    +0.042 A 
ATOM     67  C67 UNL     1       9.873   8.430  -3.181 -0.42 +0.00    +0.030 A 
ATOM     68  C68 UNL     1       9.331   7.509  -2.279 -0.37 +0.00    +0.002 A 
ATOM     69  C69 UNL     1       9.302   7.774  -0.913 -0.33 +0.00    +0.001 A 
ATOM     70  C70 UNL     1       9.820   8.972  -0.408+99.99 +0.00    +0.014 A 
ATOM     71  C71 UNL     1      10.376   9.918  -1.293+72.81 -0.00    -0.002 A 
ATOM     72  C72 UNL     1      12.628  13.150   1.799+99.99 +0.00    +0.238 C 
ATOM     73  O1  UNL     1      12.713   7.923   3.725 -0.25 -0.00    -0.355 OA
ATOM     74  O2  UNL     1       6.946  12.232   3.935+99.99 -0.00    -0.295 OA
ATOM     75  O3  UNL     1       9.796   6.296   6.114 -0.16 -0.00    -0.268 OA
ATOM     76  O4  UNL     1      12.104   2.522   5.798 +4.83 -0.00    -0.295 OA
ATOM     77  O5  UNL     1      17.635   2.644   8.908+99.99 -0.00    -0.340 OA
ATOM     78  O6  UNL     1      20.050   1.298   8.883 +2.94 -0.00    -0.648 OA
ATOM     79  O7  UNL     1      19.067  -0.626   9.432+64.73 -0.00    -0.775 OA
ATOM     80  O8  UNL     1      17.632   1.223   6.209+33.43 -0.00    -0.268 OA
ATOM     81  O9  UNL     1      20.531   1.786   3.241+48.14 -0.00    -0.295 OA
ATOM     82  O10 UNL     1      20.350   8.439   6.134+12.61 -0.00    -0.355 OA
ATOM     83  O11 UNL     1      21.770   6.814   2.594+90.04 -0.00    -0.268 OA
ATOM     84  O12 UNL     1      18.777   9.407   2.740 -0.28 -0.00    -0.295 OA
ATOM     85  O13 UNL     1      14.045   8.994  -0.903+11.64 -0.00    -0.355 OA
ATOM     86  O14 UNL     1      15.428  12.645   0.323 +0.74 -0.00    -0.268 OA
ATOM     87  O15 UNL     1      11.624  13.619   2.332 +5.84 -0.00    -0.271 OA
ATOM     88  N1  UNL     1       5.414   7.354   1.297 +0.44 -0.00    -0.367 N 
ATOM     89  N2  UNL     1       6.600   5.622   0.254 -0.07 -0.00    -0.376 N 
ATOM     90  H2  UNL     1       7.172   5.348   1.053 +0.07 +0.00    +0.158 HD
ATOM     91  N3  UNL     1       5.077   6.955  -0.866 +2.75 -0.00    -0.274 NA
ATOM     92  N4  UNL     1       5.186  10.081   3.811+49.35 +0.00    +0.090 N 
ATOM     93  N5  UNL     1      11.319   5.841   4.487 -0.10 -0.00    -0.345 N 
ATOM     94  N6  UNL     1       8.761   2.820   2.296 -0.09 -0.00    -0.367 N 
ATOM     95  N7  UNL     1       6.454   3.078   1.741 -0.01 -0.00    -0.376 N 
ATOM     96  H7  UNL     1       5.505   2.703   1.720 +0.05 +0.00    +0.158 HD
ATOM     97  N8  UNL     1       7.287   1.204   2.688 +0.22 -0.00    -0.274 NA
ATOM     98  N9  UNL     1      17.644   3.186   5.022+99.99 -0.00    -0.345 N 
ATOM     99  N10 UNL     1      17.013   6.370   2.400 +3.74 -0.00    -0.367 N 
ATOM    100  N11 UNL     1      16.206   5.737   4.513+99.99 -0.00    -0.376 N 
ATOM    101  H11 UNL     1      16.058   4.746   4.324+99.99 +0.00    +0.158 HD
ATOM    102  N12 UNL     1      16.864   7.888   4.033 -0.58 -0.00    -0.274 NA
ATOM    103  N13 UNL     1      21.215   8.726   3.690 +0.61 -0.00    -0.345 N 
ATOM    104  N14 UNL     1      23.978  11.458   0.851+29.34 -0.00    -0.367 N 
ATOM    105  N15 UNL     1      22.748  10.032  -0.587 -0.03 -0.00    -0.376 N 
ATOM    106  H15 UNL     1      22.079   9.881  -1.342 +0.62 +0.00    +0.158 HD
ATOM    107  N16 UNL     1      22.807  12.279  -0.868 -0.26 -0.00    -0.274 NA
ATOM    108  N17 UNL     1      13.587  11.300   0.371+26.55 -0.00    -0.343 N 
ATOM    109  N18 UNL     1      10.962  10.696  -3.298 -0.17 -0.00    -0.365 N 
ATOM    110  N19 UNL     1      13.845  13.383   2.371+99.99 -0.00    -0.368 N 
ATOM    111  H68 UNL     1      20.007  -0.860   9.282+99.99 +0.00    +0.167 HD
ATOM    112  H69 UNL     1       4.446   7.656   1.278 +1.51 +0.00    +0.162 HD
ATOM    113  H70 UNL     1       6.611   5.180  -0.667 -0.21 +0.00    +0.158 HD
ATOM    114  H71 UNL     1       4.951   7.959  -0.915 +0.26 +0.00    +0.127 HD
ATOM    115  H72 UNL     1       5.459   6.603  -1.734+65.76 +0.00    +0.127 HD
ATOM    116  H73 UNL     1       4.770  10.574   4.602 +0.16 +0.00    +0.313 HD
ATOM    117  H74 UNL     1       5.147  10.769   3.050+99.99 +0.00    +0.313 HD
ATOM    118  H75 UNL     1      12.059   6.241   3.915 +0.10 +0.00    +0.163 HD
ATOM    119  H76 UNL     1       9.208   2.329   3.063 -0.41 +0.00    +0.162 HD
ATOM    120  H77 UNL     1       6.717   4.013   1.386 +0.06 +0.00    +0.158 HD
ATOM    121  H78 UNL     1       6.333   0.918   2.486 +0.04 +0.00    +0.127 HD
ATOM    122  H79 UNL     1       7.938   0.544   2.283 -0.15 +0.00    +0.127 HD
ATOM    123  H80 UNL     1      17.215   4.113   4.927+99.99 +0.00    +0.163 HD
ATOM    124  H81 UNL     1      17.097   7.223   1.858 -0.10 +0.00    +0.162 HD
ATOM    125  H82 UNL     1      16.010   6.218   5.397 +0.37 +0.00    +0.158 HD
ATOM    126  H83 UNL     1      16.953   8.066   5.024 +0.08 +0.00    +0.127 HD
ATOM    127  H84 UNL     1      17.623   8.366   3.535 +0.08 +0.00    +0.127 HD
ATOM    128  H85 UNL     1      20.660   9.060   4.473 +0.19 +0.00    +0.163 HD
ATOM    129  H86 UNL     1      24.019  12.452   1.053+67.49 +0.00    +0.162 HD
ATOM    130  H87 UNL     1      23.181   9.295  -0.024 +0.12 +0.00    +0.158 HD
ATOM    131  H88 UNL     1      22.314  12.001  -1.712 +0.08 +0.00    +0.127 HD
ATOM    132  H89 UNL     1      23.597  12.859  -1.124 -0.10 +0.00    +0.127 HD
ATOM    133  H90 UNL     1      13.248  10.425  -0.023+54.80 +0.00    +0.163 HD
ATOM    134  H91 UNL     1      11.089  10.765  -4.298 +0.10 +0.00    +0.165 HD
ATOM    135  H92 UNL     1      14.671  13.340   1.772+99.99 +0.00    +0.159 HD
ATOM    136  H93 UNL     1      13.869  14.028   3.146+49.77 +0.00    +0.159 HD
ENDROOT
TORSDOF 47
TER
