USER    Run = 1
USER    DPF = ligand_84_receptor.dpf
USER  
USER    Estimated Free Energy of Binding    =  +5.58e+004 kcal/mol  [=(1)+(2)+(3)-(4)]
USER    
USER    (1) Final Intermolecular Energy     =  +5.58e+004 kcal/mol
USER        vdW + Hbond + desolv Energy     =  +5.58e+004 kcal/mol
USER        Electrostatic Energy            =   +0.00 kcal/mol
USER    (2) Final Total Internal Energy     =  +3.44e+003 kcal/mol
USER    (3) Torsional Free Energy           =   +1.19 kcal/mol
USER    (4) Unbound System's Energy  [=(2)] =  +3.44e+003 kcal/mol
USER    
USER    
USER    NEWDPF move ligand_84.pdbqt
USER    NEWDPF about 0.000000 0.000000 0.000000
USER    NEWDPF tran0 18.472841 8.110089 2.696899
USER    NEWDPF quaternion0 -0.803604 0.007839 0.252729 0.538783
USER    NEWDPF axisangle0 -0.953896 0.009305 0.299994 114.798272
USER    NEWDPF quat0 -0.953896 0.009305 0.299994 114.798272
USER    NEWDPF dihe0 180.00 156.65 -8.15 -118.94 -170.30 179.91 60.18 179.49 -44.82 -145.19 127.18 -17.54 9.43 -176.24 97.14 -118.15 -40.01 11.75 40.88 -174.97 -121.79 128.15 
USER  keepresnum = 1 
USER  
REMARK  22 active torsions:
REMARK  status: ('A' for Active; 'I' for Inactive)
REMARK    1  A    between atoms: C2_2  and  N1_72 
REMARK    2  A    between atoms: C6_6  and  O1_80 
REMARK    3  A    between atoms: C11_11  and  O28_107 
REMARK    4  A    between atoms: C21_21  and  O19_98 
REMARK    5  A    between atoms: C30_30  and  O18_97 
REMARK    6  A    between atoms: C33_33  and  C55_55 
REMARK    7  A    between atoms: C36_36  and  O15_94 
REMARK    8  A    between atoms: C38_38  and  O9_88 
REMARK    9  A    between atoms: C41_41  and  O8_87 
REMARK   10  A    between atoms: C49_49  and  O9_88 
REMARK   11  A    between atoms: C50_50  and  O14_93 
REMARK   12  A    between atoms: C51_51  and  O13_92 
REMARK   13  A    between atoms: C52_52  and  O12_91 
REMARK   14  A    between atoms: C53_53  and  C54_54 
REMARK   15  A    between atoms: C54_54  and  O11_90 
REMARK   16  A    between atoms: C55_55  and  O17_96 
REMARK   17  A    between atoms: C56_56  and  O19_98 
REMARK   18  A    between atoms: C57_57  and  N6_77 
REMARK   19  A    between atoms: C58_58  and  O24_103 
REMARK   20  A    between atoms: C59_59  and  O23_102 
REMARK   21  A    between atoms: C60_60  and  C61_61 
REMARK   22  A    between atoms: C61_61  and  O22_101 
USER                              x       y       z     vdW  Elec       q    Type
USER                           _______ _______ _______ _____ _____    ______ ____
ROOT
ATOM      1  C2  UNL     1      11.241  13.364   0.951+99.99 +0.00    +0.344 C 
ATOM      2  C3  UNL     1      11.758  13.012  -0.449+99.99 -0.00    -0.013 C 
ATOM      3  C4  UNL     1      13.123  13.217  -0.721+99.99 +0.00    +0.050 C 
ATOM      4  C5  UNL     1      13.714  12.671  -1.863 +6.37 +0.00    +0.109 C 
ATOM      5  C6  UNL     1      12.919  12.100  -2.851+30.36 +0.00    +0.099 C 
ATOM      6  C7  UNL     1      11.549  11.999  -2.666+18.64 +0.00    +0.040 C 
ATOM      7  C8  UNL     1      10.975  12.429  -1.462 +2.24 +0.00    +0.013 C 
ATOM      8  C9  UNL     1      15.687  11.524  -1.414+99.99 +0.00    +0.079 A 
ATOM      9  C10 UNL     1      16.672  10.880  -2.154+99.99 +0.00    +0.075 A 
ATOM     10  C11 UNL     1      17.246   9.714  -1.647 +5.18 +0.00    +0.090 A 
ATOM     11  C12 UNL     1      16.856   9.192  -0.399 -0.27 +0.00    +0.076 A 
ATOM     12  C13 UNL     1      15.904   9.865   0.388 -0.05 +0.00    +0.001 A 
ATOM     13  C14 UNL     1      15.347  11.041  -0.143 +8.16 +0.00    +0.049 A 
ATOM     14  C15 UNL     1      15.469   9.347   1.754 +1.38 +0.00    +0.212 C 
ATOM     15  C16 UNL     1      16.630   9.381   2.779 -0.37 +0.00    +0.246 C 
ATOM     16  C17 UNL     1      17.893   8.068   4.443 +0.16 +0.00    +0.210 C 
ATOM     17  C18 UNL     1      17.486   7.306   5.694+31.70 -0.00    -0.021 A 
ATOM     18  C19 UNL     1      16.311   7.659   6.373+99.99 +0.00    +0.050 A 
ATOM     19  C20 UNL     1      15.861   6.932   7.486+36.84 +0.00    +0.113 A 
ATOM     20  C21 UNL     1      16.656   5.899   8.002+99.99 +0.00    +0.139 A 
ATOM     21  C22 UNL     1      17.860   5.556   7.371+99.99 +0.00    +0.113 A 
ATOM     22  C23 UNL     1      18.257   6.265   6.224+99.99 +0.00    +0.050 A 
ATOM     23  C24 UNL     1      19.854   4.307   7.396+56.85 +0.00    +0.098 A 
ATOM     24  C25 UNL     1      20.951   5.062   7.818+62.21 +0.00    +0.068 A 
ATOM     25  C26 UNL     1      22.163   4.952   7.132+99.99 +0.00    +0.036 A 
ATOM     26  C27 UNL     1      22.293   4.087   6.030+99.99 -0.00    -0.025 A 
ATOM     27  C28 UNL     1      21.211   3.259   5.691+93.39 +0.00    +0.012 A 
ATOM     28  C29 UNL     1      19.997   3.365   6.374 +6.22 +0.00    +0.040 A 
ATOM     29  C30 UNL     1      23.593   4.063   5.246+99.99 +0.00    +0.183 C 
ATOM     30  C31 UNL     1      23.480   4.258   3.704+99.99 +0.00    +0.210 C 
ATOM     31  C32 UNL     1      24.869   4.652   3.098+23.34 +0.00    +0.244 C 
ATOM     32  C33 UNL     1      25.978   6.039   1.350 -0.12 +0.00    +0.217 C 
ATOM     33  C34 UNL     1      25.719   6.378  -0.127 -0.39 -0.00    -0.009 A 
ATOM     34  C35 UNL     1      26.423   5.615  -1.083 -0.35 +0.00    +0.047 A 
ATOM     35  C36 UNL     1      26.298   5.886  -2.443 +1.76 +0.00    +0.069 A 
ATOM     36  C37 UNL     1      25.480   6.907  -2.897+12.13 +0.00    +0.074 A 
ATOM     37  C38 UNL     1      24.748   7.659  -1.979 +2.41 +0.00    +0.086 A 
ATOM     38  C39 UNL     1      24.850   7.416  -0.587 -0.42 +0.00    +0.019 A 
ATOM     39  C40 UNL     1      23.999   8.191   0.334 -0.52 +0.00    +0.011 C 
ATOM     40  C41 UNL     1      24.328   9.469   0.799 +0.18 +0.00    +0.076 C 
ATOM     41  C42 UNL     1      23.548  10.100   1.768 +0.54 +0.00    +0.038 C 
ATOM     42  C43 UNL     1      22.465   9.426   2.342 -0.51 +0.00    +0.012 C 
ATOM     43  C44 UNL     1      22.112   8.146   1.898 +2.01 -0.00    -0.025 C 
ATOM     44  C45 UNL     1      22.824   7.595   0.819 +0.24 +0.00    +0.025 C 
ATOM     45  C46 UNL     1      21.175   7.219   2.664+99.99 +0.00    +0.210 C 
ATOM     46  C47 UNL     1      22.058   6.373   3.646+99.99 +0.00    +0.245 C 
ATOM     47  C48 UNL     1      18.912   7.304   3.564 +1.10 +0.00    +0.246 C 
ATOM     48  C62 UNL     1      13.686   7.781   7.328 +0.25 +0.00    +0.076 A 
ATOM     49  C63 UNL     1      13.361   9.119   7.537 -0.10 +0.00    +0.038 A 
ATOM     50  C64 UNL     1      12.537   9.776   6.621+38.88 +0.00    +0.010 A 
ATOM     51  C65 UNL     1      12.026   9.088   5.508+15.98 -0.00    -0.056 A 
ATOM     52  C66 UNL     1      11.295   9.835   4.413+99.99 +0.00    +0.073 C 
ATOM     53  C67 UNL     1      12.267  10.606   3.498+99.99 +0.00    +0.180 C 
ATOM     54  C68 UNL     1      13.161   9.640   2.681+77.15 +0.00    +0.241 C 
ATOM     55  C69 UNL     1      12.091  12.614   2.045+12.28 +0.00    +0.256 C 
ATOM     56  C70 UNL     1      12.281   7.715   5.373 -0.39 +0.00    +0.010 A 
ATOM     57  C71 UNL     1      13.102   7.058   6.287 -0.41 +0.00    +0.038 A 
ATOM     58  N2  UNL     1      16.741   8.253   3.564 -0.29 -0.00    -0.342 N 
ATOM     59  N3  UNL     1      24.784   5.489   1.998 +0.37 -0.00    -0.341 N 
ATOM     60  N4  UNL     1      22.399   5.122   3.172+99.99 -0.00    -0.343 N 
ATOM     61  N5  UNL     1      20.141   7.910   3.407 +1.66 -0.00    -0.342 N 
ATOM     62  N7  UNL     1      14.410  10.141   2.386 +8.33 -0.00    -0.342 N 
ATOM     63  N8  UNL     1      11.538  11.463   2.565+54.97 -0.00    -0.345 N 
ATOM     64  O2  UNL     1      15.089  12.643  -1.976+99.99 -0.00    -0.308 OA
ATOM     65  O3  UNL     1      17.335  10.374   2.960 -0.30 -0.00    -0.271 OA
ATOM     66  O4  UNL     1      18.594   4.510   7.915+99.99 -0.00    -0.306 OA
ATOM     67  O5  UNL     1      25.942   4.190   3.473+99.99 -0.00    -0.271 OA
ATOM     68  O6  UNL     1      22.495   6.832   4.699+99.99 -0.00    -0.271 OA
ATOM     69  O7  UNL     1      18.635   6.234   3.017 +4.14 -0.00    -0.271 OA
ATOM     70  O25 UNL     1      14.656   7.207   8.119 +0.71 -0.00    -0.308 OA
ATOM     71  O26 UNL     1      12.769   8.553   2.262+20.25 -0.00    -0.271 OA
ATOM     72  O27 UNL     1      13.215  12.990   2.385+19.56 -0.00    -0.271 OA
ATOM     73 CL1  UNL     1      20.838   6.192   9.117+99.99 -0.00    -0.081 Cl
ATOM     74 CL2  UNL     1      17.563   7.702   0.137+42.97 -0.00    -0.081 Cl
ATOM     75  H46 UNL     1      16.309   7.397   3.230 -0.06 +0.00    +0.163 HD
ATOM     76  H47 UNL     1      24.051   6.166   2.124 +0.20 +0.00    +0.163 HD
ATOM     77  H48 UNL     1      21.960   4.795   2.319 +0.72 +0.00    +0.163 HD
ATOM     78  H49 UNL     1      20.440   8.568   4.115 +0.12 +0.00    +0.163 HD
ATOM     79  H52 UNL     1      14.648  11.079   2.699 +0.03 +0.00    +0.163 HD
ATOM     80  H53 UNL     1      10.667  11.142   2.162+30.64 +0.00    +0.163 HD
ENDROOT
BRANCH  20  81
ATOM     81  O19 UNL     1      16.222   5.167   9.079+99.99 -0.00    -0.312 OA
BRANCH  81  82
ATOM     82  C56 UNL     1      14.842   4.782   8.915 +7.77 +0.00    +0.303 C 
ATOM     83  C57 UNL     1      14.580   4.665   7.395 +0.32 +0.00    +0.303 C 
ATOM     84  C58 UNL     1      13.088   4.355   7.166 -0.49 +0.00    +0.187 C 
ATOM     85  C59 UNL     1      12.460   3.549   8.314 -0.15 +0.00    +0.188 C 
ATOM     86  C60 UNL     1      13.511   2.759   9.107 +8.27 +0.00    +0.253 C 
ATOM     87  O20 UNL     1      14.614   3.534   9.573+28.64 -0.00    -0.340 OA
BRANCH  83  88
ATOM     88  N6  UNL     1      14.985   5.832   6.565 +0.52 +0.00    +0.090 N 
ATOM     89  H50 UNL     1      15.534   5.493   5.771 +1.58 +0.00    +0.313 HD
ATOM     90  H51 UNL     1      14.130   6.188   6.125 +0.24 +0.00    +0.313 HD
ENDBRANCH  83  88
BRANCH  84  91
ATOM     91  O24 UNL     1      12.957   3.647   5.927 -0.23 -0.00    -0.391 OA
ATOM     92  H65 UNL     1      12.423   2.855   6.143 +0.24 +0.00    +0.210 HD
ENDBRANCH  84  91
BRANCH  85  93
ATOM     93  O23 UNL     1      11.809   4.481   9.203 -0.12 -0.00    -0.390 OA
ATOM     94  H64 UNL     1      12.304   5.318   9.163 +0.17 +0.00    +0.210 HD
ENDBRANCH  85  93
BRANCH  86  95
ATOM     95  C61 UNL     1      13.887   1.498   8.325+99.99 +0.00    +0.172 C 
ATOM     96  O21 UNL     1      13.522   0.363   8.597+20.88 -0.00    -0.648 OA
BRANCH  95  97
ATOM     97  O22 UNL     1      14.682   1.717   7.261+60.59 -0.00    -0.774 OA
ATOM     98  H63 UNL     1      14.938   0.823   6.955 +1.28 +0.00    +0.167 HD
ENDBRANCH  95  97
ENDBRANCH  86  95
ENDBRANCH  81  82
ENDBRANCH  20  81
BRANCH  29  99
ATOM     99  O18 UNL     1      24.159   2.768   5.511+99.99 -0.00    -0.388 OA
ATOM    100  H62 UNL     1      25.053   2.764   5.127 -0.11 +0.00    +0.210 HD
ENDBRANCH  29  99
BRANCH  10 101
ATOM    101  O28 UNL     1      18.194   9.053  -2.385+25.80 -0.00    -0.359 OA
ATOM    102  H66 UNL     1      18.232   8.111  -2.115 +0.14 +0.00    +0.217 HD
ENDBRANCH  10 101
BRANCH  40 103
ATOM    103  O8  UNL     1      25.455  10.082   0.328+71.72 -0.00    -0.360 OA
ATOM    104  H55 UNL     1      25.942   9.457  -0.234 +0.93 +0.00    +0.217 HD
ENDBRANCH  40 103
BRANCH   1 105
ATOM    105  N1  UNL     1       9.803  13.074   1.190+99.99 +0.00    +0.097 N 
ATOM    106  C1  UNL     1       9.227  12.280   0.112+99.99 +0.00    +0.308 C 
ATOM    107  H45 UNL     1       9.687  12.594   2.078+99.99 +0.00    +0.316 HD
ENDBRANCH   1 105
BRANCH  32 108
ATOM    108  C55 UNL     1      26.533   7.231   2.148 -0.09 +0.00    +0.168 C 
ATOM    109  O16 UNL     1      26.113   7.650   3.218 -0.08 -0.00    -0.648 OA
BRANCH 108 110
ATOM    110  O17 UNL     1      27.599   7.818   1.560 +0.06 -0.00    -0.775 OA
ATOM    111  H61 UNL     1      28.303   7.755   2.236 +0.07 +0.00    +0.167 HD
ENDBRANCH 108 110
ENDBRANCH  32 108
BRANCH  37 112
ATOM    112  O9  UNL     1      23.963   8.712  -2.384 +5.22 -0.00    -0.317 OA
BRANCH 112 113
ATOM    113  C49 UNL     1      24.289   9.976  -1.789+56.99 +0.00    +0.298 C 
ATOM    114  C50 UNL     1      23.133  10.924  -2.169+26.06 +0.00    +0.205 C 
ATOM    115  C51 UNL     1      23.317  12.280  -1.494 +2.90 +0.00    +0.183 C 
ATOM    116  C52 UNL     1      23.545  12.130   0.016+32.06 +0.00    +0.180 C 
ATOM    117  C53 UNL     1      24.652  11.100   0.287+99.99 +0.00    +0.179 C 
ATOM    118  O10 UNL     1      24.377   9.852  -0.369+17.00 -0.00    -0.348 OA
BRANCH 114 119
ATOM    119  O14 UNL     1      21.852  10.407  -1.743+99.99 -0.00    -0.388 OA
ATOM    120  H59 UNL     1      21.311  11.196  -1.528 +2.83 +0.00    +0.210 HD
ENDBRANCH 114 119
BRANCH 115 121
ATOM    121  O13 UNL     1      22.137  13.090  -1.712 +1.53 -0.00    -0.390 OA
ATOM    122  H58 UNL     1      21.569  12.515  -2.276 +0.28 +0.00    +0.210 HD
ENDBRANCH 115 121
BRANCH 116 123
ATOM    123  O12 UNL     1      23.912  13.411   0.546+99.99 -0.00    -0.390 OA
ATOM    124  H57 UNL     1      24.887  13.447   0.496 +0.14 +0.00    +0.210 HD
ENDBRANCH 116 123
BRANCH 117 125
ATOM    125  C54 UNL     1      24.820  10.829   1.790 +1.39 +0.00    +0.198 C 
BRANCH 125 126
ATOM    126  O11 UNL     1      25.204  12.011   2.493 +1.98 -0.00    -0.398 OA
ATOM    127  H56 UNL     1      26.044  12.310   2.106 +3.90 +0.00    +0.209 HD
ENDBRANCH 125 126
ENDBRANCH 117 125
ENDBRANCH 112 113
ENDBRANCH  37 112
BRANCH   5 128
ATOM    128  O1  UNL     1      13.448  11.608  -4.009+19.49 -0.00    -0.358 OA
ATOM    129  H54 UNL     1      14.329  12.012  -4.106 +0.62 +0.00    +0.217 HD
ENDBRANCH   5 128
BRANCH  35 130
ATOM    130  O15 UNL     1      26.986   5.163  -3.374+58.86 -0.00    -0.361 OA
ATOM    131  H60 UNL     1      27.464   4.444  -2.928 +0.11 +0.00    +0.217 HD
ENDBRANCH  35 130
TORSDOF 22
TER
