USER    Run = 1
USER    DPF = ligand_281_receptor.dpf
USER  
USER    Estimated Free Energy of Binding    =  +2.11e+003 kcal/mol  [=(1)+(2)+(3)-(4)]
USER    
USER    (1) Final Intermolecular Energy     =  +2.11e+003 kcal/mol
USER        vdW + Hbond + desolv Energy     =  +2.11e+003 kcal/mol
USER        Electrostatic Energy            =   +0.00 kcal/mol
USER    (2) Final Total Internal Energy     =   +0.00 kcal/mol
USER    (3) Torsional Free Energy           =   +1.19 kcal/mol
USER    (4) Unbound System's Energy  [=(2)] =   +0.00 kcal/mol
USER    
USER    
USER    NEWDPF move ligand_281.pdbqt
USER    NEWDPF about 0.000000 0.000000 0.000000
USER    NEWDPF tran0 11.975130 6.609399 3.495078
USER    NEWDPF quaternion0 0.895216 0.440103 0.019761 0.067138
USER    NEWDPF axisangle0 0.897240 0.441098 0.019805 172.300736
USER    NEWDPF quat0 0.897240 0.441098 0.019805 172.300736
USER  keepresnum = 1 
USER  
REMARK  0 active torsions:
REMARK  status: ('A' for Active; 'I' for Inactive)
REMARK       I    between atoms: C1_1  and  C2_2 
REMARK       I    between atoms: C1_1  and  C4_4 
REMARK       I    between atoms: C2_2  and  C3_3 
REMARK       I    between atoms: C3_3  and  N1_43 
REMARK       I    between atoms: C4_4  and  C5_5 
REMARK       I    between atoms: C5_5  and  C6_6 
REMARK       I    between atoms: C5_5  and  N14_56 
REMARK       I    between atoms: C6_6  and  N2_44 
REMARK       I    between atoms: C7_7  and  C8_8 
REMARK       I    between atoms: C7_7  and  N2_44 
REMARK       I    between atoms: C8_8  and  C9_9 
REMARK       I    between atoms: C9_9  and  C10_10 
REMARK       I    between atoms: C10_10  and  C11_11 
REMARK       I    between atoms: C11_11  and  C12_12 
REMARK       I    between atoms: C11_11  and  N11_53 
REMARK       I    between atoms: C12_12  and  N3_45 
REMARK       I    between atoms: C13_13  and  C14_14 
REMARK       I    between atoms: C13_13  and  N3_45 
REMARK       I    between atoms: C14_14  and  C15_15 
REMARK       I    between atoms: C15_15  and  C16_16 
REMARK       I    between atoms: C16_16  and  C17_17 
REMARK       I    between atoms: C17_17  and  C18_18 
REMARK       I    between atoms: C17_17  and  N4_46 
REMARK       I    between atoms: C19_19  and  C20_20 
REMARK       I    between atoms: C19_19  and  N4_46 
REMARK       I    between atoms: C20_20  and  C21_21 
REMARK       I    between atoms: C20_20  and  N8_50 
REMARK       I    between atoms: C21_21  and  C22_22 
REMARK       I    between atoms: C22_22  and  C23_23 
REMARK       I    between atoms: C23_23  and  C24_24 
REMARK       I    between atoms: C24_24  and  N5_47 
REMARK       I    between atoms: C25_25  and  C26_26 
REMARK       I    between atoms: C25_25  and  N5_47 
REMARK       I    between atoms: C26_26  and  C27_27 
REMARK       I    between atoms: C26_26  and  N7_49 
REMARK       I    between atoms: C27_27  and  C28_28 
REMARK       I    between atoms: C28_28  and  C29_29 
REMARK       I    between atoms: C29_29  and  C30_30 
REMARK       I    between atoms: C30_30  and  N6_48 
REMARK       I    between atoms: C31_31  and  C32_32 
REMARK       I    between atoms: C31_31  and  N8_50 
REMARK       I    between atoms: C32_32  and  C33_33 
REMARK       I    between atoms: C32_32  and  N10_52 
REMARK       I    between atoms: C33_33  and  C34_34 
REMARK       I    between atoms: C34_34  and  C35_35 
REMARK       I    between atoms: C35_35  and  C36_36 
REMARK       I    between atoms: C36_36  and  N9_51 
REMARK       I    between atoms: C37_37  and  C38_38 
REMARK       I    between atoms: C37_37  and  N11_53 
REMARK       I    between atoms: C38_38  and  C39_39 
REMARK       I    between atoms: C38_38  and  N13_55 
REMARK       I    between atoms: C39_39  and  C40_40 
REMARK       I    between atoms: C40_40  and  C41_41 
REMARK       I    between atoms: C41_41  and  C42_42 
REMARK       I    between atoms: C42_42  and  N12_54 
USER                              x       y       z     vdW  Elec       q    Type
USER                           _______ _______ _______ _____ _____    ______ ____
ROOT
ATOM      1  C1  UNL     1       9.995  -0.488  -1.364 -0.36 +0.00    +0.004 C 
ATOM      2  C2  UNL     1      11.078  -0.495  -2.447 -0.50 +0.00    +0.030 C 
ATOM      3  C3  UNL     1      11.489   0.887  -2.970 -0.13 +0.00    +0.267 C 
ATOM      4  C4  UNL     1      10.458   0.131  -0.037 -0.34 +0.00    +0.045 C 
ATOM      5  C5  UNL     1       9.275   0.642   0.799 -0.20 +0.00    +0.308 C 
ATOM      6  C6  UNL     1       8.836   2.049   0.299 -0.12 +0.00    +0.250 C 
ATOM      7  C7  UNL     1       8.170   4.296   1.051 -0.11 +0.00    +0.122 C 
ATOM      8  C8  UNL     1       7.827   5.060   2.326 -0.18 +0.00    +0.020 C 
ATOM      9  C9  UNL     1       6.498   4.630   2.948 -0.18 +0.00    +0.004 C 
ATOM     10  C10 UNL     1       6.300   5.106   4.396 -0.24 +0.00    +0.035 C 
ATOM     11  C11 UNL     1       6.346   6.634   4.582 +5.30 +0.00    +0.176 C 
ATOM     12  C12 UNL     1       7.777   7.102   4.929+27.87 +0.00    +0.240 C 
ATOM     13  C13 UNL     1       9.521   7.050   6.699 +7.65 +0.00    +0.122 C 
ATOM     14  C14 UNL     1      10.334   5.762   6.845 -0.35 +0.00    +0.020 C 
ATOM     15  C15 UNL     1      10.551   4.967   5.551 -0.39 +0.00    +0.004 C 
ATOM     16  C16 UNL     1      11.394   5.674   4.481 -0.32 +0.00    +0.032 C 
ATOM     17  C17 UNL     1      12.892   5.720   4.805 +0.19 +0.00    +0.146 C 
ATOM     18  C18 UNL     1      13.598   4.419   4.420+99.99 +0.00    +0.256 C 
ATOM     19  C19 UNL     1      14.751   7.340   4.499 -0.34 +0.00    +0.241 C 
ATOM     20  C20 UNL     1      15.245   8.538   3.653 -0.42 +0.00    +0.176 C 
ATOM     21  C21 UNL     1      16.486   9.183   4.287 -0.43 +0.00    +0.035 C 
ATOM     22  C22 UNL     1      16.792  10.609   3.807 -0.17 +0.00    +0.004 C 
ATOM     23  C23 UNL     1      17.131  10.718   2.318 -0.55 +0.00    +0.020 C 
ATOM     24  C24 UNL     1      17.767  12.063   1.953 -0.61 +0.00    +0.122 C 
ATOM     25  C25 UNL     1      20.178  11.554   2.095 -0.24 +0.00    +0.250 C 
ATOM     26  C26 UNL     1      21.422  11.658   3.010+10.26 +0.00    +0.308 C 
ATOM     27  C27 UNL     1      21.158  10.896   4.319+99.99 +0.00    +0.045 C 
ATOM     28  C28 UNL     1      22.346  10.889   5.281 +8.31 +0.00    +0.004 C 
ATOM     29  C29 UNL     1      22.010  10.398   6.697 +7.77 +0.00    +0.030 C 
ATOM     30  C30 UNL     1      21.470   8.969   6.785 +6.02 +0.00    +0.267 C 
ATOM     31  C31 UNL     1      14.542   8.010   1.329+14.80 +0.00    +0.251 C 
ATOM     32  C32 UNL     1      15.046   7.623  -0.080 +1.17 +0.00    +0.308 C 
ATOM     33  C33 UNL     1      15.465   6.146  -0.191+99.99 +0.00    +0.045 C 
ATOM     34  C34 UNL     1      14.367   5.120  -0.513+99.99 +0.00    +0.004 C 
ATOM     35  C35 UNL     1      13.314   4.956   0.584+15.31 +0.00    +0.030 C 
ATOM     36  C36 UNL     1      12.254   3.902   0.253+99.99 +0.00    +0.267 C 
ATOM     37  C37 UNL     1       4.106   7.075   5.551 +1.62 +0.00    +0.251 C 
ATOM     38  C38 UNL     1       3.343   7.781   6.696 -0.13 +0.00    +0.308 C 
ATOM     39  C39 UNL     1       3.804   7.295   8.080 +1.54 +0.00    +0.045 C 
ATOM     40  C40 UNL     1       2.772   7.473   9.201+68.17 +0.00    +0.004 C 
ATOM     41  C41 UNL     1       2.373   8.908   9.555 +0.63 +0.00    +0.030 C 
ATOM     42  C42 UNL     1       3.545   9.760  10.045 +3.62 +0.00    +0.267 C 
ATOM     43  N1  UNL     1      10.362   1.633  -3.512+64.80 +0.00    +0.078 N 
ATOM     44  N2  UNL     1       8.479   2.907   1.322 -0.05 -0.00    -0.359 N 
ATOM     45  N3  UNL     1       8.175   6.804   6.221+82.13 -0.00    -0.359 N 
ATOM     46  N4  UNL     1      13.543   6.815   4.092 -0.20 -0.00    -0.349 N 
ATOM     47  N5  UNL     1      19.070  12.231   2.562 -0.12 -0.00    -0.359 N 
ATOM     48  N6  UNL     1      20.053   8.890   6.442+49.62 +0.00    +0.078 N 
ATOM     49  N7  UNL     1      22.600  11.116   2.302+59.70 +0.00    +0.092 N 
ATOM     50  N8  UNL     1      15.521   8.076   2.293 +0.20 -0.00    -0.346 N 
ATOM     51  N9  UNL     1      11.436   4.314  -0.880 -0.05 +0.00    +0.078 N 
ATOM     52  N10 UNL     1      14.069   8.026  -1.107+43.44 +0.00    +0.092 N 
ATOM     53  N11 UNL     1       5.481   7.067   5.689+22.59 -0.00    -0.346 N 
ATOM     54  N12 UNL     1       3.072  11.076  10.460 +3.45 +0.00    +0.078 N 
ATOM     55  N13 UNL     1       3.499   9.239   6.541 -0.19 +0.00    +0.092 N 
ATOM     56  N14 UNL     1       9.649   0.719   2.236 +9.33 +0.00    +0.092 N 
ATOM     57  O1  UNL     1       8.801   2.365  -0.888 -0.07 -0.00    -0.271 OA
ATOM     58  O2  UNL     1       8.517   7.633   4.107 +0.48 -0.00    -0.271 OA
ATOM     59  O3  UNL     1      13.103   3.300   4.533+70.50 -0.00    -0.305 OA
ATOM     60  O4  UNL     1      15.371   6.877   5.454 -0.30 -0.00    -0.271 OA
ATOM     61  O5  UNL     1      20.176  10.909   1.047 -0.36 -0.00    -0.271 OA
ATOM     62  O6  UNL     1      13.367   8.262   1.587+99.99 -0.00    -0.271 OA
ATOM     63  O7  UNL     1       3.532   6.616   4.568 -0.12 -0.00    -0.271 OA
ATOM     64  H65 UNL     1      10.681   2.535  -3.864 +1.68 +0.00    +0.312 HD
ATOM     65  H66 UNL     1       9.701   1.863  -2.758 +0.15 +0.00    +0.312 HD
ATOM     66  H67 UNL     1       8.986   2.687   2.177 -0.02 +0.00    +0.162 HD
ATOM     67  H68 UNL     1       7.555   6.238   6.790 +0.11 +0.00    +0.162 HD
ATOM     68  H69 UNL     1      13.100   7.213   3.259 +0.06 +0.00    +0.163 HD
ATOM     69  H70 UNL     1      19.117  12.674   3.471 +0.35 +0.00    +0.162 HD
ATOM     70  H71 UNL     1      19.512   9.415   7.129 +7.05 +0.00    +0.312 HD
ATOM     71  H72 UNL     1      19.744   7.921   6.530+32.04 +0.00    +0.312 HD
ATOM     72  H73 UNL     1      22.660  11.589   1.396+54.86 +0.00    +0.313 HD
ATOM     73  H74 UNL     1      22.381  10.150   2.043 +0.27 +0.00    +0.313 HD
ATOM     74  H75 UNL     1      16.445   7.708   2.090 -0.19 +0.00    +0.163 HD
ATOM     75  H76 UNL     1      10.650   3.664  -0.996 +0.11 +0.00    +0.312 HD
ATOM     76  H77 UNL     1      11.972   4.247  -1.743 +0.99 +0.00    +0.312 HD
ATOM     77  H78 UNL     1      13.182   7.551  -0.910 +0.02 +0.00    +0.313 HD
ATOM     78  H79 UNL     1      13.843   9.013  -0.968 +0.67 +0.00    +0.313 HD
ATOM     79  H80 UNL     1       5.874   7.734   6.342 +1.70 +0.00    +0.163 HD
ATOM     80  H81 UNL     1       2.610  11.529   9.671 +0.13 +0.00    +0.312 HD
ATOM     81  H82 UNL     1       3.869  11.663  10.698+51.72 +0.00    +0.312 HD
ATOM     82  H83 UNL     1       3.054   9.509   5.660 +0.14 +0.00    +0.313 HD
ATOM     83  H84 UNL     1       4.480   9.486   6.434 +0.35 +0.00    +0.313 HD
ATOM     84  H85 UNL     1      10.142  -0.138   2.495 -0.28 +0.00    +0.313 HD
ATOM     85  H86 UNL     1       8.786   0.699   2.783 +1.70 +0.00    +0.313 HD
ENDROOT
TORSDOF 49
TER
