USER    Run = 1
USER    DPF = ligand_393_receptor.dpf
USER  
USER    Estimated Free Energy of Binding    =  +3.23e+004 kcal/mol  [=(1)+(2)+(3)-(4)]
USER    
USER    (1) Final Intermolecular Energy     =  +3.23e+004 kcal/mol
USER        vdW + Hbond + desolv Energy     =  +3.23e+004 kcal/mol
USER        Electrostatic Energy            =   +0.00 kcal/mol
USER    (2) Final Total Internal Energy     =   +0.00 kcal/mol
USER    (3) Torsional Free Energy           =   +1.19 kcal/mol
USER    (4) Unbound System's Energy  [=(2)] =   +0.00 kcal/mol
USER    
USER    
USER    NEWDPF move ligand_393.pdbqt
USER    NEWDPF about 0.000000 0.000000 0.000000
USER    NEWDPF tran0 10.836118 5.901469 2.905538
USER    NEWDPF quaternion0 0.389119 0.650263 -0.305843 0.576371
USER    NEWDPF axisangle0 0.476169 0.795733 -0.374263 109.608589
USER    NEWDPF quat0 0.476169 0.795733 -0.374263 109.608589
USER  keepresnum = 1 
USER  
REMARK  0 active torsions:
REMARK  status: ('A' for Active; 'I' for Inactive)
REMARK       I    between atoms: C2_2  and  C3_3 
REMARK       I    between atoms: C2_2  and  C7_7 
REMARK       I    between atoms: C3_3  and  C4_4 
REMARK       I    between atoms: C4_4  and  C5_5 
REMARK       I    between atoms: C5_5  and  N1_58 
REMARK       I    between atoms: C6_6  and  N2_60 
REMARK       I    between atoms: C6_6  and  N3_61 
REMARK       I    between atoms: C7_7  and  N4_62 
REMARK       I    between atoms: C8_8  and  C9_9 
REMARK       I    between atoms: C8_8  and  C13_13 
REMARK       I    between atoms: C8_8  and  N4_62 
REMARK       I    between atoms: C9_9  and  C10_10 
REMARK       I    between atoms: C10_10  and  C11_11 
REMARK       I    between atoms: C11_11  and  N5_63 
REMARK       I    between atoms: C12_12  and  N6_65 
REMARK       I    between atoms: C12_12  and  N7_66 
REMARK       I    between atoms: C13_13  and  N8_67 
REMARK       I    between atoms: C17_17  and  C18_18 
REMARK       I    between atoms: C18_18  and  N9_68 
REMARK       I    between atoms: C19_19  and  C20_20 
REMARK       I    between atoms: C19_19  and  C22_22 
REMARK       I    between atoms: C19_19  and  N9_68 
REMARK       I    between atoms: C20_20  and  O4_89 
REMARK       I    between atoms: C22_22  and  N10_69 
REMARK       I    between atoms: C23_23  and  C24_24 
REMARK       I    between atoms: C23_23  and  C28_28 
REMARK       I    between atoms: C23_23  and  N10_69 
REMARK       I    between atoms: C24_24  and  C25_25 
REMARK       I    between atoms: C25_25  and  C26_26 
REMARK       I    between atoms: C26_26  and  N11_70 
REMARK       I    between atoms: C27_27  and  N12_72 
REMARK       I    between atoms: C27_27  and  N13_73 
REMARK       I    between atoms: C28_28  and  N14_74 
REMARK       I    between atoms: C29_29  and  C30_30 
REMARK       I    between atoms: C29_29  and  C32_32 
REMARK       I    between atoms: C29_29  and  N14_74 
REMARK       I    between atoms: C30_30  and  O7_92 
REMARK       I    between atoms: C32_32  and  N15_75 
REMARK       I    between atoms: C33_33  and  C34_34 
REMARK       I    between atoms: C33_33  and  C38_38 
REMARK       I    between atoms: C33_33  and  N15_75 
REMARK       I    between atoms: C34_34  and  C35_35 
REMARK       I    between atoms: C35_35  and  C36_36 
REMARK       I    between atoms: C36_36  and  C37_37 
REMARK       I    between atoms: C37_37  and  N16_76 
REMARK       I    between atoms: C38_38  and  N17_77 
REMARK       I    between atoms: C39_39  and  C41_41 
REMARK       I    between atoms: C39_39  and  N17_77 
REMARK       I    between atoms: C41_41  and  N18_78 
REMARK       I    between atoms: C42_42  and  C43_43 
REMARK       I    between atoms: C42_42  and  C46_46 
REMARK       I    between atoms: C42_42  and  N18_78 
REMARK       I    between atoms: C46_46  and  N19_79 
REMARK       I    between atoms: C47_47  and  C48_48 
REMARK       I    between atoms: C47_47  and  C52_52 
REMARK       I    between atoms: C47_47  and  N19_79 
REMARK       I    between atoms: C48_48  and  C49_49 
REMARK       I    between atoms: C49_49  and  C50_50 
REMARK       I    between atoms: C50_50  and  N20_80 
REMARK       I    between atoms: C51_51  and  N21_82 
REMARK       I    between atoms: C51_51  and  N22_83 
REMARK       I    between atoms: C52_52  and  N23_84 
REMARK       I    between atoms: C53_53  and  C54_54 
REMARK       I    between atoms: C53_53  and  C57_57 
REMARK       I    between atoms: C53_53  and  N23_84 
REMARK       I    between atoms: C57_57  and  N24_85 
USER                              x       y       z     vdW  Elec       q    Type
USER                           _______ _______ _______ _____ _____    ______ ____
ROOT
ATOM      1  C1  UNL     1      12.998  10.441  -3.310+99.99 +0.00    +0.020 C 
ATOM      2  C2  UNL     1      12.008   9.727  -2.388+99.99 +0.00    +0.074 C 
ATOM      3  C3  UNL     1      10.622  10.388  -2.452 +1.25 +0.00    +0.015 C 
ATOM      4  C4  UNL     1       9.890  10.188  -3.789 +1.37 +0.00    +0.020 C 
ATOM      5  C5  UNL     1       8.372  10.180  -3.601+99.99 +0.00    +0.121 C 
ATOM      6  C6  UNL     1       6.844   8.895  -2.347+73.42 +0.00    +0.121 C 
ATOM      7  C7  UNL     1      11.990   8.219  -2.676+14.77 +0.00    +0.222 C 
ATOM      8  C8  UNL     1      10.876   6.064  -2.228 -0.22 +0.00    +0.176 C 
ATOM      9  C9  UNL     1      11.979   5.233  -1.535 +1.85 +0.00    +0.036 C 
ATOM     10  C10 UNL     1      11.974   5.368  -0.009 -0.05 +0.00    +0.022 C 
ATOM     11  C11 UNL     1      12.938   4.390   0.660+99.99 +0.00    +0.121 C 
ATOM     12  C12 UNL     1      12.250   3.686   2.827+99.99 +0.00    +0.121 C 
ATOM     13  C13 UNL     1       9.478   5.605  -1.744 -0.12 +0.00    +0.243 C 
ATOM     14  C14 UNL     1       9.518   3.573  -3.261 +1.25 +0.00    +0.127 C 
ATOM     15  C15 UNL     1       8.314   2.726  -3.636 +2.64 +0.00    +0.022 C 
ATOM     16  C16 UNL     1       7.670   2.428  -2.287 -0.13 +0.00    +0.036 C 
ATOM     17  C17 UNL     1       7.910   3.703  -1.473 -0.08 +0.00    +0.173 C 
ATOM     18  C18 UNL     1       8.359   3.391  -0.029 -0.06 +0.00    +0.221 C 
ATOM     19  C19 UNL     1       8.507   4.289   2.243 -0.12 +0.00    +0.183 C 
ATOM     20  C20 UNL     1       8.190   5.574   3.052 -0.17 +0.00    +0.141 C 
ATOM     21  C21 UNL     1       6.779   5.690   3.612 -0.22 +0.00    +0.041 C 
ATOM     22  C22 UNL     1       8.076   3.017   3.004 -0.18 +0.00    +0.238 C 
ATOM     23  C23 UNL     1       6.050   1.632   3.622 -0.15 +0.00    +0.176 C 
ATOM     24  C24 UNL     1       6.605   0.231   3.348+17.16 +0.00    +0.036 C 
ATOM     25  C25 UNL     1       6.074  -0.402   2.050+99.99 +0.00    +0.022 C 
ATOM     26  C26 UNL     1       6.487   0.314   0.764 +8.23 +0.00    +0.121 C 
ATOM     27  C27 UNL     1       4.587   1.492  -0.042 -0.14 +0.00    +0.121 C 
ATOM     28  C28 UNL     1       5.929   1.944   5.136+99.99 +0.00    +0.241 C 
ATOM     29  C29 UNL     1       7.149   2.790   7.117+32.71 +0.00    +0.205 C 
ATOM     30  C30 UNL     1       6.995   1.785   8.271+99.99 +0.00    +0.146 C 
ATOM     31  C31 UNL     1       8.194   0.869   8.470+99.99 +0.00    +0.042 C 
ATOM     32  C32 UNL     1       8.418   3.671   7.158 -0.40 +0.00    +0.243 C 
ATOM     33  C33 UNL     1       9.864   5.126   8.560 +0.05 +0.00    +0.176 C 
ATOM     34  C34 UNL     1      11.244   4.642   8.078 -0.50 +0.00    +0.035 C 
ATOM     35  C35 UNL     1      11.699   3.278   8.609 +4.37 +0.00    +0.004 C 
ATOM     36  C36 UNL     1      11.752   3.207  10.138+99.99 +0.00    +0.030 C 
ATOM     37  C37 UNL     1      12.450   1.948  10.663+99.99 +0.00    +0.267 C 
ATOM     38  C38 UNL     1       9.368   6.473   7.951+21.68 +0.00    +0.241 C 
ATOM     39  C39 UNL     1       9.938   8.484   6.620+17.25 +0.00    +0.172 C 
ATOM     40  C40 UNL     1       9.887   9.661   7.585+10.46 +0.00    +0.042 C 
ATOM     41  C41 UNL     1      10.997   8.696   5.525 +0.68 +0.00    +0.240 C 
ATOM     42  C42 UNL     1      11.811   7.700   3.383 -0.32 +0.00    +0.180 C 
ATOM     43  C43 UNL     1      11.829   8.816   2.311+65.30 +0.00    +0.009 C 
ATOM     44  C44 UNL     1      10.500   8.835   1.539+99.99 +0.00    +0.012 C 
ATOM     45  C45 UNL     1      12.119  10.227   2.826+67.02 +0.00    +0.012 C 
ATOM     46  C46 UNL     1      13.140   7.239   4.048 -0.34 +0.00    +0.241 C 
ATOM     47  C47 UNL     1      15.610   7.453   4.132 -0.23 +0.00    +0.176 C 
ATOM     48  C48 UNL     1      16.681   7.325   3.036 +0.16 +0.00    +0.036 C 
ATOM     49  C49 UNL     1      16.928   8.623   2.256 -0.57 +0.00    +0.022 C 
ATOM     50  C50 UNL     1      18.017   8.441   1.200 +2.78 +0.00    +0.121 C 
ATOM     51  C51 UNL     1      19.059   9.786  -0.422 +1.86 +0.00    +0.121 C 
ATOM     52  C52 UNL     1      16.052   8.436   5.247+13.71 +0.00    +0.241 C 
ATOM     53  C53 UNL     1      15.175   9.857   7.125+99.99 +0.00    +0.179 C 
ATOM     54  C54 UNL     1      15.152   8.924   8.365+99.99 +0.00    +0.009 C 
ATOM     55  C55 UNL     1      13.872   8.085   8.417 +0.32 +0.00    +0.012 C 
ATOM     56  C56 UNL     1      16.372   8.011   8.495+99.99 +0.00    +0.012 C 
ATOM     57  C57 UNL     1      16.284  10.937   7.211+31.27 +0.00    +0.238 C 
ATOM     58  N1  UNL     1       8.025   8.991  -2.824+48.69 -0.00    -0.372 N 
ATOM     59  H1  UNL     1       8.712   8.254  -2.667 +0.02 +0.00    +0.161 HD
ATOM     60  N2  UNL     1       5.790   9.731  -2.465+99.99 -0.00    -0.279 NA
ATOM     61  N3  UNL     1       6.513   7.837  -1.577+14.74 -0.00    -0.279 NA
ATOM     62  N4  UNL     1      11.042   7.495  -1.987 -0.12 -0.00    -0.347 N 
ATOM     63  N5  UNL     1      12.831   4.563   2.103+99.99 -0.00    -0.372 N 
ATOM     64  H5  UNL     1      13.225   5.396   2.540 +1.58 +0.00    +0.161 HD
ATOM     65  N6  UNL     1      11.632   2.529   2.492+99.99 -0.00    -0.279 NA
ATOM     66  N7  UNL     1      12.157   3.872   4.161+23.66 -0.00    -0.279 NA
ATOM     67  N8  UNL     1       9.049   4.354  -2.129 -0.05 -0.00    -0.337 N 
ATOM     68  N9  UNL     1       7.898   4.314   0.905 -0.04 -0.00    -0.245 NA
ATOM     69  N10 UNL     1       6.735   2.708   2.898 -0.10 -0.00    -0.346 N 
ATOM     70  N11 UNL     1       5.715   1.544   0.559 -0.06 -0.00    -0.372 N 
ATOM     71  H11 UNL     1       6.076   2.437   0.895 +0.06 +0.00    +0.161 HD
ATOM     72  N12 UNL     1       3.911   0.441  -0.552 +0.07 -0.00    -0.279 NA
ATOM     73  N13 UNL     1       3.872   2.624  -0.223 -0.04 -0.00    -0.279 NA
ATOM     74  N14 UNL     1       7.109   2.140   5.808+99.99 -0.00    -0.344 N 
ATOM     75  N15 UNL     1       8.800   4.138   8.392 -0.29 -0.00    -0.346 N 
ATOM     76  N16 UNL     1      11.730   0.729  10.314+99.99 +0.00    +0.078 N 
ATOM     77  N17 UNL     1      10.304   7.248   7.309 +5.37 -0.00    -0.346 N 
ATOM     78  N18 UNL     1      10.811   7.879   4.430 -0.20 -0.00    -0.346 N 
ATOM     79  N19 UNL     1      14.306   7.769   3.553 -0.25 -0.00    -0.346 N 
ATOM     80  N20 UNL     1      18.171   9.710   0.494 -0.16 -0.00    -0.372 N 
ATOM     81  H20 UNL     1      17.586  10.513   0.726 +0.13 +0.00    +0.161 HD
ATOM     82  N21 UNL     1      19.247  10.950  -1.082+11.70 -0.00    -0.279 NA
ATOM     83  N22 UNL     1      19.916   8.850  -0.884 +5.30 -0.00    -0.279 NA
ATOM     84  N23 UNL     1      15.048   9.172   5.833+16.31 -0.00    -0.346 N 
ATOM     85  N24 UNL     1      16.651  11.514   6.026 +9.78 -0.00    -0.368 N 
ATOM     86  O1  UNL     1      12.802   7.680  -3.425+99.99 -0.00    -0.273 OA
ATOM     87  O2  UNL     1       8.804   6.282  -0.953 -0.15 -0.00    -0.271 OA
ATOM     88  O3  UNL     1       9.158   2.501   0.258 -0.11 -0.00    -0.278 OA
ATOM     89  O4  UNL     1       9.122   5.787   4.117 -0.07 -0.00    -0.394 OA
ATOM     90  O5  UNL     1       8.835   2.424   3.770 +1.75 -0.00    -0.272 OA
ATOM     91  O6  UNL     1       4.841   1.974   5.710 +0.13 -0.00    -0.271 OA
ATOM     92  O7  UNL     1       6.741   2.481   9.501+99.99 -0.00    -0.393 OA
ATOM     93  O8  UNL     1       8.996   4.018   6.125 -0.26 -0.00    -0.271 OA
ATOM     94  O9  UNL     1       8.200   6.848   8.086 +1.62 -0.00    -0.271 OA
ATOM     95  O10 UNL     1      11.992   9.404   5.668+31.87 -0.00    -0.271 OA
ATOM     96  O11 UNL     1      13.146   6.442   4.994 -0.28 -0.00    -0.271 OA
ATOM     97  O12 UNL     1      17.222   8.521   5.614+14.97 -0.00    -0.271 OA
ATOM     98  O13 UNL     1      16.722  11.389   8.268+58.93 -0.00    -0.271 OA
ATOM     99  H78 UNL     1       4.912   9.230  -2.530 +0.24 +0.00    +0.126 HD
ATOM    100  H79 UNL     1       5.877  10.401  -3.219+99.99 +0.00    +0.126 HD
ATOM    101  H80 UNL     1       7.360   7.306  -1.353 -0.39 +0.00    +0.126 HD
ATOM    102  H81 UNL     1       6.064   8.131  -0.718 -0.04 +0.00    +0.126 HD
ATOM    103  H82 UNL     1      10.217   7.978  -1.642 +0.03 +0.00    +0.163 HD
ATOM    104  H83 UNL     1      11.311   2.477   1.531+99.99 +0.00    +0.126 HD
ATOM    105  H84 UNL     1      10.844   2.326   3.109 -0.21 +0.00    +0.126 HD
ATOM    106  H85 UNL     1      12.369   3.043   4.699 +0.09 +0.00    +0.126 HD
ATOM    107  H86 UNL     1      12.715   4.667   4.477 +0.39 +0.00    +0.126 HD
ATOM    108  H87 UNL     1       7.819   5.241   0.488 +0.06 +0.00    +0.131 HD
ATOM    109  H88 UNL     1       6.373   2.854   1.955 +0.06 +0.00    +0.163 HD
ATOM    110  H89 UNL     1       3.425   0.662  -1.413 +0.01 +0.00    +0.126 HD
ATOM    111  H90 UNL     1       4.439  -0.416  -0.645 +0.15 +0.00    +0.126 HD
ATOM    112  H91 UNL     1       4.245   3.385   0.333 +0.03 +0.00    +0.126 HD
ATOM    113  H92 UNL     1       2.887   2.492  -0.021 +0.02 +0.00    +0.126 HD
ATOM    114  H93 UNL     1       7.958   2.219   5.241 -0.39 +0.00    +0.163 HD
ATOM    115  H94 UNL     1       8.187   3.945   9.183 +0.12 +0.00    +0.163 HD
ATOM    116  H95 UNL     1      11.735   0.602   9.303 +0.36 +0.00    +0.312 HD
ATOM    117  H96 UNL     1      12.224  -0.075  10.699+99.99 +0.00    +0.312 HD
ATOM    118  H97 UNL     1      11.183   6.826   7.025 +0.13 +0.00    +0.163 HD
ATOM    119  H98 UNL     1      10.122   7.124   4.506 +0.10 +0.00    +0.163 HD
ATOM    120  H99 UNL     1      14.260   8.563   2.933 -0.25 +0.00    +0.163 HD
ATOM    121  HA0 UNL     1      20.226  11.199  -1.137 +0.27 +0.00    +0.126 HD
ATOM    122  HA1 UNL     1      18.720  11.687  -0.623 +0.10 +0.00    +0.126 HD
ATOM    123  HA2 UNL     1      20.044   8.916  -1.887+18.49 +0.00    +0.126 HD
ATOM    124  HA3 UNL     1      19.680   7.904  -0.616 +8.59 +0.00    +0.126 HD
ATOM    125  HA4 UNL     1      14.090   8.942   5.575 +0.12 +0.00    +0.163 HD
ATOM    126  HA5 UNL     1      17.458  12.120   6.093+93.37 +0.00    +0.159 HD
ATOM    127  HA6 UNL     1      16.626  10.911   5.213 +0.14 +0.00    +0.159 HD
ATOM    128  HA7 UNL     1       9.103   5.000   4.717 +0.12 +0.00    +0.210 HD
ATOM    129  HA8 UNL     1       5.788   2.692   9.509+99.99 +0.00    +0.210 HD
ENDROOT
TORSDOF 47
TER
