USER    Run = 1
USER    DPF = ligand_460_receptor.dpf
USER  
USER    Estimated Free Energy of Binding    =  +3.12e+003 kcal/mol  [=(1)+(2)+(3)-(4)]
USER    
USER    (1) Final Intermolecular Energy     =  +3.12e+003 kcal/mol
USER        vdW + Hbond + desolv Energy     =  +3.12e+003 kcal/mol
USER        Electrostatic Energy            =   +0.00 kcal/mol
USER    (2) Final Total Internal Energy     =   +0.00 kcal/mol
USER    (3) Torsional Free Energy           =   +1.19 kcal/mol
USER    (4) Unbound System's Energy  [=(2)] =   +0.00 kcal/mol
USER    
USER    
USER    NEWDPF move ligand_460.pdbqt
USER    NEWDPF about 0.000000 0.000000 0.000000
USER    NEWDPF tran0 19.102505 7.449955 1.623842
USER    NEWDPF quaternion0 -0.102377 -0.077050 -0.962094 -0.240744
USER    NEWDPF axisangle0 -0.105480 -0.079385 -0.991248 -152.139131
USER    NEWDPF quat0 -0.105480 -0.079385 -0.991248 -152.139131
USER  keepresnum = 1 
USER  
REMARK  0 active torsions:
REMARK  status: ('A' for Active; 'I' for Inactive)
REMARK       I    between atoms: C2_2  and  N1_57 
REMARK       I    between atoms: C3_3  and  C4_4 
REMARK       I    between atoms: C3_3  and  N1_57 
REMARK       I    between atoms: C4_4  and  C5_5 
REMARK       I    between atoms: C4_4  and  N5_62 
REMARK       I    between atoms: C5_5  and  C6_6 
REMARK       I    between atoms: C6_6  and  C7_7 
REMARK       I    between atoms: C7_7  and  N2_58 
REMARK       I    between atoms: C8_8  and  N3_60 
REMARK       I    between atoms: C8_8  and  N4_61 
REMARK       I    between atoms: C9_9  and  C10_10 
REMARK       I    between atoms: C9_9  and  N5_62 
REMARK       I    between atoms: C10_10  and  C11_11 
REMARK       I    between atoms: C10_10  and  N9_67 
REMARK       I    between atoms: C11_11  and  C12_12 
REMARK       I    between atoms: C12_12  and  C13_13 
REMARK       I    between atoms: C13_13  and  N6_63 
REMARK       I    between atoms: C14_14  and  N7_65 
REMARK       I    between atoms: C14_14  and  N8_66 
REMARK       I    between atoms: C15_15  and  C16_16 
REMARK       I    between atoms: C15_15  and  N9_67 
REMARK       I    between atoms: C16_16  and  C17_17 
REMARK       I    between atoms: C16_16  and  N13_72 
REMARK       I    between atoms: C17_17  and  C18_18 
REMARK       I    between atoms: C18_18  and  C19_19 
REMARK       I    between atoms: C19_19  and  N10_68 
REMARK       I    between atoms: C20_20  and  N11_70 
REMARK       I    between atoms: C20_20  and  N12_71 
REMARK       I    between atoms: C21_21  and  C22_22 
REMARK       I    between atoms: C21_21  and  N13_72 
REMARK       I    between atoms: C22_22  and  C23_23 
REMARK       I    between atoms: C22_22  and  N17_77 
REMARK       I    between atoms: C23_23  and  C24_24 
REMARK       I    between atoms: C24_24  and  C25_25 
REMARK       I    between atoms: C25_25  and  N14_73 
REMARK       I    between atoms: C26_26  and  N15_75 
REMARK       I    between atoms: C26_26  and  N16_76 
REMARK       I    between atoms: C27_27  and  N17_77 
REMARK       I    between atoms: C27_27  and  N18_78 
REMARK       I    between atoms: C28_28  and  C29_29 
REMARK       I    between atoms: C28_28  and  C44_44 
REMARK       I    between atoms: C28_28  and  N18_78 
REMARK       I    between atoms: C29_29  and  C30_30 
REMARK       I    between atoms: C30_30  and  C31_31 
REMARK       I    between atoms: C31_31  and  C32_32 
REMARK       I    between atoms: C32_32  and  N19_79 
REMARK       I    between atoms: C33_33  and  O8_52 
REMARK       I    between atoms: C33_33  and  N19_79 
REMARK       I    between atoms: C34_34  and  C35_35 
REMARK       I    between atoms: C34_34  and  O8_52 
REMARK       I    between atoms: C36_36  and  O11_55 
REMARK       I    between atoms: C37_37  and  O10_54 
REMARK       I    between atoms: C38_38  and  N20_80 
REMARK       I    between atoms: C43_43  and  N24_87 
REMARK       I    between atoms: C44_44  and  N25_88 
USER                              x       y       z     vdW  Elec       q    Type
USER                           _______ _______ _______ _____ _____    ______ ____
ROOT
ATOM      1  C1  UNL     1      29.261   8.148   0.043 -0.27 +0.00    +0.117 C 
ATOM      2  C2  UNL     1      28.584   9.217   0.862 +3.81 +0.00    +0.220 C 
ATOM      3  C3  UNL     1      26.745   9.497   2.471 +0.55 +0.00    +0.247 C 
ATOM      4  C4  UNL     1      25.488   8.722   2.937 -0.52 +0.00    +0.177 C 
ATOM      5  C5  UNL     1      24.759   9.482   4.054 +0.62 +0.00    +0.036 C 
ATOM      6  C6  UNL     1      23.539   8.759   4.645 +0.60 +0.00    +0.022 C 
ATOM      7  C7  UNL     1      23.770   7.297   5.028+96.15 +0.00    +0.122 C 
ATOM      8  C8  UNL     1      25.375   6.046   6.210 +9.56 +0.00    +0.143 C 
ATOM      9  C9  UNL     1      24.782   7.507   0.862 -0.30 +0.00    +0.241 C 
ATOM     10  C10 UNL     1      23.609   7.312  -0.145 -0.44 +0.00    +0.176 C 
ATOM     11  C11 UNL     1      23.943   6.324  -1.281 -0.58 +0.00    +0.036 C 
ATOM     12  C12 UNL     1      24.933   6.820  -2.350 -0.08 +0.00    +0.022 C 
ATOM     13  C13 UNL     1      26.398   6.451  -2.132 +0.47 +0.00    +0.121 C 
ATOM     14  C14 UNL     1      26.753   4.186  -1.470 -0.34 +0.00    +0.121 C 
ATOM     15  C15 UNL     1      22.199   9.370   0.023 -0.29 +0.00    +0.241 C 
ATOM     16  C16 UNL     1      21.537  10.507  -0.788 +8.70 +0.00    +0.176 C 
ATOM     17  C17 UNL     1      22.387  11.780  -0.741 +0.01 +0.00    +0.036 C 
ATOM     18  C18 UNL     1      23.639  11.693  -1.621+11.03 +0.00    +0.022 C 
ATOM     19  C19 UNL     1      24.456  12.985  -1.605+99.99 +0.00    +0.121 C 
ATOM     20  C20 UNL     1      25.949  12.701   0.214+35.01 +0.00    +0.121 C 
ATOM     21  C21 UNL     1      19.163   9.938  -0.498 +2.95 +0.00    +0.241 C 
ATOM     22  C22 UNL     1      17.901  10.137   0.366 -0.41 +0.00    +0.178 C 
ATOM     23  C23 UNL     1      18.136   9.795   1.846 -0.49 +0.00    +0.036 C 
ATOM     24  C24 UNL     1      18.508   8.321   2.083 +2.59 +0.00    +0.022 C 
ATOM     25  C25 UNL     1      18.343   7.908   3.547 -0.45 +0.00    +0.121 C 
ATOM     26  C26 UNL     1      16.526   7.381   4.952 +0.49 +0.00    +0.121 C 
ATOM     27  C27 UNL     1      15.525   9.499   0.151 +1.30 +0.00    +0.317 C 
ATOM     28  C28 UNL     1      13.376   8.300   0.176+99.99 +0.00    +0.178 C 
ATOM     29  C29 UNL     1      12.480   7.823  -0.978+15.38 +0.00    +0.035 C 
ATOM     30  C30 UNL     1      10.985   8.047  -0.723 +7.57 +0.00    +0.004 C 
ATOM     31  C31 UNL     1      10.123   7.861  -1.980 -0.41 +0.00    +0.020 C 
ATOM     32  C32 UNL     1      10.094   6.446  -2.558 -0.24 +0.00    +0.125 C 
ATOM     33  C33 UNL     1      10.092   4.653  -0.864 -0.06 +0.00    +0.360 C 
ATOM     34  C34 UNL     1       9.787   3.219   0.979 +6.66 +0.00    +0.215 C 
ATOM     35  C35 UNL     1      10.376   4.069   2.104+99.99 +0.00    +0.180 C 
ATOM     36  C36 UNL     1       9.418   5.099   2.696 -0.14 +0.00    +0.182 C 
ATOM     37  C37 UNL     1      10.063   5.384   4.041 -0.19 +0.00    +0.198 C 
ATOM     38  C38 UNL     1      10.671   4.023   4.414 -0.20 +0.00    +0.262 C 
ATOM     39  C39 UNL     1      13.150   4.453   4.347+99.99 +0.00    +0.188 A 
ATOM     40  C40 UNL     1      13.634   4.381   6.423 -0.26 +0.00    +0.116 A 
ATOM     41  C41 UNL     1      12.284   4.077   6.343 -0.37 +0.00    +0.142 A 
ATOM     42  C42 UNL     1      12.125   3.810   8.539 +0.08 +0.00    +0.183 A 
ATOM     43  C43 UNL     1      14.211   4.386   7.703 -0.32 +0.00    +0.109 A 
ATOM     44  C44 UNL     1      13.377   7.296   1.363 +3.34 +0.00    +0.238 C 
ATOM     45  O1  UNL     1      28.931  10.392   0.774+99.99 -0.00    -0.274 OA
ATOM     46  O2  UNL     1      26.999  10.640   2.843+36.83 -0.00    -0.271 OA
ATOM     47  O3  UNL     1      25.765   6.765   0.931 -0.23 -0.00    -0.271 OA
ATOM     48  O4  UNL     1      22.033   9.232   1.236 -0.29 -0.00    -0.271 OA
ATOM     49  O5  UNL     1      19.206   9.123  -1.422+71.57 -0.00    -0.271 OA
ATOM     50  O6  UNL     1      15.122  10.397   0.876 +1.33 -0.00    -0.247 OA
ATOM     51  O7  UNL     1      11.300   4.485  -0.838 -0.20 -0.00    -0.239 OA
ATOM     52  O8  UNL     1       9.201   4.046  -0.040 -0.07 -0.00    -0.301 OA
ATOM     53  O9  UNL     1      10.795   3.236   3.202 +9.89 -0.00    -0.353 OA
ATOM     54  O10 UNL     1       9.097   5.848   4.984 -0.09 -0.00    -0.388 OA
ATOM     55  O11 UNL     1       8.109   4.556   2.940 -0.04 -0.00    -0.390 OA
ATOM     56  O12 UNL     1      12.359   6.791   1.836 -0.34 -0.00    -0.271 OA
ATOM     57  N1  UNL     1      27.564   8.731   1.653 -0.13 -0.00    -0.296 N 
ATOM     58  N2  UNL     1      24.951   7.208   5.877+24.58 -0.00    -0.367 N 
ATOM     59  H2  UNL     1      25.429   8.050   6.199+99.99 +0.00    +0.162 HD
ATOM     60  N3  UNL     1      24.877   4.834   5.894+99.99 -0.00    -0.376 N 
ATOM     61  N4  UNL     1      26.500   5.948   6.950 +6.02 -0.00    -0.274 NA
ATOM     62  N5  UNL     1      24.605   8.505   1.790 -0.16 -0.00    -0.346 N 
ATOM     63  N6  UNL     1      26.632   5.041  -2.409 +0.27 -0.00    -0.372 N 
ATOM     64  H6  UNL     1      26.701   4.729  -3.377 +1.23 +0.00    +0.161 HD
ATOM     65  N7  UNL     1      26.623   4.309  -0.133 -0.67 -0.00    -0.279 NA
ATOM     66  N8  UNL     1      27.025   2.900  -1.779 -0.21 -0.00    -0.279 NA
ATOM     67  N9  UNL     1      23.052   8.560  -0.692 -0.14 -0.00    -0.346 N 
ATOM     68  N10 UNL     1      24.917  13.294  -0.255 +6.35 -0.00    -0.372 N 
ATOM     69  H10 UNL     1      24.418  13.980   0.312 +2.62 +0.00    +0.161 HD
ATOM     70  N11 UNL     1      26.749  11.781  -0.368+99.99 -0.00    -0.279 NA
ATOM     71  N12 UNL     1      26.371  12.974   1.465+52.97 -0.00    -0.279 NA
ATOM     72  N13 UNL     1      20.231  10.750  -0.179 -0.08 -0.00    -0.346 N 
ATOM     73  N14 UNL     1      16.919   7.940   3.872 -0.28 -0.00    -0.372 N 
ATOM     74  H14 UNL     1      16.253   8.399   3.250 +0.10 +0.00    +0.161 HD
ATOM     75  N15 UNL     1      15.218   7.391   5.280 -0.07 -0.00    -0.279 NA
ATOM     76  N16 UNL     1      17.233   6.740   5.909+23.19 -0.00    -0.279 NA
ATOM     77  N17 UNL     1      16.830   9.320  -0.198 -0.24 -0.00    -0.330 N 
ATOM     78  N18 UNL     1      14.739   8.491  -0.335 +1.44 -0.00    -0.330 N 
ATOM     79  N19 UNL     1       9.426   5.514  -1.678 -0.04 -0.00    -0.337 N 
ATOM     80  N20 UNL     1      11.987   4.156   5.011 +0.15 -0.00    -0.297 N 
ATOM     81  N21 UNL     1      14.160   4.639   5.172+10.39 -0.00    -0.346 N 
ATOM     82  H21 UNL     1      15.115   4.913   4.939+15.01 +0.00    +0.167 HD
ATOM     83  N22 UNL     1      11.462   3.783   7.363 -0.22 -0.00    -0.336 N 
ATOM     84  H22 UNL     1      10.471   3.567   7.263 +0.12 +0.00    +0.168 HD
ATOM     85  N23 UNL     1      13.432   4.079   8.763 +0.28 -0.00    -0.341 N 
ATOM     86  H23 UNL     1      13.818   4.052   9.707 +5.91 +0.00    +0.167 HD
ATOM     87  N24 UNL     1      15.555   4.676   7.926+22.63 -0.00    -0.287 NA
ATOM     88  N25 UNL     1      14.591   7.015   1.930+99.99 -0.00    -0.368 N 
ATOM     89  H49 UNL     1       8.259   5.404   4.736 +0.12 +0.00    +0.210 HD
ATOM     90  H50 UNL     1       7.669   4.476   2.072 +0.09 +0.00    +0.210 HD
ATOM     91  H51 UNL     1      27.214   7.801   1.438 +0.11 +0.00    +0.171 HD
ATOM     92  H52 UNL     1      25.145   4.051   6.469+35.55 +0.00    +0.158 HD
ATOM     93  H53 UNL     1      23.924   4.798   5.558+55.31 +0.00    +0.158 HD
ATOM     94  H54 UNL     1      26.441   5.319   7.737 +8.57 +0.00    +0.127 HD
ATOM     95  H55 UNL     1      26.792   6.872   7.255 +1.11 +0.00    +0.127 HD
ATOM     96  H56 UNL     1      23.712   8.997   1.782 +0.13 +0.00    +0.163 HD
ATOM     97  H57 UNL     1      26.509   5.255   0.228 +0.08 +0.00    +0.126 HD
ATOM     98  H58 UNL     1      27.326   3.797   0.386 +0.05 +0.00    +0.126 HD
ATOM     99  H59 UNL     1      26.429   2.252  -1.280 +0.49 +0.00    +0.126 HD
ATOM    100  H60 UNL     1      26.943   2.764  -2.782 +0.05 +0.00    +0.126 HD
ATOM    101  H61 UNL     1      22.951   8.604  -1.700 +0.39 +0.00    +0.163 HD
ATOM    102  H62 UNL     1      27.661  11.695   0.091 +0.79 +0.00    +0.126 HD
ATOM    103  H63 UNL     1      26.867  11.904  -1.363+29.70 +0.00    +0.126 HD
ATOM    104  H64 UNL     1      25.678  13.485   1.994 -0.21 +0.00    +0.126 HD
ATOM    105  H65 UNL     1      26.711  12.163   1.991+99.99 +0.00    +0.126 HD
ATOM    106  H66 UNL     1      20.249  11.154   0.750 +0.14 +0.00    +0.163 HD
ATOM    107  H67 UNL     1      14.871   6.449   5.472 +0.07 +0.00    +0.126 HD
ATOM    108  H68 UNL     1      14.659   7.816   4.548 +0.08 +0.00    +0.126 HD
ATOM    109  H69 UNL     1      16.783   6.824   6.817 -0.01 +0.00    +0.126 HD
ATOM    110  H70 UNL     1      18.204   7.018   5.953 +1.96 +0.00    +0.126 HD
ATOM    111  H71 UNL     1      17.031   8.858  -1.078 +0.11 +0.00    +0.165 HD
ATOM    112  H72 UNL     1      15.242   7.638  -0.543 -0.05 +0.00    +0.165 HD
ATOM    113  H73 UNL     1       8.425   5.563  -1.559 -0.06 +0.00    +0.164 HD
ATOM    114  H74 UNL     1      16.128   4.504   7.103+12.40 +0.00    +0.125 HD
ATOM    115  H75 UNL     1      15.867   4.265   8.797 +1.04 +0.00    +0.125 HD
ATOM    116  H76 UNL     1      15.331   7.714   1.916 -0.43 +0.00    +0.159 HD
ATOM    117  H77 UNL     1      14.604   6.447   2.768 +1.52 +0.00    +0.159 HD
ENDROOT
TORSDOF 38
TER
