USER    Run = 1
USER    DPF = ligand_98_receptor.dpf
USER  
USER    Estimated Free Energy of Binding    =  +1.51e+004 kcal/mol  [=(1)+(2)+(3)-(4)]
USER    
USER    (1) Final Intermolecular Energy     =  +1.51e+004 kcal/mol
USER        vdW + Hbond + desolv Energy     =  +1.51e+004 kcal/mol
USER        Electrostatic Energy            =   +0.00 kcal/mol
USER    (2) Final Total Internal Energy     =  +64.54 kcal/mol
USER    (3) Torsional Free Energy           =   +1.19 kcal/mol
USER    (4) Unbound System's Energy  [=(2)] =  +64.54 kcal/mol
USER    
USER    
USER    NEWDPF move ligand_98.pdbqt
USER    NEWDPF about 0.000000 0.000000 0.000000
USER    NEWDPF tran0 17.300635 9.344284 6.235199
USER    NEWDPF quaternion0 0.126367 -0.022736 0.550004 0.825233
USER    NEWDPF axisangle0 0.223741 -0.040255 0.973817 68.775705
USER    NEWDPF quat0 0.223741 -0.040255 0.973817 68.775705
USER    NEWDPF dihe0 180.00 -2.75 -177.41 -42.18 179.96 -42.45 -119.65 120.22 55.65 -169.26 -178.21 -180.00 18.64 
USER  keepresnum = 1 
USER  
REMARK  13 active torsions:
REMARK  status: ('A' for Active; 'I' for Inactive)
REMARK    1  A    between atoms: C6_6  and  C67_67 
REMARK    2  A    between atoms: C15_15  and  O15_91 
REMARK    3  A    between atoms: C21_21  and  N8_102 
REMARK    4  A    between atoms: C26_26  and  C27_27 
REMARK       I    between atoms: C26_26  and  N8_102 
REMARK    5  A    between atoms: C36_36  and  O14_90 
REMARK    6  A    between atoms: C42_42  and  N16_111 
REMARK    7  A    between atoms: C52_52  and  O13_89 
REMARK       I    between atoms: C52_52  and  N16_111 
REMARK    8  A    between atoms: C53_53  and  C54_54 
REMARK    9  A    between atoms: C53_53  and  O13_89 
REMARK       I    between atoms: C67_67  and  N17_112 
REMARK   10  A    between atoms: C68_68  and  C69_69 
REMARK   11  A    between atoms: C68_68  and  C76_76 
REMARK   12  A    between atoms: C68_68  and  N17_112 
REMARK   13  A    between atoms: C69_69  and  C70_70 
REMARK       I    between atoms: C76_76  and  N18_113 
USER                              x       y       z     vdW  Elec       q    Type
USER                           _______ _______ _______ _____ _____    ______ ____
ROOT
ATOM      1  C26 UNL     1      17.052   6.034   5.765+99.99 +0.00    +0.242 C 
ATOM      2  O6  UNL     1      17.187   6.150   4.548+99.99 -0.00    -0.271 OA
ATOM      3  N8  UNL     1      18.083   6.285   6.645+68.52 -0.00    -0.346 N 
ATOM      4  H76 UNL     1      17.872   6.259   7.645 -0.15 +0.00    +0.163 HD
ENDROOT
BRANCH   1   5
ATOM      5  C27 UNL     1      15.729   5.606   6.436+99.99 +0.00    +0.194 C 
ATOM      6  C28 UNL     1      14.994   4.634   5.499+99.99 +0.00    +0.157 C 
ATOM      7  N9  UNL     1      13.782   4.064   6.069 +0.38 -0.00    -0.358 N 
ATOM      8  C29 UNL     1      12.575   4.735   6.038 -0.35 +0.00    +0.230 C 
ATOM      9  H77 UNL     1      13.691   3.049   6.098 +0.15 +0.00    +0.162 HD
ATOM     10  C30 UNL     1      11.384   3.865   6.459 -0.37 +0.00    +0.197 C 
ATOM     11  O7  UNL     1      12.462   5.921   5.733 -0.23 -0.00    -0.272 OA
ATOM     12  N10 UNL     1      11.558   2.448   6.078 +6.06 -0.00    -0.264 NA
ATOM     13  C31 UNL     1      11.244   2.085   4.804 +3.81 +0.00    +0.123 C 
ATOM     14  H78 UNL     1      11.053   1.844   6.727 +0.50 +0.00    +0.130 HD
ATOM     15  N11 UNL     1      10.523   1.019   4.558+99.99 -0.00    -0.350 N 
ATOM     16  S2  UNL     1      11.757   2.929   3.396+99.99 -0.00    -0.063 SA
ATOM     17  C32 UNL     1      10.248   0.919   3.206+99.99 +0.00    +0.104 C 
ATOM     18  H11 UNL     1      10.208   0.356   5.265+99.99 +0.00    +0.166 HD
ATOM     19  C33 UNL     1      10.806   1.897   2.411+48.88 +0.00    +0.005 C 
ATOM     20  C34 UNL     1      10.689   2.129   0.935+52.60 +0.00    +0.089 C 
ATOM     21  C35 UNL     1       9.590   3.110   0.583 +0.96 -0.00    -0.020 A 
ATOM     22  C36 UNL     1       8.374   2.736   0.005 -0.10 +0.00    +0.072 A 
ATOM     23  C40 UNL     1       9.790   4.476   0.860 +0.76 +0.00    +0.017 A 
ATOM     24  C37 UNL     1       7.408   3.688  -0.320 -0.09 +0.00    +0.037 A 
ATOM     25  C38 UNL     1       7.610   5.032  -0.007 -0.14 +0.00    +0.010 A 
ATOM     26  C39 UNL     1       8.793   5.433   0.618 -0.14 -0.00    -0.055 A 
ATOM     27  C41 UNL     1       8.977   6.856   1.111 -0.30 +0.00    +0.073 C 
ATOM     28  C42 UNL     1       8.961   6.924   2.653 -0.26 +0.00    +0.183 C 
ATOM     29  C43 UNL     1       9.231   8.364   3.146 -0.03 +0.00    +0.241 C 
ATOM     30  O8  UNL     1       9.716   9.243   2.435+12.58 -0.00    -0.271 OA
ATOM     31  N12 UNL     1       9.044   8.560   4.496 +6.00 -0.00    -0.346 N 
ATOM     32  C44 UNL     1       9.248   9.843   5.158+26.28 +0.00    +0.172 C 
ATOM     33  H79 UNL     1       9.005   7.725   5.081 +0.46 +0.00    +0.163 HD
ATOM     34  C45 UNL     1      10.726  10.085   5.547+99.99 +0.00    +0.240 C 
ATOM     35  C51 UNL     1       8.340   9.945   6.377+99.99 +0.00    +0.042 C 
ATOM     36  O9  UNL     1      11.073  10.557   6.630+99.99 -0.00    -0.271 OA
ATOM     37  N13 UNL     1      11.642   9.837   4.545+99.99 -0.00    -0.346 N 
ATOM     38  C46 UNL     1      13.001  10.385   4.584+99.99 +0.00    +0.172 C 
ATOM     39  H80 UNL     1      11.234   9.694   3.623 +0.04 +0.00    +0.163 HD
ATOM     40  C47 UNL     1      14.004   9.661   5.527+10.88 +0.00    +0.240 C 
ATOM     41  C50 UNL     1      13.573  10.434   3.167+99.99 +0.00    +0.042 C 
ATOM     42  O10 UNL     1      15.213   9.632   5.301 +2.15 -0.00    -0.271 OA
ATOM     43  N14 UNL     1      13.477   9.183   6.711 +0.11 -0.00    -0.351 N 
ATOM     44  C48 UNL     1      14.347   8.915   7.846+39.29 +0.00    +0.225 C 
ATOM     45  H81 UNL     1      12.566   9.575   6.944 +0.15 +0.00    +0.163 HD
ATOM     46  C49 UNL     1      15.212   7.651   7.761+99.99 +0.00    +0.236 C 
ATOM     47  O11 UNL     1      16.086   7.401   8.594+99.99 -0.00    -0.272 OA
ATOM     48  N15 UNL     1      14.940   6.802   6.724 +0.84 -0.00    -0.345 N 
ATOM     49  H82 UNL     1      14.147   7.023   6.122 +0.12 +0.00    +0.163 HD
BRANCH  22  50
ATOM     50  O14 UNL     1       8.048   1.437  -0.263 -0.06 -0.00    -0.360 OA
ATOM     51  H68 UNL     1       7.491   1.417  -1.058 +0.08 +0.00    +0.217 HD
ENDBRANCH  22  50
BRANCH  28  52
ATOM     52  N16 UNL     1       7.703   6.396   3.197 -0.09 -0.00    -0.323 N 
ATOM     53  C52 UNL     1       6.538   6.468   2.505 -0.13 +0.00    +0.361 C 
ATOM     54  O12 UNL     1       6.454   6.641   1.297 -0.24 -0.00    -0.239 OA
ATOM     55  H83 UNL     1       7.575   6.389   4.199 +0.08 +0.00    +0.165 HD
BRANCH  53  56
ATOM     56  O13 UNL     1       5.500   6.365   3.365 -0.10 -0.00    -0.303 OA
BRANCH  56  57
ATOM     57  C53 UNL     1       4.462   5.448   2.965 -0.15 +0.00    +0.194 C 
BRANCH  57  58
ATOM     58  C54 UNL     1       5.063   4.124   2.475 -0.10 +0.00    +0.078 A 
ATOM     59  C55 UNL     1       4.656   3.774   1.046 -0.11 -0.00    -0.036 A 
ATOM     60  C56 UNL     1       4.846   4.512  -0.112 -0.18 +0.00    +0.009 A 
ATOM     61  C60 UNL     1       4.045   2.501   1.014 -0.10 -0.00    -0.018 A 
ATOM     62  C57 UNL     1       4.405   3.969  -1.320 -0.15 +0.00    +0.001 A 
ATOM     63  C58 UNL     1       3.794   2.704  -1.357 -0.09 +0.00    +0.001 A 
ATOM     64  C59 UNL     1       3.611   1.961  -0.186 -0.11 +0.00    +0.013 A 
ATOM     65  C61 UNL     1       3.989   1.973   2.361 -0.15 -0.00    -0.018 A 
ATOM     66  C62 UNL     1       3.493   0.772   2.839 -0.25 +0.00    +0.013 A 
ATOM     67  C66 UNL     1       4.561   2.912   3.247 -0.14 -0.00    -0.036 A 
ATOM     68  C63 UNL     1       3.573   0.515   4.212 -0.34 +0.00    +0.001 A 
ATOM     69  C64 UNL     1       4.145   1.451   5.088 -0.22 +0.00    +0.001 A 
ATOM     70  C65 UNL     1       4.648   2.662   4.609 -0.25 +0.00    +0.009 A 
ENDBRANCH  57  58
ENDBRANCH  56  57
ENDBRANCH  53  56
ENDBRANCH  28  52
ENDBRANCH   1   5
BRANCH   3  71
ATOM     71  C21 UNL     1      19.329   6.905   6.217+99.99 +0.00    +0.180 C 
ATOM     72  C20 UNL     1      20.454   5.867   6.018+99.99 +0.00    +0.073 C 
ATOM     73  C18 UNL     1      20.476   4.977   4.788+28.15 -0.00    -0.055 A 
ATOM     74  C17 UNL     1      19.414   4.835   3.892+99.99 +0.00    +0.010 A 
ATOM     75  C19 UNL     1      21.639   4.218   4.558+99.99 +0.00    +0.017 A 
ATOM     76  C16 UNL     1      19.522   3.988   2.787+99.99 +0.00    +0.037 A 
ATOM     77  C15 UNL     1      20.690   3.268   2.561+54.62 +0.00    +0.072 A 
ATOM     78  C14 UNL     1      21.766   3.358   3.449 +0.57 -0.00    -0.020 A 
ATOM     79  C13 UNL     1      23.062   2.604   3.249+11.46 +0.00    +0.089 C 
ATOM     80  C12 UNL     1      23.911   3.244   2.197+54.81 +0.00    +0.006 A 
ATOM     81  C11 UNL     1      24.375   4.539   2.131 +2.25 +0.00    +0.105 A 
ATOM     82  S1  UNL     1      24.442   2.386   0.814+99.99 -0.00    -0.057 SA
ATOM     83  N5  UNL     1      25.037   4.879   0.971 -0.24 -0.00    -0.346 N 
ATOM     84  C10 UNL     1      25.167   3.824   0.197 +0.42 +0.00    +0.145 A 
ATOM     85  H5  UNL     1      25.377   5.814   0.745 +0.12 +0.00    +0.167 HD
ATOM     86  N4  UNL     1      25.813   3.807  -0.988 -0.06 -0.00    -0.362 N 
ATOM     87  C9  UNL     1      26.563   4.981  -1.433 -0.28 +0.00    +0.224 C 
ATOM     88  H73 UNL     1      26.195   2.920  -1.298 +0.09 +0.00    +0.162 HD
ATOM     89  C8  UNL     1      27.816   5.229  -0.586 -0.19 +0.00    +0.235 C 
ATOM     90  O3  UNL     1      28.951   4.901  -0.935 -0.09 -0.00    -0.272 OA
ATOM     91  N3  UNL     1      27.577   5.875   0.602 -0.05 -0.00    -0.357 N 
ATOM     92  C7  UNL     1      28.610   6.246   1.549 +2.62 +0.00    +0.157 C 
ATOM     93  H72 UNL     1      26.599   5.977   0.883 +0.11 +0.00    +0.162 HD
ATOM     94  C6  UNL     1      28.858   7.760   1.589 -0.34 +0.00    +0.194 C 
ATOM     95  N2  UNL     1      27.639   8.493   1.946 -0.21 -0.00    -0.345 N 
ATOM     96  C5  UNL     1      27.096   8.475   3.205 +0.64 +0.00    +0.236 C 
ATOM     97  H71 UNL     1      27.032   8.798   1.180 +0.10 +0.00    +0.163 HD
ATOM     98  C4  UNL     1      25.800   9.279   3.342 -0.35 +0.00    +0.225 C 
ATOM     99  O2  UNL     1      27.584   7.846   4.141+99.99 -0.00    -0.272 OA
ATOM    100  N1  UNL     1      24.629   8.534   2.916 -0.22 -0.00    -0.351 N 
ATOM    101  C3  UNL     1      24.309   8.464   1.571 -0.32 +0.00    +0.240 C 
ATOM    102  H70 UNL     1      23.820   8.575   3.523 +0.12 +0.00    +0.163 HD
ATOM    103  C2  UNL     1      22.887   7.917   1.287 -0.02 +0.00    +0.172 C 
ATOM    104  O1  UNL     1      25.142   8.685   0.694 -0.23 -0.00    -0.271 OA
ATOM    105  C1  UNL     1      22.373   8.363  -0.077 -0.11 +0.00    +0.042 C 
ATOM    106  N7  UNL     1      21.921   8.166   2.368 +0.74 -0.00    -0.346 N 
ATOM    107  C24 UNL     1      21.484   9.446   2.671 -0.32 +0.00    +0.240 C 
ATOM    108  H75 UNL     1      21.249   7.424   2.549 +2.55 +0.00    +0.163 HD
ATOM    109  C23 UNL     1      20.179   9.485   3.493 +1.25 +0.00    +0.172 C 
ATOM    110  O5  UNL     1      22.056  10.450   2.258 +0.31 -0.00    -0.271 OA
ATOM    111  C25 UNL     1      19.905  10.874   4.056+99.99 +0.00    +0.042 C 
ATOM    112  N6  UNL     1      20.243   8.495   4.568 +2.90 -0.00    -0.346 N 
ATOM    113  C22 UNL     1      19.116   7.819   4.991 +6.57 +0.00    +0.241 C 
ATOM    114  H74 UNL     1      21.052   8.522   5.176 +1.64 +0.00    +0.163 HD
ATOM    115  O4  UNL     1      18.029   7.947   4.431 -0.28 -0.00    -0.271 OA
BRANCH  77 116
ATOM    116  O15 UNL     1      20.706   2.493   1.438 +2.35 -0.00    -0.360 OA
ATOM    117  H69 UNL     1      21.622   2.288   1.191 -0.28 +0.00    +0.217 HD
ENDBRANCH  77 116
BRANCH  94 118
ATOM    118  C67 UNL     1      29.422   8.397   0.292 -0.17 +0.00    +0.242 C 
ATOM    119  O16 UNL     1      29.804   7.697  -0.651 -0.14 -0.00    -0.271 OA
ATOM    120  N17 UNL     1      29.406   9.774   0.189 +1.68 -0.00    -0.346 N 
ATOM    121  H84 UNL     1      29.497  10.296   1.060+17.34 +0.00    +0.163 HD
BRANCH 120 122
ATOM    122  C68 UNL     1      30.070  10.416  -0.949 +6.51 +0.00    +0.180 C 
BRANCH 122 123
ATOM    123  C69 UNL     1      29.811   9.612  -2.232 +9.13 +0.00    +0.073 C 
BRANCH 123 124
ATOM    124  C70 UNL     1      28.659   8.640  -2.121+10.30 -0.00    -0.056 A 
ATOM    125  C71 UNL     1      28.647   7.459  -2.876 +2.44 +0.00    +0.007 A 
ATOM    126  C72 UNL     1      27.593   6.553  -2.756 +9.85 +0.00    +0.001 A 
ATOM    127  C73 UNL     1      26.541   6.818  -1.882 +0.17 +0.00    +0.000 A 
ATOM    128  C74 UNL     1      26.540   7.991  -1.130 +4.45 +0.00    +0.001 A 
ATOM    129  C75 UNL     1      27.593   8.900  -1.249+37.66 +0.00    +0.007 A 
ENDBRANCH 123 124
ENDBRANCH 122 123
BRANCH 122 130
ATOM    130  C76 UNL     1      29.530  11.860  -1.091+31.01 +0.00    +0.238 C 
ATOM    131  O17 UNL     1      30.108  12.758  -1.699+20.50 -0.00    -0.271 OA
ATOM    132  N18 UNL     1      28.354  12.123  -0.448+22.50 -0.00    -0.368 N 
ATOM    133  H85 UNL     1      27.798  11.399  -0.012 +1.15 +0.00    +0.159 HD
ATOM    134  H86 UNL     1      27.945  13.039  -0.571 +0.79 +0.00    +0.159 HD
ENDBRANCH 122 130
ENDBRANCH 120 122
ENDBRANCH  94 118
ENDBRANCH   3  71
TORSDOF 13
TER
