USER    Run = 1
USER    DPF = ligand_505_receptor.dpf
USER  
USER    Estimated Free Energy of Binding    =  +7.24e+005 kcal/mol  [=(1)+(2)+(3)-(4)]
USER    
USER    (1) Final Intermolecular Energy     =  +7.24e+005 kcal/mol
USER        vdW + Hbond + desolv Energy     =  +4.88e+005 kcal/mol
USER        Electrostatic Energy            =  +2.37e+005 kcal/mol
USER    (2) Final Total Internal Energy     =   +0.00 kcal/mol
USER    (3) Torsional Free Energy           =   +1.19 kcal/mol
USER    (4) Unbound System's Energy  [=(2)] =   +0.00 kcal/mol
USER    
USER    
USER    NEWDPF move ligand_505.pdbqt
USER    NEWDPF about 0.000000 0.000000 0.000000
USER    NEWDPF tran0 17.431662 8.750789 0.692864
USER    NEWDPF quaternion0 -0.279210 0.052186 -0.154322 0.946310
USER    NEWDPF axisangle0 -0.863732 0.161436 -0.477394 37.720294
USER    NEWDPF quat0 -0.863732 0.161436 -0.477394 37.720294
USER  keepresnum = 1 
USER  
REMARK  0 active torsions:
REMARK  status: ('A' for Active; 'I' for Inactive)
REMARK       I    between atoms: C2_2  and  O1_58 
REMARK       I    between atoms: C3_3  and  C14_14 
REMARK       I    between atoms: C5_5  and  N1_72 
REMARK       I    between atoms: C8_8  and  C9_9 
REMARK       I    between atoms: C8_8  and  N1_72 
REMARK       I    between atoms: C9_9  and  C10_10 
REMARK       I    between atoms: C9_9  and  N4_75 
REMARK       I    between atoms: C10_10  and  C11_11 
REMARK       I    between atoms: C11_11  and  C12_12 
REMARK       I    between atoms: C12_12  and  N2_73 
REMARK       I    between atoms: C13_13  and  N2_73 
REMARK       I    between atoms: C13_13  and  N3_74 
REMARK       I    between atoms: C14_14  and  N5_76 
REMARK       I    between atoms: C15_15  and  C16_16 
REMARK       I    between atoms: C15_15  and  C20_20 
REMARK       I    between atoms: C15_15  and  N5_76 
REMARK       I    between atoms: C16_16  and  C17_17 
REMARK       I    between atoms: C17_17  and  C18_18 
REMARK       I    between atoms: C18_18  and  N6_77 
REMARK       I    between atoms: C19_19  and  N7_79 
REMARK       I    between atoms: C19_19  and  N8_80 
REMARK       I    between atoms: C20_20  and  N9_81 
REMARK       I    between atoms: C21_21  and  N9_81 
REMARK       I    between atoms: C23_23  and  C29_29 
REMARK       I    between atoms: C24_24  and  O5_62 
REMARK       I    between atoms: C27_27  and  C28_28 
REMARK       I    between atoms: C27_27  and  O5_62 
REMARK       I    between atoms: C28_28  and  O7_64 
REMARK       I    between atoms: C29_29  and  N10_82 
REMARK       I    between atoms: C30_30  and  C31_31 
REMARK       I    between atoms: C30_30  and  C35_35 
REMARK       I    between atoms: C30_30  and  N10_82 
REMARK       I    between atoms: C31_31  and  C32_32 
REMARK       I    between atoms: C32_32  and  C33_33 
REMARK       I    between atoms: C33_33  and  N11_83 
REMARK       I    between atoms: C34_34  and  N12_85 
REMARK       I    between atoms: C34_34  and  N13_86 
REMARK       I    between atoms: C35_35  and  N14_87 
REMARK       I    between atoms: C36_36  and  N14_87 
REMARK       I    between atoms: C38_38  and  C43_43 
REMARK       I    between atoms: C39_39  and  O10_67 
REMARK       I    between atoms: C43_43  and  N15_88 
REMARK       I    between atoms: C44_44  and  C45_45 
REMARK       I    between atoms: C44_44  and  C49_49 
REMARK       I    between atoms: C44_44  and  N15_88 
REMARK       I    between atoms: C45_45  and  C46_46 
REMARK       I    between atoms: C46_46  and  C47_47 
REMARK       I    between atoms: C47_47  and  N16_89 
REMARK       I    between atoms: C48_48  and  N17_91 
REMARK       I    between atoms: C48_48  and  N18_92 
REMARK       I    between atoms: C49_49  and  N19_93 
REMARK       I    between atoms: C50_50  and  N19_93 
REMARK       I    between atoms: C52_52  and  C57_57 
REMARK       I    between atoms: C53_53  and  O13_70 
REMARK       I    between atoms: C57_57  and  N20_94 
USER                              x       y       z     vdW  Elec       q    Type
USER                           _______ _______ _______ _____ _____    ______ ____
ROOT
ATOM      1  C1  UNL     1      22.355  11.474   1.848+99.99 +0.00    +0.210 C 
ATOM      2  C2  UNL     1      24.737  11.214   1.782 +8.86 +0.00    +0.084 A 
ATOM      3  C3  UNL     1      25.887  10.711   1.137+15.99 +0.00    +0.067 A 
ATOM      4  C4  UNL     1      27.162  11.073   1.612+99.99 +0.00    +0.049 A 
ATOM      5  C5  UNL     1      27.317  11.916   2.716+99.99 +0.00    +0.035 A 
ATOM      6  C6  UNL     1      26.179  12.397   3.354+99.99 +0.00    +0.032 A 
ATOM      7  C7  UNL     1      24.903  12.052   2.892+10.35 +0.00    +0.040 A 
ATOM      8  C8  UNL     1      29.043  13.076   4.122+99.99 +0.00    +0.255 C 
ATOM      9  C9  UNL     1      30.580  13.062   4.289+79.32 +0.00    +0.309 C 
ATOM     10  C10 UNL     1      31.036  11.886   5.163+46.32 +0.00    +0.047 C 
ATOM     11  C11 UNL     1      30.524  11.912   6.610 +1.15 +0.00    +0.033 C 
ATOM     12  C12 UNL     1      30.980  13.147   7.393 -0.26 +0.00    +0.272 C 
ATOM     13  C13 UNL     1      30.989  14.140   9.589 +0.02 +0.00    +0.534 C 
ATOM     14  C14 UNL     1      25.867   9.804  -0.061+99.99 +0.00    +0.255 C 
ATOM     15  C15 UNL     1      24.496   8.334  -1.543 +3.57 +0.00    +0.177 C 
ATOM     16  C16 UNL     1      24.767   8.980  -2.921+99.99 +0.00    +0.036 C 
ATOM     17  C17 UNL     1      25.741   8.176  -3.798+99.99 +0.00    +0.022 C 
ATOM     18  C18 UNL     1      25.070   7.063  -4.601+99.99+99.99    +0.121 C 
ATOM     19  C19 UNL     1      24.835   5.109  -3.257 +4.18 +0.00    +0.121 C 
ATOM     20  C20 UNL     1      23.054   7.785  -1.393 +0.62 +0.00    +0.245 C 
ATOM     21  C21 UNL     1      20.698   8.657  -1.431+26.52 +0.00    +0.035 A 
ATOM     22  C22 UNL     1      19.944   9.832  -1.454+99.99 +0.00    +0.049 A 
ATOM     23  C23 UNL     1      18.535   9.815  -1.359+50.75 +0.00    +0.067 A 
ATOM     24  C24 UNL     1      17.866   8.581  -1.253 +0.90 +0.00    +0.085 A 
ATOM     25  C25 UNL     1      18.631   7.406  -1.245+99.99 +0.00    +0.040 A 
ATOM     26  C26 UNL     1      20.029   7.444  -1.329+99.99 +0.00    +0.032 A 
ATOM     27  C27 UNL     1      15.787   7.365  -1.232 +2.00 +0.00    +0.285 C 
ATOM     28  C28 UNL     1      15.802   6.499   0.025+99.99 +0.00    +0.164 C 
ATOM     29  C29 UNL     1      17.876  11.161  -1.417+50.67 +0.00    +0.255 C 
ATOM     30  C30 UNL     1      15.815  12.479  -1.772+99.99 +0.00    +0.177 C 
ATOM     31  C31 UNL     1      15.746  13.466  -0.596+31.26 +0.00    +0.036 C 
ATOM     32  C32 UNL     1      14.894  13.113   0.632+99.99 +0.00    +0.022 C 
ATOM     33  C33 UNL     1      15.293  11.829   1.360 +0.97 +0.00    +0.121 C 
ATOM     34  C34 UNL     1      14.605   9.591   1.489+99.99 +0.00    +0.121 C 
ATOM     35  C35 UNL     1      14.448  12.243  -2.444+99.99 +0.00    +0.245 C 
ATOM     36  C36 UNL     1      12.349  10.928  -2.144+57.50 +0.00    +0.035 A 
ATOM     37  C37 UNL     1      11.581  10.299  -1.164+99.99 +0.00    +0.049 A 
ATOM     38  C38 UNL     1      10.341   9.722  -1.462+37.98 +0.00    +0.067 A 
ATOM     39  C39 UNL     1       9.857   9.798  -2.772 +0.56 +0.00    +0.084 A 
ATOM     40  C40 UNL     1      10.588  10.482  -3.748 +0.02 +0.00    +0.040 A 
ATOM     41  C41 UNL     1      11.837  11.035  -3.437 +2.69 +0.00    +0.032 A 
ATOM     42  C42 UNL     1       8.852   8.031  -3.847 +3.93 +0.00    +0.210 C 
ATOM     43  C43 UNL     1       9.656   9.007  -0.349+99.99 +0.00    +0.255 C 
ATOM     44  C44 UNL     1       7.509   7.975   0.400 -0.25 +0.00    +0.177 C 
ATOM     45  C45 UNL     1       7.700   8.220   1.914 +0.52 +0.00    +0.036 C 
ATOM     46  C46 UNL     1       6.450   8.796   2.599 +4.82 +0.00    +0.022 C 
ATOM     47  C47 UNL     1       5.448   7.747   3.080 +8.51 +0.00    +0.121 C 
ATOM     48  C48 UNL     1       3.812   6.426   2.012 +2.05 +0.00    +0.121 C 
ATOM     49  C49 UNL     1       7.768   6.508  -0.060 -0.19 +0.00    +0.245 C 
ATOM     50  C50 UNL     1       7.055   4.170   0.520 -0.10 +0.00    +0.035 A 
ATOM     51  C51 UNL     1       7.895   3.479  -0.357 -0.08 +0.00    +0.049 A 
ATOM     52  C52 UNL     1       7.878   2.074  -0.411 -0.09 +0.00    +0.067 A 
ATOM     53  C53 UNL     1       6.994   1.362   0.407 -0.14 +0.00    +0.084 A 
ATOM     54  C54 UNL     1       6.165   2.045   1.297 -0.16 +0.00    +0.040 A 
ATOM     55  C55 UNL     1       6.194   3.440   1.347 -0.09 +0.00    +0.032 A 
ATOM     56  C56 UNL     1       5.922  -0.528  -0.339+54.92 +0.00    +0.210 C 
ATOM     57  C57 UNL     1       8.780   1.372  -1.361 -0.08 +0.00    +0.252 C 
ATOM     58  O1  UNL     1      23.508  10.847   1.293 +9.77 -0.00    -0.355 OA
ATOM     59  O2  UNL     1      28.330  13.764   4.845+99.99 -0.00    -0.271 OA
ATOM     60  O3  UNL     1      26.910   9.514  -0.638+23.68 -0.00    -0.268 OA
ATOM     61  O4  UNL     1      22.827   6.611  -1.101 -0.42 -0.00    -0.271 OA
ATOM     62  O5  UNL     1      16.501   8.594  -1.144 -0.51 -0.00    -0.340 OA
ATOM     63  O6  UNL     1      16.327   6.752   1.100+95.54 -0.00    -0.648 OA
ATOM     64  O7  UNL     1      15.157   5.326  -0.159+99.99 -0.00    -0.775 OA
ATOM     65  O8  UNL     1      18.573  12.172  -1.449+31.04 -0.00    -0.268 OA
ATOM     66  O9  UNL     1      14.135  12.856  -3.464+99.99 -0.00    -0.271 OA
ATOM     67  O10 UNL     1       8.649   9.246  -3.114 +9.96 -0.00    -0.355 OA
ATOM     68  O11 UNL     1      10.330   8.560   0.575+19.88 -0.00    -0.268 OA
ATOM     69  O12 UNL     1       8.510   6.243  -1.006 -0.15 -0.00    -0.271 OA
ATOM     70  O13 UNL     1       6.996  -0.006   0.446 +3.48 -0.00    -0.355 OA
ATOM     71  O14 UNL     1       8.429   0.398  -2.011 -0.14 -0.00    -0.268 OA
ATOM     72  N1  UNL     1      28.627  12.216   3.121+99.99 -0.00    -0.325 N 
ATOM     73  N2  UNL     1      30.587  13.007   8.797 -0.26 +0.00    +0.111 N 
ATOM     74  N3  UNL     1      32.346  13.881   9.995 -0.11 +0.00    +0.106 N 
ATOM     75  N4  UNL     1      31.212  12.924   2.949 +2.84 +0.00    +0.092 N 
ATOM     76  N5  UNL     1      24.647   9.319  -0.464 +6.54 -0.00    -0.344 N 
ATOM     77  N6  UNL     1      24.334   6.191  -3.708 +1.60 -0.00    -0.372 N 
ATOM     78  H6  UNL     1      23.387   6.450  -3.433 +0.25 +0.00    +0.161 HD
ATOM     79  N7  UNL     1      24.133   4.385  -2.357 +7.90 -0.00    -0.279 NA
ATOM     80  N8  UNL     1      26.033   4.530  -3.485+37.71 -0.00    -0.279 NA
ATOM     81  N9  UNL     1      22.094   8.784  -1.526+28.27 -0.00    -0.325 N 
ATOM     82  N10 UNL     1      16.501  11.228  -1.454+99.99 -0.00    -0.344 N 
ATOM     83  N11 UNL     1      14.417  10.730   0.928+41.56 -0.00    -0.372 N 
ATOM     84  H11 UNL     1      13.696  10.866   0.218 +1.25 +0.00    +0.161 HD
ATOM     85  N12 UNL     1      15.569   9.206   2.359 -0.18 -0.00    -0.279 NA
ATOM     86  N13 UNL     1      13.777   8.544   1.267+99.99 -0.00    -0.279 NA
ATOM     87  N14 UNL     1      13.622  11.380  -1.752+39.16 -0.00    -0.325 N 
ATOM     88  N15 UNL     1       8.285   8.896  -0.437 +1.88 -0.00    -0.344 N 
ATOM     89  N16 UNL     1       4.976   6.957   1.945 +0.06 -0.00    -0.372 N 
ATOM     90  H16 UNL     1       5.559   6.831   1.119 +0.06 +0.00    +0.161 HD
ATOM     91  N17 UNL     1       2.907   6.428   3.013 +0.05 -0.00    -0.279 NA
ATOM     92  N18 UNL     1       3.339   5.715   0.968+34.25 -0.00    -0.279 NA
ATOM     93  N19 UNL     1       7.025   5.574   0.643 -0.06 -0.00    -0.325 N 
ATOM     94  N20 UNL     1      10.045   1.880  -1.485 -0.06 -0.00    -0.366 N 
ATOM     95  H54 UNL     1      15.222   4.870   0.706+99.99 +0.00    +0.167 HD
ATOM     96  H55 UNL     1      29.399  11.828   2.579+99.99 +0.00    +0.169 HD
ATOM     97  H56 UNL     1      31.034  12.180   9.184 -0.18 +0.00    +0.318 HD
ATOM     98  H57 UNL     1      32.339  13.137  10.688 +0.07 +0.00    +0.315 HD
ATOM     99  H58 UNL     1      32.696  14.703  10.486+99.99+99.99    +0.315 HD
ATOM    100  H59 UNL     1      32.226  12.935   3.066 +0.13 +0.00    +0.313 HD
ATOM    101  H60 UNL     1      30.994  13.766   2.409 +0.14 +0.00    +0.313 HD
ATOM    102  H61 UNL     1      23.860   9.491   0.157 +0.13 +0.00    +0.163 HD
ATOM    103  H62 UNL     1      23.364   4.968  -2.010 +0.72 +0.00    +0.126 HD
ATOM    104  H63 UNL     1      24.705   4.122  -1.565 +0.06 +0.00    +0.126 HD
ATOM    105  H64 UNL     1      26.519   4.876  -4.301+99.99 +0.00    +0.126 HD
ATOM    106  H65 UNL     1      25.966   3.519  -3.504 +0.06 +0.00    +0.126 HD
ATOM    107  H66 UNL     1      22.458   9.722  -1.661 +1.13 +0.00    +0.169 HD
ATOM    108  H67 UNL     1      15.967  10.366  -1.399+78.74 +0.00    +0.163 HD
ATOM    109  H68 UNL     1      15.909   8.263   2.152 -0.09 +0.00    +0.126 HD
ATOM    110  H69 UNL     1      16.362   9.832   2.414 +0.09 +0.00    +0.126 HD
ATOM    111  H70 UNL     1      13.621   8.006   2.112 -0.32 +0.00    +0.126 HD
ATOM    112  H71 UNL     1      12.873   8.815   0.891+99.99 +0.00    +0.126 HD
ATOM    113  H72 UNL     1      13.920  11.126  -0.804 +0.16 +0.00    +0.169 HD
ATOM    114  H73 UNL     1       7.893   9.102  -1.352 -0.03 +0.00    +0.163 HD
ATOM    115  H74 UNL     1       3.265   6.696   3.921 +0.03 +0.00    +0.126 HD
ATOM    116  H75 UNL     1       2.380   5.563   3.074 +0.01 +0.00    +0.126 HD
ATOM    117  H76 UNL     1       3.917   5.837   0.141 +0.02 +0.00    +0.126 HD
ATOM    118  H77 UNL     1       2.373   5.935   0.751+99.99 +0.00    +0.126 HD
ATOM    119  H78 UNL     1       6.334   5.958   1.293 +0.07 +0.00    +0.169 HD
ATOM    120  H79 UNL     1      10.690   1.370  -2.073 +0.09 +0.00    +0.159 HD
ATOM    121  H80 UNL     1      10.413   2.597  -0.875 +0.03 +0.00    +0.159 HD
ENDROOT
TORSDOF 41
TER
