USER    Run = 1
USER    DPF = ligand_108_receptor.dpf
USER  
USER    Estimated Free Energy of Binding    = +755.14 kcal/mol  [=(1)+(2)+(3)-(4)]
USER    
USER    (1) Final Intermolecular Energy     = +753.95 kcal/mol
USER        vdW + Hbond + desolv Energy     = +753.95 kcal/mol
USER        Electrostatic Energy            =   +0.00 kcal/mol
USER    (2) Final Total Internal Energy     = +237.41 kcal/mol
USER    (3) Torsional Free Energy           =   +1.19 kcal/mol
USER    (4) Unbound System's Energy  [=(2)] = +237.41 kcal/mol
USER    
USER    
USER    NEWDPF move ligand_108.pdbqt
USER    NEWDPF about 0.000000 0.000000 0.000000
USER    NEWDPF tran0 12.171337 5.650785 4.215252
USER    NEWDPF quaternion0 -0.000562 -0.948782 0.157109 0.274098
USER    NEWDPF axisangle0 -0.000585 -0.986565 0.163366 148.183522
USER    NEWDPF quat0 -0.000585 -0.986565 0.163366 148.183522
USER    NEWDPF dihe0 180.00 -99.35 -177.37 -176.51 98.54 -120.97 179.96 -173.47 -50.29 -56.18 -179.10 -143.29 166.66 -155.75 148.83 110.06 -180.00 93.81 168.23 -118.94 -18.43 166.97 154.40 -115.75 -5.99 -158.25 166.16 -169.30 114.51 -141.30 -169.88 
USER  keepresnum = 1 
USER  
REMARK  31 active torsions:
REMARK  status: ('A' for Active; 'I' for Inactive)
REMARK    1  A    between atoms: C2_2  and  C3_3 
REMARK    2  A    between atoms: C2_2  and  O22_80 
REMARK    3  A    between atoms: C7_7  and  C17_17 
REMARK    4  A    between atoms: C13_13  and  N3_83 
REMARK       I    between atoms: C17_17  and  N5_85 
REMARK    5  A    between atoms: C18_18  and  C19_19 
REMARK    6  A    between atoms: C18_18  and  C56_56 
REMARK    7  A    between atoms: C18_18  and  N5_85 
REMARK    8  A    between atoms: C19_19  and  C20_20 
REMARK    9  A    between atoms: C20_20  and  C21_21 
REMARK   10  A    between atoms: C21_21  and  C22_22 
REMARK   11  A    between atoms: C22_22  and  N6_86 
REMARK       I    between atoms: C23_23  and  N6_86 
REMARK       I    between atoms: C23_23  and  N7_87 
REMARK   12  A    between atoms: C24_24  and  N7_87 
REMARK       I    between atoms: C28_28  and  N8_89 
REMARK       I    between atoms: C28_28  and  N9_91 
REMARK   13  A    between atoms: C29_29  and  C30_30 
REMARK   14  A    between atoms: C29_29  and  N9_91 
REMARK   15  A    between atoms: C30_30  and  C31_31 
REMARK   16  A    between atoms: C31_31  and  C32_32 
REMARK   17  A    between atoms: C32_32  and  C33_33 
REMARK   18  A    between atoms: C33_33  and  C34_34 
REMARK   19  A    between atoms: C33_33  and  N11_93 
REMARK       I    between atoms: C34_34  and  N10_92 
REMARK   20  A    between atoms: C35_35  and  C36_36 
REMARK   21  A    between atoms: C35_35  and  N10_92 
REMARK   22  A    between atoms: C36_36  and  O11_69 
REMARK   23  A    between atoms: C37_37  and  C38_38 
REMARK       I    between atoms: C37_37  and  N11_93 
REMARK   24  A    between atoms: C44_44  and  N12_94 
REMARK   25  A    between atoms: C48_48  and  C52_52 
REMARK   26  A    between atoms: C52_52  and  C53_53 
REMARK       I    between atoms: C53_53  and  N16_98 
REMARK       I    between atoms: C56_56  and  N17_99 
REMARK   27  A    between atoms: C57_57  and  C58_58 
REMARK   28  A    between atoms: C57_57  and  N17_99 
REMARK   29  A    between atoms: C58_58  and  O21_79 
REMARK   30  A    between atoms: O13_71  and  N12_94 
REMARK   31  A    between atoms: O14_72  and  N12_94 
USER                              x       y       z     vdW  Elec       q    Type
USER                           _______ _______ _______ _____ _____    ______ ____
ROOT
ATOM      1  C24 UNL     1      15.592   7.007   3.142 +8.74 +0.00    +0.036 A 
ATOM      2  C25 UNL     1      14.843   8.240   2.790 -0.13 +0.00    +0.032 A 
ATOM      3  C26 UNL     1      13.510   8.322   2.837 +1.97 +0.00    +0.032 A 
ATOM      4  C27 UNL     1      12.668   7.168   3.247 -0.39 +0.00    +0.036 A 
ATOM      5  C28 UNL     1      10.634   8.228   3.118 +0.33 +0.00    +0.320 C 
ATOM      6  C54 UNL     1      13.413   5.921   3.550 +6.56 +0.00    +0.032 A 
ATOM      7  C55 UNL     1      14.746   5.839   3.502+85.05 +0.00    +0.032 A 
ATOM      8  O8  UNL     1      10.839   9.333   3.605 +0.08 -0.00    -0.247 OA
ATOM      9  N8  UNL     1      11.378   7.114   3.349 -0.19 -0.00    -0.309 N 
ATOM     10  H8  UNL     1      10.921   6.238   3.603 +0.09 +0.00    +0.170 HD
ATOM     11  N9  UNL     1       9.588   7.949   2.294 -0.02 -0.00    -0.343 N 
ATOM     12  H65 UNL     1       9.465   6.964   2.057 +0.09 +0.00    +0.164 HD
ENDROOT
BRANCH   1  13
ATOM     13  N7  UNL     1      16.884   7.087   3.083 +0.02 -0.00    -0.309 N 
ATOM     14  C23 UNL     1      17.505   8.277   2.864 -0.36 +0.00    +0.320 C 
ATOM     15  O7  UNL     1      17.099   9.183   2.150 -0.32 -0.00    -0.247 OA
ATOM     16  N6  UNL     1      18.705   8.305   3.505 -0.26 -0.00    -0.343 N 
ATOM     17  H64 UNL     1      18.947   7.452   3.988 +0.10 +0.00    +0.164 HD
ATOM     18  H7  UNL     1      17.446   6.243   3.203 +0.07 +0.00    +0.170 HD
BRANCH  16  19
ATOM     19  C22 UNL     1      19.677   9.361   3.349 +0.22 +0.00    +0.124 C 
BRANCH  19  20
ATOM     20  C21 UNL     1      20.866   8.936   2.486 +0.24 +0.00    +0.020 C 
BRANCH  20  21
ATOM     21  C20 UNL     1      21.552   7.633   2.916+15.39 +0.00    +0.004 C 
BRANCH  21  22
ATOM     22  C19 UNL     1      23.083   7.708   2.877 +2.93 +0.00    +0.035 C 
BRANCH  22  23
ATOM     23  C18 UNL     1      23.586   8.957   2.135 -0.39 +0.00    +0.176 C 
BRANCH  23  24
ATOM     24  C56 UNL     1      23.331  10.239   2.949 +0.46 +0.00    +0.240 C 
ATOM     25  O19 UNL     1      22.510  11.085   2.592+19.72 -0.00    -0.271 OA
ATOM     26  N17 UNL     1      24.102  10.371   4.080 -0.33 -0.00    -0.349 N 
ATOM     27  H73 UNL     1      24.524   9.543   4.492 +0.11 +0.00    +0.163 HD
BRANCH  26  28
ATOM     28  C57 UNL     1      24.048  11.582   4.880+13.09 +0.00    +0.232 C 
BRANCH  28  29
ATOM     29  C58 UNL     1      22.691  12.263   4.800+18.42 +0.00    +0.158 C 
ATOM     30  O20 UNL     1      22.408  13.395   5.163+22.93 -0.00    -0.649 OA
BRANCH  29  31
ATOM     31  O21 UNL     1      21.763  11.487   4.204+11.60 -0.00    -0.775 OA
ATOM     32  H58 UNL     1      22.241  10.661   3.979 +0.12 +0.00    +0.167 HD
ENDBRANCH  29  31
ENDBRANCH  28  29
ENDBRANCH  26  28
ENDBRANCH  23  24
BRANCH  23  33
ATOM     33  N5  UNL     1      25.024   8.877   1.892 -0.19 -0.00    -0.346 N 
ATOM     34  C17 UNL     1      25.705   9.872   1.239 +1.72 +0.00    +0.241 C 
ATOM     35  O6  UNL     1      25.140  10.887   0.830+24.00 -0.00    -0.271 OA
ATOM     36  H63 UNL     1      25.486   8.026   2.200 +0.13 +0.00    +0.163 HD
BRANCH  34  37
ATOM     37  C7  UNL     1      27.211   9.628   1.025 +3.41 +0.00    +0.177 C 
ATOM     38  C8  UNL     1      27.632   9.642  -0.466+99.99 +0.00    +0.045 C 
ATOM     39  C9  UNL     1      27.934   8.285  -1.118 +2.03 +0.00    +0.082 C 
ATOM     40  S1  UNL     1      26.791   7.692  -2.418+32.19 -0.00    -0.129 SA
ATOM     41  C10 UNL     1      25.200   7.705  -1.606 +3.20 +0.00    +0.016 A 
ATOM     42  C11 UNL     1      24.794   6.925  -0.503 -0.43 +0.00    +0.051 A 
ATOM     43  C15 UNL     1      24.273   8.593  -2.188+17.78 +0.00    +0.022 A 
ATOM     44  C12 UNL     1      23.495   7.086   0.024 -0.46 +0.00    +0.054 A 
ATOM     45  C16 UNL     1      25.644   5.950   0.233 -0.29 +0.00    +0.253 C 
ATOM     46  C13 UNL     1      22.618   8.010  -0.548 -0.28 +0.00    +0.103 A 
ATOM     47  C14 UNL     1      22.991   8.751  -1.666+24.44 +0.00    +0.037 A 
ATOM     48  O5  UNL     1      25.525   5.836   1.451 -0.28 -0.00    -0.268 OA
ATOM     49  N4  UNL     1      26.561   5.213  -0.477 -0.15 -0.00    -0.341 N 
ATOM     50  C3  UNL     1      27.470   4.284   0.215 -0.18 +0.00    +0.205 C 
ATOM     51  H62 UNL     1      26.810   5.523  -1.413 +0.09 +0.00    +0.163 HD
ATOM     52  C4  UNL     1      28.594   5.140   0.848 +0.50 +0.00    +0.243 C 
ATOM     53  O1  UNL     1      29.645   5.408   0.270 -0.11 -0.00    -0.271 OA
ATOM     54  N1  UNL     1      28.245   5.713   2.062+98.05 -0.00    -0.350 N 
ATOM     55  C5  UNL     1      29.092   6.719   2.688 +8.77 +0.00    +0.225 C 
ATOM     56  H60 UNL     1      27.261   5.658   2.328+16.80 +0.00    +0.163 HD
ATOM     57  C6  UNL     1      28.872   8.126   2.114 -0.14 +0.00    +0.236 C 
ATOM     58  O2  UNL     1      29.760   8.976   2.080+11.05 -0.00    -0.272 OA
ATOM     59  N2  UNL     1      27.581   8.405   1.725 -0.22 -0.00    -0.346 N 
ATOM     60  H61 UNL     1      26.840   7.737   1.931 +0.11 +0.00    +0.163 HD
BRANCH  46  61
ATOM     61  N3  UNL     1      21.317   8.255   0.065+22.95 -0.00    -0.116 N 
ATOM     62  O3  UNL     1      20.417   8.701  -0.658 +4.45 -0.00    -0.532 OA
ATOM     63  O4  UNL     1      21.201   7.989   1.273+72.23 -0.00    -0.532 OA
ENDBRANCH  46  61
BRANCH  50  64
ATOM     64  C2  UNL     1      28.076   3.226  -0.731 -0.12 +0.00    +0.146 C 
ATOM     65  C1  UNL     1      29.562   2.992  -0.474 -0.26 +0.00    +0.042 C 
BRANCH  64  66
ATOM     66  O22 UNL     1      27.955   3.682  -2.083 -0.10 -0.00    -0.393 OA
ATOM     67  H59 UNL     1      28.790   4.122  -2.317 +0.09 +0.00    +0.210 HD
ENDBRANCH  64  66
ENDBRANCH  50  64
ENDBRANCH  34  37
ENDBRANCH  23  33
ENDBRANCH  22  23
ENDBRANCH  21  22
ENDBRANCH  20  21
ENDBRANCH  19  20
ENDBRANCH  16  19
ENDBRANCH   1  13
BRANCH  11  68
ATOM     68  C29 UNL     1       8.536   8.884   1.995+39.30 +0.00    +0.124 C 
BRANCH  68  69
ATOM     69  C30 UNL     1       8.099   8.851   0.529+18.33 +0.00    +0.020 C 
BRANCH  69  70
ATOM     70  C31 UNL     1       7.492   7.535   0.023 -0.49 +0.00    +0.004 C 
BRANCH  70  71
ATOM     71  C32 UNL     1       5.979   7.538  -0.228 +0.39 +0.00    +0.035 C 
BRANCH  71  72
ATOM     72  C33 UNL     1       5.142   6.507   0.539 +1.57 +0.00    +0.176 C 
BRANCH  72  73
ATOM     73  C34 UNL     1       4.795   5.299  -0.365 -0.06 +0.00    +0.240 C 
ATOM     74  O9  UNL     1       5.440   5.026  -1.374 +0.92 -0.00    -0.271 OA
ATOM     75  N10 UNL     1       3.818   4.467   0.150 -0.01 -0.00    -0.349 N 
ATOM     76  H66 UNL     1       3.214   4.931   0.824 +0.12 +0.00    +0.163 HD
BRANCH  75  77
ATOM     77  C35 UNL     1       3.077   3.589  -0.752 -0.08 +0.00    +0.232 C 
BRANCH  77  78
ATOM     78  C36 UNL     1       3.923   2.350  -1.041 -0.07 +0.00    +0.158 C 
ATOM     79  O10 UNL     1       3.666   1.206  -0.706 -0.01 -0.00    -0.649 OA
BRANCH  78  80
ATOM     80  O11 UNL     1       4.992   2.650  -1.817 +0.06 -0.00    -0.775 OA
ATOM     81  H55 UNL     1       4.846   3.566  -2.180 +0.02 +0.00    +0.167 HD
ENDBRANCH  78  80
ENDBRANCH  77  78
ENDBRANCH  75  77
ENDBRANCH  72  73
BRANCH  72  82
ATOM     82  N11 UNL     1       5.895   6.056   1.727 -0.11 -0.00    -0.346 N 
ATOM     83  C37 UNL     1       6.511   6.995   2.547 -0.15 +0.00    +0.241 C 
ATOM     84  O12 UNL     1       6.357   8.201   2.365 -0.23 -0.00    -0.271 OA
ATOM     85  H67 UNL     1       6.320   5.140   1.681 +0.06 +0.00    +0.163 HD
BRANCH  83  86
ATOM     86  C38 UNL     1       7.481   6.405   3.609 -0.11 +0.00    +0.177 C 
ATOM     87  C39 UNL     1       8.937   6.912   3.510 -0.32 +0.00    +0.045 C 
ATOM     88  C40 UNL     1       9.468   7.628   4.761 +2.05 +0.00    +0.082 C 
ATOM     89  S2  UNL     1       9.286   6.660   6.309 +5.07 -0.00    -0.129 SA
ATOM     90  C41 UNL     1      10.922   6.823   7.042 +0.68 +0.00    +0.016 A 
ATOM     91  C42 UNL     1      11.742   5.740   7.434 -0.34 +0.00    +0.051 A 
ATOM     92  C46 UNL     1      11.385   8.130   7.263 +1.76 +0.00    +0.022 A 
ATOM     93  C43 UNL     1      13.017   6.006   7.979 -0.50 +0.00    +0.052 A 
ATOM     94  C47 UNL     1      11.398   4.280   7.317 -0.34 +0.00    +0.253 C 
ATOM     95  C44 UNL     1      13.483   7.311   8.185 -0.46 +0.00    +0.088 A 
ATOM     96  C45 UNL     1      12.645   8.368   7.820 -0.36 +0.00    +0.036 A 
ATOM     97  O15 UNL     1      12.282   3.429   7.304 -0.14 -0.00    -0.268 OA
ATOM     98  N13 UNL     1      10.063   3.946   7.276 -0.22 -0.00    -0.343 N 
ATOM     99  C48 UNL     1       9.618   2.666   6.693 +1.71 +0.00    +0.185 C 
ATOM    100  H68 UNL     1       9.436   4.731   7.132 +0.11 +0.00    +0.163 HD
ATOM    101  C49 UNL     1       9.411   2.988   5.184 -0.07 +0.00    +0.241 C 
ATOM    102  O16 UNL     1      10.182   3.727   4.566 -0.29 -0.00    -0.271 OA
ATOM    103  N14 UNL     1       8.287   2.476   4.563 +0.69 -0.00    -0.351 N 
ATOM    104  C50 UNL     1       8.149   2.662   3.117 -0.00 +0.00    +0.225 C 
ATOM    105  H69 UNL     1       8.030   1.542   4.885 -0.40 +0.00    +0.163 HD
ATOM    106  C51 UNL     1       7.968   4.132   2.692 -0.12 +0.00    +0.236 C 
ATOM    107  O17 UNL     1       8.233   4.520   1.556 -0.07 -0.00    -0.272 OA
ATOM    108  N15 UNL     1       7.421   4.944   3.671 -0.04 -0.00    -0.346 N 
ATOM    109  H70 UNL     1       7.387   4.521   4.590 +0.09 +0.00    +0.163 HD
BRANCH  95 110
ATOM    110  N12 UNL     1      14.766   7.551   8.735 +1.49 -0.00    -0.129 N 
BRANCH 110 111
ATOM    111  O13 UNL     1      15.050   8.757   9.349+23.80 -0.00    -0.263 OA
ATOM    112  H56 UNL     1      14.988   8.521  10.292 -0.31 +0.00    +0.247 HD
ENDBRANCH 110 111
BRANCH 110 113
ATOM    113  O14 UNL     1      15.867   6.855   8.269 +3.91 -0.00    -0.263 OA
ATOM    114  H57 UNL     1      15.503   5.954   8.200 -0.24 +0.00    +0.247 HD
ENDBRANCH 110 113
ENDBRANCH  95 110
BRANCH  99 115
ATOM    115  C52 UNL     1       8.381   2.215   7.466+10.02 +0.00    +0.137 C 
BRANCH 115 116
ATOM    116  C53 UNL     1       7.477   3.382   7.774 +0.15 +0.00    +0.217 C 
ATOM    117  O18 UNL     1       6.286   3.396   7.485 -0.30 -0.00    -0.274 OA
ATOM    118  N16 UNL     1       8.086   4.473   8.313 -0.17 -0.00    -0.370 N 
ATOM    119  H71 UNL     1       7.488   5.246   8.581 +0.10 +0.00    +0.159 HD
ATOM    120  H72 UNL     1       8.999   4.426   8.746 +0.10 +0.00    +0.159 HD
ENDBRANCH 115 116
ENDBRANCH  99 115
ENDBRANCH  83  86
ENDBRANCH  72  82
ENDBRANCH  71  72
ENDBRANCH  70  71
ENDBRANCH  69  70
ENDBRANCH  68  69
ENDBRANCH  11  68
TORSDOF 31
TER
