USER    Run = 1
USER    DPF = ligand_257_receptor.dpf
USER  
USER    Estimated Free Energy of Binding    =   -8.50 kcal/mol  [=(1)+(2)+(3)-(4)]
USER    Estimated Inhibition Constant, Ki   =  586.55 nM (nanomolar)  [Temperature = 298.15 K]
USER    
USER    (1) Final Intermolecular Energy     =   -9.69 kcal/mol
USER        vdW + Hbond + desolv Energy     =   -9.69 kcal/mol
USER        Electrostatic Energy            =   +0.00 kcal/mol
USER    (2) Final Total Internal Energy     =   -2.97 kcal/mol
USER    (3) Torsional Free Energy           =   +1.19 kcal/mol
USER    (4) Unbound System's Energy  [=(2)] =   -2.97 kcal/mol
USER    
USER    
USER    NEWDPF move ligand_257.pdbqt
USER    NEWDPF about 0.000000 0.000000 0.000000
USER    NEWDPF tran0 17.789797 7.890890 5.208718
USER    NEWDPF quaternion0 0.527874 -0.327629 0.769388 -0.148493
USER    NEWDPF axisangle0 0.533792 -0.331302 0.778014 -162.920783
USER    NEWDPF quat0 0.533792 -0.331302 0.778014 -162.920783
USER    NEWDPF dihe0 160.78 -61.99 137.80 102.43 180.00 -171.13 160.26 107.20 -35.49 -92.73 114.73 -5.43 -116.65 -37.47 -156.50 -94.75 -52.17 -105.11 
USER  keepresnum = 1 
USER  
REMARK  18 active torsions:
REMARK  status: ('A' for Active; 'I' for Inactive)
REMARK    1  A    between atoms: C2_2  and  N4_43 
REMARK    2  A    between atoms: C4_4  and  N1_40 
REMARK    3  A    between atoms: C5_5  and  C6_6 
REMARK       I    between atoms: C5_5  and  N1_40 
REMARK    4  A    between atoms: C9_9  and  C12_12 
REMARK    5  A    between atoms: C12_12  and  N2_41 
REMARK    6  A    between atoms: C13_13  and  C14_14 
REMARK    7  A    between atoms: C13_13  and  N2_41 
REMARK    8  A    between atoms: C14_14  and  C15_15 
REMARK    9  A    between atoms: C14_14  and  O4_47 
REMARK   10  A    between atoms: C21_21  and  O3_46 
REMARK   11  A    between atoms: C24_24  and  C25_25 
REMARK       I    between atoms: C24_24  and  N4_43 
REMARK   12  A    between atoms: C25_25  and  O6_49 
REMARK   13  A    between atoms: C26_26  and  O6_49 
REMARK   14  A    between atoms: C30_30  and  C32_32 
REMARK   15  A    between atoms: C32_32  and  C33_33 
REMARK   16  A    between atoms: C32_32  and  C39_39 
REMARK   17  A    between atoms: C32_32  and  O9_52 
REMARK   18  A    between atoms: C39_39  and  O8_51 
USER                              x       y       z     vdW  Elec       q    Type
USER                           _______ _______ _______ _____ _____    ______ ____
ROOT
ATOM      1  C5  UNL     1      17.413  10.373   3.209 -0.33 +0.00    +0.253 C 
ATOM      2  N1  UNL     1      16.806   9.296   3.819 -0.22 -0.00    -0.352 N 
ATOM      3  O1  UNL     1      16.898  11.484   3.128 -0.34 -0.00    -0.268 OA
ATOM      4  H30 UNL     1      17.285   8.403   3.782 +0.11 +0.00    +0.163 HD
ENDROOT
BRANCH   2   5
ATOM      5  C4  UNL     1      15.411   9.361   4.314 +0.36 +0.00    +0.088 C 
ATOM      6  C1  UNL     1      14.350   9.190   3.201 +0.46 +0.00    +0.050 C 
ATOM      7  C2  UNL     1      14.294   7.690   3.558 -0.44 +0.00    +0.088 C 
ATOM      8  C3  UNL     1      14.888   8.043   4.936 -0.18 +0.00    +0.050 C 
BRANCH   7   9
ATOM      9  N4  UNL     1      12.974   7.043   3.546 -0.21 -0.00    -0.354 N 
ATOM     10  C24 UNL     1      12.545   6.041   4.395 +0.01 +0.00    +0.242 C 
ATOM     11  O5  UNL     1      13.218   5.569   5.308 -0.28 -0.00    -0.271 OA
ATOM     12  H33 UNL     1      12.295   7.301   2.834 +0.07 +0.00    +0.162 HD
BRANCH  10  13
ATOM     13  C25 UNL     1      11.126   5.543   4.109 -0.14 +0.00    +0.278 C 
BRANCH  13  14
ATOM     14  O6  UNL     1      10.267   6.620   3.738 -0.14 -0.00    -0.342 OA
BRANCH  14  15
ATOM     15  C26 UNL     1       8.997   6.290   3.346 -0.22 +0.00    +0.070 A 
ATOM     16  C27 UNL     1       7.822   6.629   4.015 +0.03 +0.00    +0.037 A 
ATOM     17  C28 UNL     1       6.589   6.232   3.500 -0.11 +0.00    +0.003 A 
ATOM     18  C29 UNL     1       6.527   5.495   2.317 -0.17 +0.00    +0.011 A 
ATOM     19  C30 UNL     1       7.698   5.132   1.622 -0.14 -0.00    -0.006 A 
ATOM     20  C31 UNL     1       8.929   5.549   2.159 -0.17 +0.00    +0.047 A 
BRANCH  19  21
ATOM     21  C32 UNL     1       7.577   4.331   0.317 -0.07 +0.00    +0.198 C 
BRANCH  21  22
ATOM     22  C33 UNL     1       8.528   3.124   0.258 -0.12 -0.00    -0.009 A 
ATOM     23  C34 UNL     1       9.426   2.958  -0.815 -0.16 +0.00    +0.011 A 
ATOM     24  C35 UNL     1      10.306   1.874  -0.857 -0.25 +0.00    +0.001 A 
ATOM     25  C36 UNL     1      10.311   0.939   0.173 -0.35 +0.00    +0.000 A 
ATOM     26  C37 UNL     1       9.440   1.087   1.249 -0.32 +0.00    +0.001 A 
ATOM     27  C38 UNL     1       8.560   2.171   1.294 -0.23 +0.00    +0.011 A 
ENDBRANCH  21  22
BRANCH  21  28
ATOM     28  C39 UNL     1       6.125   3.906  -0.037 -0.08 +0.00    +0.186 C 
ATOM     29  O7  UNL     1       5.552   2.927   0.430 +0.06 -0.00    -0.647 OA
BRANCH  28  30
ATOM     30  O8  UNL     1       5.492   4.663  -0.958 +0.06 -0.00    -0.774 OA
ATOM     31  H36 UNL     1       6.026   5.484  -1.006 -0.53 +0.00    +0.167 HD
ENDBRANCH  28  30
ENDBRANCH  21  28
BRANCH  21  32
ATOM     32  O9  UNL     1       7.965   5.269  -0.721 -0.05 -0.00    -0.370 OA
ATOM     33  H37 UNL     1       7.440   5.024  -1.507 -0.30 +0.00    +0.212 HD
ENDBRANCH  21  32
ENDBRANCH  19  21
ENDBRANCH  14  15
ENDBRANCH  13  14
ENDBRANCH  10  13
ENDBRANCH   7   9
ENDBRANCH   2   5
BRANCH   1  34
ATOM     34  C6  UNL     1      18.795  10.169   2.701 -0.37 +0.00    +0.049 A 
ATOM     35  C7  UNL     1      19.593   9.048   2.960 -0.23 +0.00    +0.027 A 
ATOM     36  C8  UNL     1      20.889   8.974   2.427 +0.32 +0.00    +0.029 A 
ATOM     37 BR1  UNL     1      19.008   7.541   3.959 +1.46 -0.00    -0.050 Br
ATOM     38  C9  UNL     1      21.400  10.003   1.621 -0.40 -0.00    -0.029 A 
ATOM     39  C10 UNL     1      20.592  11.113   1.351 -0.37 +0.00    +0.010 A 
ATOM     40  C11 UNL     1      19.303  11.192   1.883 -0.52 +0.00    +0.019 A 
BRANCH  38  41
ATOM     41  C12 UNL     1      22.784   9.900   1.026 -0.08 +0.00    +0.308 C 
BRANCH  41  42
ATOM     42  N2  UNL     1      23.827   9.580   2.006 -0.39 +0.00    +0.090 N 
ATOM     43  H31 UNL     1      23.864  10.336   2.691 +0.29 +0.00    +0.316 HD
BRANCH  42  44
ATOM     44  C13 UNL     1      25.181   9.412   1.431 -0.09 +0.00    +0.306 C 
BRANCH  44  45
ATOM     45  C14 UNL     1      26.159   8.674   2.384 -0.48 +0.00    +0.180 C 
BRANCH  45  46
ATOM     46  C15 UNL     1      27.254   7.826   1.752 -0.44 -0.00    -0.015 A 
ATOM     47  C16 UNL     1      26.936   6.706   0.939 -0.30 +0.00    +0.003 A 
ATOM     48  C17 UNL     1      25.554   6.259   0.686 -0.39 +0.00    +0.020 A 
ATOM     49  C20 UNL     1      27.971   5.964   0.331 -0.20 +0.00    +0.079 A 
ATOM     50  C18 UNL     1      25.294   5.240  -0.143 -0.44 +0.00    +0.075 A 
ATOM     51  C19 UNL     1      26.380   4.528  -0.845 -0.24 +0.00    +0.245 A 
ATOM     52  N3  UNL     1      27.656   4.908  -0.544 -0.12 -0.00    -0.321 N 
ATOM     53  O2  UNL     1      26.134   3.637  -1.650 -0.67 -0.00    -0.268 OA
ATOM     54  H32 UNL     1      28.378   4.454  -1.083 +0.08 +0.00    +0.169 HD
ATOM     55  C21 UNL     1      29.305   6.291   0.568 -0.19 +0.00    +0.093 A 
ATOM     56  C22 UNL     1      29.632   7.382   1.355 -0.34 +0.00    +0.039 A 
ATOM     57  C23 UNL     1      28.617   8.141   1.941 -0.31 +0.00    +0.013 A 
BRANCH  55  58
ATOM     58  O3  UNL     1      30.336   5.548   0.065 -0.04 -0.00    -0.358 OA
ATOM     59  H34 UNL     1      30.679   6.028  -0.707 +0.07 +0.00    +0.217 HD
ENDBRANCH  55  58
ENDBRANCH  45  46
BRANCH  45  60
ATOM     60  O4  UNL     1      26.771   9.658   3.226 -0.51 -0.00    -0.389 OA
ATOM     61  H35 UNL     1      26.714   9.286   4.129 -0.36 +0.00    +0.210 HD
ENDBRANCH  45  60
ENDBRANCH  44  45
ENDBRANCH  42  44
ENDBRANCH  41  42
ENDBRANCH  38  41
ENDBRANCH   1  34
TORSDOF 18
TER
