USER    Run = 1
USER    DPF = ligand_377_receptor.dpf
USER  
USER    Estimated Free Energy of Binding    =  +1.05e+005 kcal/mol  [=(1)+(2)+(3)-(4)]
USER    
USER    (1) Final Intermolecular Energy     =  +1.05e+005 kcal/mol
USER        vdW + Hbond + desolv Energy     =  +6.37e+004 kcal/mol
USER        Electrostatic Energy            =  +4.09e+004 kcal/mol
USER    (2) Final Total Internal Energy     =   +3.51 kcal/mol
USER    (3) Torsional Free Energy           =   +1.19 kcal/mol
USER    (4) Unbound System's Energy  [=(2)] =   +3.51 kcal/mol
USER    
USER    
USER    NEWDPF move ligand_377.pdbqt
USER    NEWDPF about 0.000000 0.000000 0.000000
USER    NEWDPF tran0 16.669496 11.936684 0.602306
USER    NEWDPF quaternion0 0.115499 -0.208820 0.121926 -0.963425
USER    NEWDPF axisangle0 0.431004 -0.779246 0.454985 -31.087859
USER    NEWDPF quat0 0.431004 -0.779246 0.454985 -31.087859
USER    NEWDPF dihe0 -137.26 176.29 128.13 -135.55 109.87 161.51 86.72 180.00 -105.48 172.84 -179.10 172.84 -121.50 75.18 
USER  keepresnum = 1 
USER  
REMARK  14 active torsions:
REMARK  status: ('A' for Active; 'I' for Inactive)
REMARK    1  A    between atoms: C3_3  and  C35_35 
REMARK    2  A    between atoms: C5_5  and  N2_47 
REMARK    3  A    between atoms: C6_6  and  C7_7 
REMARK       I    between atoms: C6_6  and  N2_47 
REMARK    4  A    between atoms: C9_9  and  N4_49 
REMARK       I    between atoms: C11_11  and  N4_49 
REMARK       I    between atoms: C11_11  and  N5_50 
REMARK    5  A    between atoms: C12_12  and  N5_50 
REMARK    6  A    between atoms: C14_14  and  C17_17 
REMARK       I    between atoms: C17_17  and  N7_52 
REMARK    7  A    between atoms: C18_18  and  N7_52 
REMARK    8  A    between atoms: C20_20  and  C23_23 
REMARK       I    between atoms: C23_23  and  N9_54 
REMARK    9  A    between atoms: C24_24  and  N9_54 
REMARK   10  A    between atoms: C28_28  and  S2_74 
REMARK   11  A    between atoms: C29_29  and  S1_73 
REMARK       I    between atoms: C35_35  and  N10_55 
REMARK   12  A    between atoms: C36_36  and  N10_55 
REMARK   13  A    between atoms: C40_40  and  S4_76 
REMARK   14  A    between atoms: C41_41  and  S3_75 
USER                              x       y       z     vdW  Elec       q    Type
USER                           _______ _______ _______ _____ _____    ______ ____
ROOT
ATOM      1  C11 UNL     1      17.016  12.644   0.201 +4.98 +0.00    +0.327 C 
ATOM      2  N4  UNL     1      16.165  13.150  -0.777+99.99 -0.00    -0.294 N 
ATOM      3  N5  UNL     1      18.321  13.051  -0.069 +5.56 -0.00    -0.294 N 
ATOM      4  O2  UNL     1      16.669  11.951   1.148 -0.44 -0.00    -0.247 OA
ATOM      5  H32 UNL     1      16.431  14.057  -1.133 +2.22 +0.00    +0.172 HD
ATOM      6  H33 UNL     1      18.491  13.432  -0.986+99.99 +0.00    +0.172 HD
ENDROOT
BRANCH   2   7
ATOM      7  C9  UNL     1      14.821  12.837  -0.914 +7.88 +0.00    +0.111 A 
ATOM      8  C10 UNL     1      13.974  12.532   0.135 +9.13 +0.00    +0.067 A 
ATOM      9  C7  UNL     1      12.671  12.258  -0.375+54.20 +0.00    +0.051 A 
ATOM     10  C8  UNL     1      12.769  12.434  -1.744 +2.83 +0.00    +0.109 A 
ATOM     11  N3  UNL     1      14.056  12.825  -2.059 +6.14 -0.00    -0.346 N 
ATOM     12  C34 UNL     1      14.419  13.261  -3.391+99.99 +0.00    +0.157 C 
BRANCH   9  13
ATOM     13  C6  UNL     1      11.505  11.860   0.427+99.99 +0.00    +0.258 C 
ATOM     14  N2  UNL     1      11.805  11.553   1.741+99.99 -0.00    -0.309 N 
ATOM     15  H31 UNL     1      12.781  11.399   1.951 +0.21 +0.00    +0.170 HD
ATOM     16  O1  UNL     1      10.403  11.776  -0.102+99.99 -0.00    -0.267 OA
BRANCH  14  17
ATOM     17  C5  UNL     1      10.907  11.149   2.718+99.99 +0.00    +0.110 A 
ATOM     18  C4  UNL     1      10.008  10.104   2.574+99.99 +0.00    +0.067 A 
ATOM     19  C3  UNL     1       9.212  10.000   3.754+55.53 +0.00    +0.051 A 
ATOM     20  C2  UNL     1       9.710  10.969   4.606+99.99 +0.00    +0.109 A 
ATOM     21  N1  UNL     1      10.754  11.629   4.000+97.42 -0.00    -0.346 N 
ATOM     22  C1  UNL     1      11.599  12.541   4.739+99.99 +0.00    +0.157 C 
BRANCH  19  23
ATOM     23  C35 UNL     1       8.107   9.093   4.107+99.99 +0.00    +0.257 C 
ATOM     24  N10 UNL     1       8.522   7.817   4.434 +6.61 -0.00    -0.323 N 
ATOM     25  H36 UNL     1       9.506   7.626   4.347 +0.10 +0.00    +0.169 HD
ATOM     26  O11 UNL     1       6.950   9.493   4.079+99.99 -0.00    -0.267 OA
BRANCH  24  27
ATOM     27  C36 UNL     1       7.731   6.718   4.835 +4.53 +0.00    +0.035 A 
ATOM     28  C37 UNL     1       7.466   5.596   4.044 -0.19 +0.00    +0.042 A 
ATOM     29  C38 UNL     1       6.657   4.541   4.523 -0.23 -0.00    -0.022 A 
ATOM     30  C39 UNL     1       6.377   3.400   3.751 -0.21 +0.00    +0.040 A 
ATOM     31  C43 UNL     1       6.111   4.622   5.815 -0.34 -0.00    -0.024 A 
ATOM     32  C40 UNL     1       5.564   2.339   4.227 +0.06 +0.00    +0.105 A 
ATOM     33  C41 UNL     1       5.014   2.433   5.505 +0.99 +0.00    +0.105 A 
ATOM     34  C42 UNL     1       5.303   3.576   6.286 -0.27 +0.00    +0.040 A 
ATOM     35  C44 UNL     1       6.378   5.746   6.605 -0.29 +0.00    +0.014 A 
ATOM     36  C45 UNL     1       7.178   6.783   6.119+78.20 +0.00    +0.030 A 
BRANCH  32  37
ATOM     37  S4  UNL     1       5.427   0.908   3.124 -0.36 +0.00    +0.139 S 
ATOM     38  O15 UNL     1       5.776  -0.216   3.986 +0.53 -0.00    -0.591 OA
ATOM     39  O16 UNL     1       6.279   1.197   1.981 -0.04 -0.00    -0.591 OA
ATOM     40  O17 UNL     1       4.000   0.924   2.764 -0.04 -0.00    -0.591 OA
ENDBRANCH  32  37
BRANCH  33  41
ATOM     41  S3  UNL     1       3.851   1.265   6.258 +4.15 +0.00    +0.139 S 
ATOM     42  O12 UNL     1       4.112   0.031   5.497+12.76 -0.00    -0.591 OA
ATOM     43  O13 UNL     1       2.547   1.843   5.950 -0.07 -0.00    -0.591 OA
ATOM     44  O14 UNL     1       4.243   1.136   7.651+99.99 -0.00    -0.591 OA
ENDBRANCH  33  41
ENDBRANCH  24  27
ENDBRANCH  19  23
ENDBRANCH  14  17
ENDBRANCH   9  13
ENDBRANCH   2   7
BRANCH   3  45
ATOM     45  C12 UNL     1      19.402  12.783   0.754 -0.38 +0.00    +0.111 A 
ATOM     46  C13 UNL     1      20.035  11.597   1.071 -0.55 +0.00    +0.067 A 
ATOM     47  C14 UNL     1      21.104  11.865   1.983+11.22 +0.00    +0.051 A 
ATOM     48  C15 UNL     1      21.085  13.236   2.184+51.59 +0.00    +0.109 A 
ATOM     49  N6  UNL     1      20.052  13.774   1.454+13.86 -0.00    -0.346 N 
ATOM     50  C16 UNL     1      19.732  15.186   1.435+99.99+99.99    +0.157 C 
BRANCH  47  51
ATOM     51  C17 UNL     1      22.025  10.865   2.549+10.50 +0.00    +0.258 C 
ATOM     52  N7  UNL     1      21.775   9.573   2.128 -0.22 -0.00    -0.309 N 
ATOM     53  H34 UNL     1      21.154   9.476   1.338 +0.12 +0.00    +0.170 HD
ATOM     54  O3  UNL     1      22.931  11.219   3.293 +7.76 -0.00    -0.267 OA
BRANCH  52  55
ATOM     55  C18 UNL     1      22.429   8.411   2.508 -0.12 +0.00    +0.110 A 
ATOM     56  C19 UNL     1      23.356   8.352   3.540 +0.55 +0.00    +0.067 A 
ATOM     57  C20 UNL     1      23.817   7.011   3.685+99.99 +0.00    +0.051 A 
ATOM     58  C21 UNL     1      23.152   6.297   2.707+99.99 +0.00    +0.109 A 
ATOM     59  N8  UNL     1      22.360   7.146   1.968 +8.22 -0.00    -0.346 N 
ATOM     60  C22 UNL     1      21.713   6.705   0.752+99.99 +0.00    +0.157 C 
BRANCH  57  61
ATOM     61  C23 UNL     1      24.780   6.413   4.625+99.99 +0.00    +0.257 C 
ATOM     62  N9  UNL     1      24.827   5.034   4.569+99.99 -0.00    -0.323 N 
ATOM     63  H35 UNL     1      24.192   4.579   3.932+29.11 +0.00    +0.169 HD
ATOM     64  O4  UNL     1      25.436   7.127   5.376 +2.27 -0.00    -0.267 OA
BRANCH  62  65
ATOM     65  C24 UNL     1      25.623   4.156   5.336+99.99 +0.00    +0.035 A 
ATOM     66  C25 UNL     1      26.768   4.700   5.934+99.99 +0.00    +0.042 A 
ATOM     67  C26 UNL     1      27.635   3.912   6.712+99.99 -0.00    -0.022 A 
ATOM     68  C27 UNL     1      28.787   4.451   7.304+99.99 +0.00    +0.040 A 
ATOM     69  C31 UNL     1      27.350   2.552   6.898+99.99 -0.00    -0.024 A 
ATOM     70  C28 UNL     1      29.675   3.670   8.082+67.45 +0.00    +0.105 A 
ATOM     71  C29 UNL     1      29.385   2.320   8.279+99.99 +0.00    +0.105 A 
ATOM     72  C30 UNL     1      28.223   1.777   7.678+99.99 +0.00    +0.040 A 
ATOM     73  C32 UNL     1      26.198   2.011   6.303+15.98 +0.00    +0.014 A 
ATOM     74  C33 UNL     1      25.342   2.805   5.529+99.99 +0.00    +0.030 A 
BRANCH  70  75
ATOM     75  S2  UNL     1      31.165   4.535   8.643+99.99 +0.00    +0.139 S 
ATOM     76  O8  UNL     1      32.222   3.548   8.436+99.99 -0.00    -0.591 OA
ATOM     77  O9  UNL     1      30.877   4.757  10.069+16.47 -0.00    -0.591 OA
ATOM     78  O10 UNL     1      31.220   5.780   7.896+99.99 -0.00    -0.591 OA
ENDBRANCH  70  75
BRANCH  71  79
ATOM     79  S1  UNL     1      30.311   1.181   9.339+83.93 +0.00    +0.139 S 
ATOM     80  O5  UNL     1      29.261   0.466  10.060 +6.71 -0.00    -0.591 OA
ATOM     81  O6  UNL     1      31.063   2.102  10.206 +5.70 -0.00    -0.591 OA
ATOM     82  O7  UNL     1      31.185   0.426   8.457+99.99 -0.00    -0.591 OA
ENDBRANCH  71  79
ENDBRANCH  62  65
ENDBRANCH  57  61
ENDBRANCH  52  55
ENDBRANCH  47  51
ENDBRANCH   3  45
TORSDOF 14
TER
