USER    Run = 1
USER    DPF = ligand_284_receptor.dpf
USER  
USER    Estimated Free Energy of Binding    =   +2.91 kcal/mol  [=(1)+(2)+(3)-(4)]
USER    
USER    (1) Final Intermolecular Energy     =   +1.72 kcal/mol
USER        vdW + Hbond + desolv Energy     =   +1.72 kcal/mol
USER        Electrostatic Energy            =   +0.00 kcal/mol
USER    (2) Final Total Internal Energy     =   -1.19 kcal/mol
USER    (3) Torsional Free Energy           =   +1.19 kcal/mol
USER    (4) Unbound System's Energy  [=(2)] =   -1.19 kcal/mol
USER    
USER    
USER    NEWDPF move ligand_284.pdbqt
USER    NEWDPF about 0.000000 0.000000 0.000000
USER    NEWDPF tran0 17.833951 7.190208 1.112638
USER    NEWDPF quaternion0 0.395363 0.222298 -0.137366 0.880569
USER    NEWDPF axisangle0 0.834245 0.469064 -0.289852 56.577760
USER    NEWDPF quat0 0.834245 0.469064 -0.289852 56.577760
USER    NEWDPF dihe0 -128.17 130.43 20.50 44.35 -149.89 51.53 -102.73 -135.06 3.48 -136.92 5.57 -113.62 -165.59 5.63 -166.66 137.84 
USER  keepresnum = 1 
USER  
REMARK  16 active torsions:
REMARK  status: ('A' for Active; 'I' for Inactive)
REMARK    1  A    between atoms: C3_3  and  N7_45 
REMARK    2  A    between atoms: C5_5  and  C6_6 
REMARK       I    between atoms: C6_6  and  N2_39 
REMARK    3  A    between atoms: C7_7  and  N2_39 
REMARK    4  A    between atoms: C9_9  and  C11_11 
REMARK       I    between atoms: C11_11  and  N4_41 
REMARK    5  A    between atoms: C12_12  and  C13_13 
REMARK    6  A    between atoms: C12_12  and  N4_41 
REMARK    7  A    between atoms: C13_13  and  C14_14 
REMARK    8  A    between atoms: C14_14  and  N5_42 
REMARK    9  A    between atoms: C16_16  and  C17_17 
REMARK       I    between atoms: C16_16  and  N7_45 
REMARK   10  A    between atoms: C20_20  and  N8_46 
REMARK   11  A    between atoms: C23_23  and  C24_24 
REMARK       I    between atoms: C23_23  and  N8_46 
REMARK   12  A    between atoms: C26_26  and  N10_48 
REMARK   13  A    between atoms: C28_28  and  C29_29 
REMARK       I    between atoms: C28_28  and  N10_48 
REMARK   14  A    between atoms: C31_31  and  N12_50 
REMARK   15  A    between atoms: C33_33  and  C34_34 
REMARK       I    between atoms: C33_33  and  N12_50 
REMARK   16  A    between atoms: C34_34  and  N13_51 
REMARK       I    between atoms: C35_35  and  N14_53 
REMARK       I    between atoms: C35_35  and  N15_54 
USER                              x       y       z     vdW  Elec       q    Type
USER                           _______ _______ _______ _____ _____    ______ ____
ROOT
ATOM      1  C17 UNL     1      17.954   9.423   2.381 -0.44 +0.00    +0.032 A 
ATOM      2  C18 UNL     1      16.783   9.979   2.909 -0.47 +0.00    +0.019 A 
ATOM      3  C19 UNL     1      15.532   9.449   2.566 -0.27 +0.00    +0.030 A 
ATOM      4  C20 UNL     1      15.435   8.355   1.702 +0.68 +0.00    +0.035 A 
ATOM      5  C21 UNL     1      16.612   7.789   1.195 +0.39 +0.00    +0.030 A 
ATOM      6  C22 UNL     1      17.863   8.315   1.535 +1.20 +0.00    +0.019 A 
ENDROOT
BRANCH   4   7
ATOM      7  N8  UNL     1      14.218   7.765   1.307 +3.93 -0.00    -0.323 N 
ATOM      8  C23 UNL     1      13.866   7.301   0.052 +1.29 +0.00    +0.257 C 
ATOM      9  O4  UNL     1      14.585   7.323  -0.941 -0.08 -0.00    -0.267 OA
ATOM     10  H37 UNL     1      13.523   7.667   2.034 -0.24 +0.00    +0.169 HD
BRANCH   8  11
ATOM     11  C24 UNL     1      12.507   6.745  -0.022 -0.29 +0.00    +0.051 A 
ATOM     12  C25 UNL     1      11.989   6.125  -1.146 -0.32 +0.00    +0.109 A 
ATOM     13  N9  UNL     1      10.705   5.723  -0.885 -0.11 -0.00    -0.346 N 
ATOM     14  C26 UNL     1      10.363   6.067   0.403 -0.22 +0.00    +0.110 A 
ATOM     15  C37 UNL     1       9.862   5.041  -1.843 -0.16 +0.00    +0.157 C 
ATOM     16  C27 UNL     1      11.463   6.699   0.951 -0.28 +0.00    +0.067 A 
BRANCH  14  17
ATOM     17  N10 UNL     1       9.117   5.779   0.935 -0.06 -0.00    -0.309 N 
ATOM     18  C28 UNL     1       8.659   4.492   1.175 -0.06 +0.00    +0.258 C 
ATOM     19  O5  UNL     1       9.282   3.459   0.949 -0.02 -0.00    -0.267 OA
ATOM     20  H38 UNL     1       8.506   6.547   1.164 +0.09 +0.00    +0.170 HD
BRANCH  18  21
ATOM     21  C29 UNL     1       7.307   4.445   1.747 -0.10 +0.00    +0.051 A 
ATOM     22  C30 UNL     1       6.253   5.230   1.308 -0.13 +0.00    +0.109 A 
ATOM     23  N11 UNL     1       5.138   4.941   2.049 -0.06 -0.00    -0.347 N 
ATOM     24  C31 UNL     1       5.438   3.972   2.978 -0.09 +0.00    +0.110 A 
ATOM     25  C36 UNL     1       3.850   5.570   1.860 +0.20 +0.00    +0.157 C 
ATOM     26  C32 UNL     1       6.771   3.652   2.807 -0.14 +0.00    +0.067 A 
BRANCH  24  27
ATOM     27  N12 UNL     1       4.500   3.487   3.863 -0.05 -0.00    -0.312 N 
ATOM     28  C33 UNL     1       3.205   3.135   3.524 -0.06 +0.00    +0.240 C 
ATOM     29  O6  UNL     1       2.694   3.198   2.407 -0.08 -0.00    -0.271 OA
ATOM     30  H39 UNL     1       4.718   3.354   4.848 +0.06 +0.00    +0.170 HD
BRANCH  28  31
ATOM     31  C34 UNL     1       2.405   2.642   4.731 -0.09 +0.00    +0.224 C 
BRANCH  31  32
ATOM     32  N13 UNL     1       2.570   3.576   5.865 -0.05 -0.00    -0.363 N 
ATOM     33  C35 UNL     1       2.793   3.054   7.012 -0.35 +0.00    +0.122 C 
ATOM     34  N14 UNL     1       2.985   3.846   8.088 -0.27 -0.00    -0.279 NA
ATOM     35  N15 UNL     1       2.893   1.758   7.376 -0.22 -0.00    -0.279 NA
ATOM     36  H40 UNL     1       3.103   4.816   7.813 +0.04 +0.00    +0.126 HD
ATOM     37  H41 UNL     1       3.764   3.543   8.662 +0.07 +0.00    +0.126 HD
ATOM     38  H42 UNL     1       2.509   1.580   8.298 -0.06 +0.00    +0.126 HD
ATOM     39  H43 UNL     1       2.538   1.086   6.707 +0.03 +0.00    +0.126 HD
ATOM     40  H13 UNL     1       2.509   4.587   5.738 +0.05 +0.00    +0.162 HD
ENDBRANCH  31  32
ENDBRANCH  28  31
ENDBRANCH  24  27
ENDBRANCH  18  21
ENDBRANCH  14  17
ENDBRANCH   8  11
ENDBRANCH   4   7
BRANCH   1  41
ATOM     41  C16 UNL     1      19.305   9.955   2.716 -0.23 +0.00    +0.256 C 
ATOM     42  N7  UNL     1      20.350   9.075   2.501 +0.06 -0.00    -0.322 N 
ATOM     43  H36 UNL     1      20.148   8.124   2.226 +0.71 +0.00    +0.169 HD
ATOM     44  O3  UNL     1      19.391  11.090   3.175 +0.52 -0.00    -0.267 OA
BRANCH  42  45
ATOM     45  C3  UNL     1      21.682   9.369   2.719 -0.41 +0.00    +0.053 A 
ATOM     46  C2  UNL     1      22.099  10.491   3.391 +0.26 +0.00    +0.120 A 
ATOM     47  N1  UNL     1      23.471  10.481   3.436 +0.01 -0.00    -0.354 N 
ATOM     48  C1  UNL     1      24.263  11.517   4.068 +2.50 +0.00    +0.156 C 
ATOM     49  C5  UNL     1      23.968   9.357   2.794 -0.45 +0.00    +0.105 A 
ATOM     50  C4  UNL     1      22.847   8.657   2.351 -0.38 +0.00    +0.066 A 
BRANCH  49  51
ATOM     51  C6  UNL     1      25.391   9.040   2.660 -0.42 +0.00    +0.273 C 
ATOM     52  N2  UNL     1      25.663   8.008   1.780 -0.19 -0.00    -0.320 N 
ATOM     53  H31 UNL     1      24.892   7.571   1.297 +0.14 +0.00    +0.169 HD
ATOM     54  O1  UNL     1      26.250   9.662   3.281 -0.93 -0.00    -0.266 OA
BRANCH  52  55
ATOM     55  C7  UNL     1      26.913   7.505   1.472 -0.37 +0.00    +0.053 A 
ATOM     56  C8  UNL     1      28.130   7.844   2.010 -0.34 +0.00    +0.120 A 
ATOM     57  N3  UNL     1      29.100   7.070   1.420 -0.15 -0.00    -0.354 N 
ATOM     58  C9  UNL     1      28.537   6.269   0.447 -0.19 +0.00    +0.104 A 
ATOM     59  C15 UNL     1      30.478   7.068   1.863 -0.33 +0.00    +0.156 C 
ATOM     60  C10 UNL     1      27.168   6.502   0.508 -0.27 +0.00    +0.066 A 
BRANCH  58  61
ATOM     61  C11 UNL     1      29.194   5.324  -0.435 -0.09 +0.00    +0.268 C 
ATOM     62  N4  UNL     1      28.686   5.258  -1.709 -0.05 -0.00    -0.355 N 
ATOM     63  H32 UNL     1      27.947   5.891  -2.002 +0.06 +0.00    +0.162 HD
ATOM     64  O2  UNL     1      30.110   4.596  -0.065 -0.08 -0.00    -0.266 OA
BRANCH  62  65
ATOM     65  C12 UNL     1      29.312   4.475  -2.752 -0.12 +0.00    +0.130 C 
BRANCH  65  66
ATOM     66  C13 UNL     1      30.362   3.520  -2.200 -0.07 +0.00    +0.095 C 
BRANCH  66  67
ATOM     67  C14 UNL     1      29.752   2.183  -1.823 -0.17 +0.00    +0.069 C 
ATOM     68  N6  UNL     1      29.678   1.828  -0.511 -0.05 -0.00    -0.389 N 
ATOM     69  H34 UNL     1      29.754   2.572   0.175 +0.07 +0.00    +0.157 HD
ATOM     70  H35 UNL     1      28.987   1.132  -0.259 -0.31 +0.00    +0.157 HD
BRANCH  67  71
ATOM     71  N5  UNL     1      29.296   1.412  -2.755 -0.02 -0.00    -0.389 N 
ATOM     72  H33 UNL     1      30.015   1.296  -3.474 +0.04 +0.00    +0.157 HD
ATOM     73  H5  UNL     1      28.369   0.988  -2.770 -0.26 +0.00    +0.157 HD
ENDBRANCH  67  71
ENDBRANCH  66  67
ENDBRANCH  65  66
ENDBRANCH  62  65
ENDBRANCH  58  61
ENDBRANCH  52  55
ENDBRANCH  49  51
ENDBRANCH  42  45
ENDBRANCH   1  41
TORSDOF 16
TER
