USER    Run = 1
USER    DPF = ligand_71_receptor.dpf
USER  
USER    Estimated Free Energy of Binding    =  +6.97e+006 kcal/mol  [=(1)+(2)+(3)-(4)]
USER    
USER    (1) Final Intermolecular Energy     =  +6.97e+006 kcal/mol
USER        vdW + Hbond + desolv Energy     =  +3.69e+006 kcal/mol
USER        Electrostatic Energy            =  +3.29e+006 kcal/mol
USER    (2) Final Total Internal Energy     =   +0.00 kcal/mol
USER    (3) Torsional Free Energy           =   +1.19 kcal/mol
USER    (4) Unbound System's Energy  [=(2)] =   +0.00 kcal/mol
USER    
USER    
USER    NEWDPF move ligand_71.pdbqt
USER    NEWDPF about 0.000000 0.000000 0.000000
USER    NEWDPF tran0 19.561742 5.840368 2.891911
USER    NEWDPF quaternion0 0.079943 0.403625 0.885205 0.217044
USER    NEWDPF axisangle0 0.081896 0.413482 0.906822 154.929103
USER    NEWDPF quat0 0.081896 0.413482 0.906822 154.929103
USER  keepresnum = 1 
USER  
REMARK  0 active torsions:
REMARK  status: ('A' for Active; 'I' for Inactive)
REMARK       I    between atoms: C4_4  and  C5_5 
REMARK       I    between atoms: C5_5  and  N3_63 
REMARK       I    between atoms: C6_6  and  N3_63 
REMARK       I    between atoms: C8_8  and  C9_9 
REMARK       I    between atoms: C9_9  and  N6_67 
REMARK       I    between atoms: C10_10  and  N6_67 
REMARK       I    between atoms: C12_12  and  C13_13 
REMARK       I    between atoms: C13_13  and  N9_71 
REMARK       I    between atoms: C14_14  and  C15_15 
REMARK       I    between atoms: C14_14  and  N9_71 
REMARK       I    between atoms: C15_15  and  C16_16 
REMARK       I    between atoms: C16_16  and  C17_17 
REMARK       I    between atoms: C17_17  and  N10_72 
REMARK       I    between atoms: C18_18  and  N10_72 
REMARK       I    between atoms: C20_20  and  C22_22 
REMARK       I    between atoms: C22_22  and  N12_74 
REMARK       I    between atoms: C23_23  and  N12_74 
REMARK       I    between atoms: C25_25  and  C27_27 
REMARK       I    between atoms: C27_27  and  N14_76 
REMARK       I    between atoms: C28_28  and  N14_76 
REMARK       I    between atoms: C30_30  and  C32_32 
REMARK       I    between atoms: C32_32  and  N16_78 
REMARK       I    between atoms: C33_33  and  C34_34 
REMARK       I    between atoms: C33_33  and  N16_78 
REMARK       I    between atoms: C34_34  and  C35_35 
REMARK       I    between atoms: C35_35  and  N17_79 
REMARK       I    between atoms: C36_36  and  C37_37 
REMARK       I    between atoms: C36_36  and  N17_79 
REMARK       I    between atoms: C37_37  and  C38_38 
REMARK       I    between atoms: C38_38  and  N18_80 
REMARK       I    between atoms: C40_40  and  C41_41 
REMARK       I    between atoms: C40_40  and  N18_80 
REMARK       I    between atoms: C41_41  and  C42_42 
REMARK       I    between atoms: C42_42  and  N19_81 
REMARK       I    between atoms: C43_43  and  C44_44 
REMARK       I    between atoms: C43_43  and  N19_81 
REMARK       I    between atoms: C44_44  and  N20_82 
REMARK       I    between atoms: C46_46  and  C47_47 
REMARK       I    between atoms: C46_46  and  N20_82 
REMARK       I    between atoms: C47_47  and  N21_83 
REMARK       I    between atoms: C48_48  and  C49_49 
REMARK       I    between atoms: C48_48  and  N21_83 
REMARK       I    between atoms: C49_49  and  C50_50 
REMARK       I    between atoms: C50_50  and  O11_94 
REMARK       I    between atoms: C51_51  and  C52_52 
REMARK       I    between atoms: C51_51  and  N21_83 
REMARK       I    between atoms: C52_52  and  O13_96 
REMARK       I    between atoms: C53_53  and  C54_54 
REMARK       I    between atoms: C53_53  and  N20_82 
REMARK       I    between atoms: C54_54  and  O15_98 
USER                              x       y       z     vdW  Elec       q    Type
USER                           _______ _______ _______ _____ _____    ______ ____
ROOT
ATOM      1  C1  UNL     1      -2.534  -1.222  12.320+99.99+99.99    +0.157 C 
ATOM      2  C2  UNL     1      -3.896  -0.673  10.295+99.99+99.99    +0.109 A 
ATOM      3  C3  UNL     1      -3.567  -0.358   8.999+99.99+99.99    +0.107 A 
ATOM      4  C4  UNL     1      -1.694  -0.667  10.014+99.99+99.99    +0.176 A 
ATOM      5  C5  UNL     1      -0.258  -0.771  10.251+99.99+99.99    +0.291 C 
ATOM      6  C6  UNL     1       1.820  -0.527   8.982+99.99+99.99    +0.125 A 
ATOM      7  C7  UNL     1       2.789  -0.789   9.916+20.89 +0.00    +0.140 A 
ATOM      8  C8  UNL     1       3.692  -0.336   7.941+99.99 +0.00    +0.178 A 
ATOM      9  C9  UNL     1       4.652  -0.105   6.866+99.99 +0.00    +0.291 C 
ATOM     10  C10 UNL     1       4.612   0.446   4.489 +0.05 +0.00    +0.125 A 
ATOM     11  C11 UNL     1       3.950   0.737   3.321 -0.25 +0.00    +0.140 A 
ATOM     12  C12 UNL     1       6.146   0.733   3.015 +0.61 +0.00    +0.178 A 
ATOM     13  C13 UNL     1       7.468   0.827   2.416 +5.59 +0.00    +0.285 C 
ATOM     14  C14 UNL     1       9.879   0.603   2.996+99.99 +0.00    +0.123 C 
ATOM     15  C15 UNL     1      10.395   2.041   3.049 +7.07 +0.00    +0.029 C 
ATOM     16  C16 UNL     1      11.917   2.128   3.139+85.36 +0.00    +0.105 C 
ATOM     17  C17 UNL     1      12.648   1.675   1.886+99.99 +0.00    +0.222 C 
ATOM     18  C18 UNL     1      14.968   1.408   1.105+80.07 +0.00    +0.052 A 
ATOM     19  C19 UNL     1      14.763   0.849  -0.130 +8.33 +0.00    +0.120 A 
ATOM     20  C20 UNL     1      16.999   1.060   0.113+99.99 +0.00    +0.105 A 
ATOM     21  C21 UNL     1      16.371   1.536   1.262+99.99 +0.00    +0.066 A 
ATOM     22  C22 UNL     1      18.420   0.977  -0.212+99.99 +0.00    +0.273 C 
ATOM     23  C23 UNL     1      20.579   1.982   0.425+68.44 +0.00    +0.053 A 
ATOM     24  C24 UNL     1      21.458   1.195  -0.275+99.99 +0.00    +0.120 A 
ATOM     25  C25 UNL     1      22.700   2.762   0.780+33.36 +0.00    +0.105 A 
ATOM     26  C26 UNL     1      21.358   2.959   1.096+21.55 +0.00    +0.066 A 
ATOM     27  C27 UNL     1      23.881   3.504   1.207 +6.19 +0.00    +0.273 C 
ATOM     28  C28 UNL     1      24.531   5.712   2.082 +2.86 +0.00    +0.053 A 
ATOM     29  C29 UNL     1      25.852   5.499   2.385 +9.02 +0.00    +0.120 A 
ATOM     30  C30 UNL     1      25.453   7.690   2.760 -0.39 +0.00    +0.104 A 
ATOM     31  C31 UNL     1      24.272   7.081   2.348 +2.12 +0.00    +0.066 A 
ATOM     32  C32 UNL     1      25.722   9.085   3.055 -0.45 +0.00    +0.268 C 
ATOM     33  C33 UNL     1      24.629  11.264   3.577 +0.82 +0.00    +0.132 C 
ATOM     34  C34 UNL     1      25.455  11.756   4.764+99.99 +0.00    +0.122 C 
ATOM     35  C35 UNL     1      26.751  12.427   4.351+99.99 +0.00    +0.219 C 
ATOM     36  C36 UNL     1      28.774  13.509   5.200+99.99 +0.00    +0.124 C 
ATOM     37  C37 UNL     1      29.686  13.541   6.421 +1.70 +0.00    +0.050 C 
ATOM     38  C38 UNL     1      31.062  14.140   6.082 -0.21 +0.00    +0.273 C 
ATOM     39  C39 UNL     1      32.352  12.128   5.689 -0.18 +0.00    +0.309 C 
ATOM     40  C40 UNL     1      32.899  14.118   4.464+99.99+99.99    +0.273 C 
ATOM     41  C41 UNL     1      32.471  15.264   3.529+99.99+99.99    +0.050 C 
ATOM     42  C42 UNL     1      31.250  15.020   2.637+99.99+99.99    +0.124 C 
ATOM     43  C43 UNL     1      30.136  13.285   1.297+99.99 +0.00    +0.243 C 
ATOM     44  C44 UNL     1      29.787  11.788   1.279+99.99 +0.00    +0.339 C 
ATOM     45  C45 UNL     1      27.504  11.787   0.249+97.46 +0.00    +0.273 C 
ATOM     46  C46 UNL     1      28.948   9.716   0.189 +5.55 +0.00    +0.257 C 
ATOM     47  C47 UNL     1      27.970   8.955  -0.743+21.33 +0.00    +0.145 C 
ATOM     48  C48 UNL     1      29.240   6.775  -0.833 -0.19 +0.00    +0.128 C 
ATOM     49  C49 UNL     1      29.899   6.925  -2.207 -0.18 +0.00    +0.129 C 
ATOM     50  C50 UNL     1      30.729   8.167  -2.296 -0.20 +0.00    +0.140 C 
ATOM     51  C51 UNL     1      26.769   6.812  -1.008 -0.24 +0.00    +0.227 C 
ATOM     52  C52 UNL     1      26.562   6.842  -2.510 +6.59 +0.00    +0.157 C 
ATOM     53  C53 UNL     1      29.476  11.767  -1.299+68.43 +0.00    +0.346 C 
ATOM     54  C54 UNL     1      30.981  11.648  -1.535+99.99 +0.00    +0.166 C 
ATOM     55  C55 UNL     1      27.771   6.819   3.248+78.71 +0.00    +0.156 C 
ATOM     56  C56 UNL     1      23.917   1.043  -0.614+99.99 +0.00    +0.156 C 
ATOM     57  C57 UNL     1      16.147   0.016  -2.022+75.42 +0.00    +0.156 C 
ATOM     58  C58 UNL     1       4.738   1.241   0.998 -0.11 +0.00    +0.157 C 
ATOM     59  C59 UNL     1       5.286  -0.855   9.816+99.99 +0.00    +0.157 C 
ATOM     60  N1  UNL     1      -2.701  -0.867  10.930+99.99+99.99    -0.342 N 
ATOM     61  N2  UNL     1      -2.208  -0.356   8.830+99.99+99.99    -0.346 N 
ATOM     62  H2  UNL     1      -1.695  -0.156   7.971+99.99+99.99    +0.167 HD
ATOM     63  N3  UNL     1       0.462  -0.513   9.108+99.99+99.99    -0.305 N 
ATOM     64  N4  UNL     1       3.975  -0.666   9.246+99.99 -0.00    -0.339 N 
ATOM     65  N5  UNL     1       2.378  -0.248   7.765+99.99 -0.00    -0.323 N 
ATOM     66  H5  UNL     1       1.887  -0.018   6.901+99.99+99.99    +0.169 HD
ATOM     67  N6  UNL     1       4.005   0.189   5.685+23.48 -0.00    -0.305 N 
ATOM     68  N7  UNL     1       4.936   0.919   2.390 -0.12 -0.00    -0.339 N 
ATOM     69  N8  UNL     1       5.959   0.445   4.295 +0.70 -0.00    -0.323 N 
ATOM     70  H8  UNL     1       6.679   0.261   4.994 +0.22 +0.00    +0.169 HD
ATOM     71  N9  UNL     1       8.472   0.535   3.313+99.99 -0.00    -0.354 N 
ATOM     72  N10 UNL     1      14.023   1.773   2.045+99.99 -0.00    -0.326 N 
ATOM     73  N11 UNL     1      15.981   0.618  -0.714 +2.35 -0.00    -0.354 N 
ATOM     74  N12 UNL     1      19.203   1.869   0.503 +8.37 -0.00    -0.320 N 
ATOM     75  N13 UNL     1      22.730   1.649  -0.042+99.99 -0.00    -0.354 N 
ATOM     76  N14 UNL     1      23.605   4.801   1.610 -0.03 -0.00    -0.320 N 
ATOM     77  N15 UNL     1      26.401   6.682   2.802 +1.96 -0.00    -0.354 N 
ATOM     78  N16 UNL     1      24.617   9.819   3.418 -0.31 -0.00    -0.355 N 
ATOM     79  N17 UNL     1      27.551  12.770   5.427+99.99 -0.00    -0.361 N 
ATOM     80  N18 UNL     1      31.794  13.344   5.072 -0.26 +0.00    +0.084 N 
ATOM     81  N19 UNL     1      31.051  13.631   2.273 +0.85 -0.00    -0.360 N 
ATOM     82  N20 UNL     1      28.923  11.255   0.075+45.23 -0.00    -0.052 N 
ATOM     83  N21 UNL     1      27.993   7.500  -0.537 -0.10 -0.00    -0.401 N 
ATOM     84  O1  UNL     1       0.222  -1.054  11.346+99.99+99.99    -0.264 OA
ATOM     85  O2  UNL     1       5.865  -0.173   7.037+99.99 -0.00    -0.264 OA
ATOM     86  O3  UNL     1       7.676   1.138   1.247 -0.20 -0.00    -0.264 OA
ATOM     87  O4  UNL     1      12.059   1.284   0.886+10.41 -0.00    -0.273 OA
ATOM     88  O5  UNL     1      18.847   0.205  -1.065+99.99 -0.00    -0.266 OA
ATOM     89  O6  UNL     1      25.007   3.020   1.162+45.61 -0.00    -0.266 OA
ATOM     90  O7  UNL     1      26.841   9.584   2.973 -0.41 -0.00    -0.266 OA
ATOM     91  O8  UNL     1      27.067  12.672   3.190+99.99 -0.00    -0.274 OA
ATOM     92  O9  UNL     1      29.669  14.092   0.498+99.99 -0.00    -0.272 OA
ATOM     93  O10 UNL     1      30.428   9.177  -2.914 -0.15 -0.00    -0.650 OA
ATOM     94  O11 UNL     1      31.827   8.128  -1.520 +0.08 -0.00    -0.776 OA
ATOM     95  O12 UNL     1      26.826   5.947  -3.295+77.35 -0.00    -0.649 OA
ATOM     96  O13 UNL     1      26.063   8.015  -2.959+99.99 -0.00    -0.775 OA
ATOM     97  O14 UNL     1      31.758  10.901  -0.953 -0.47 -0.00    -0.649 OA
ATOM     98  O15 UNL     1      31.409  12.463  -2.520+99.99 -0.00    -0.775 OA
ATOM     99  H71 UNL     1      -0.069  -0.292   8.272+99.99+99.99    +0.170 HD
ATOM    100  H72 UNL     1       2.992   0.206   5.727 +0.08 +0.00    +0.170 HD
ATOM    101  H73 UNL     1       8.160   0.333   4.263+99.99 +0.00    +0.162 HD
ATOM    102  H74 UNL     1      14.378   2.140   2.917 +1.51 +0.00    +0.169 HD
ATOM    103  H75 UNL     1      18.733   2.536   1.093 +0.17 +0.00    +0.169 HD
ATOM    104  H76 UNL     1      22.666   5.143   1.474 +0.13 +0.00    +0.169 HD
ATOM    105  H77 UNL     1      23.735   9.337   3.530 +0.13 +0.00    +0.162 HD
ATOM    106  H78 UNL     1      27.130  12.797   6.349+64.39 +0.00    +0.162 HD
ATOM    107  H79 UNL     1      31.160  12.994   3.060 +0.09 +0.00    +0.162 HD
ATOM    108  H80 UNL     1      32.226   9.029  -1.554 +0.05 +0.00    +0.167 HD
ATOM    109  H81 UNL     1      25.975   7.868  -3.926+99.99 +0.00    +0.167 HD
ATOM    110  H82 UNL     1      32.372  12.311  -2.632 +1.76 +0.00    +0.167 HD
ENDROOT
TORSDOF 41
TER
