USER    Run = 1
USER    DPF = ligand_355_receptor.dpf
USER  
USER    Estimated Free Energy of Binding    =   -8.48 kcal/mol  [=(1)+(2)+(3)-(4)]
USER    Estimated Inhibition Constant, Ki   =  607.76 nM (nanomolar)  [Temperature = 298.15 K]
USER    
USER    (1) Final Intermolecular Energy     =   -9.67 kcal/mol
USER        vdW + Hbond + desolv Energy     =   -9.67 kcal/mol
USER        Electrostatic Energy            =   +0.00 kcal/mol
USER    (2) Final Total Internal Energy     =   -2.91 kcal/mol
USER    (3) Torsional Free Energy           =   +1.19 kcal/mol
USER    (4) Unbound System's Energy  [=(2)] =   -2.91 kcal/mol
USER    
USER    
USER    NEWDPF move ligand_355.pdbqt
USER    NEWDPF about 0.000000 0.000000 0.000000
USER    NEWDPF tran0 18.486693 6.333332 3.251321
USER    NEWDPF quaternion0 -0.041695 0.764061 -0.640965 -0.060300
USER    NEWDPF axisangle0 -0.041771 0.765454 -0.642134 -173.085952
USER    NEWDPF quat0 -0.041771 0.765454 -0.642134 -173.085952
USER    NEWDPF dihe0 -17.81 -101.99 177.08 -115.50 18.78 -76.00 135.83 -180.00 -87.17 175.18 73.57 112.37 179.91 
USER  keepresnum = 1 
USER  
REMARK  13 active torsions:
REMARK  status: ('A' for Active; 'I' for Inactive)
REMARK    1  A    between atoms: C3_3  and  N8_36 
REMARK    2  A    between atoms: C5_5  and  C6_6 
REMARK       I    between atoms: C6_6  and  N2_28 
REMARK    3  A    between atoms: C7_7  and  N2_28 
REMARK    4  A    between atoms: C8_8  and  C10_10 
REMARK       I    between atoms: C10_10  and  N5_32 
REMARK    5  A    between atoms: C11_11  and  C12_12 
REMARK    6  A    between atoms: C11_11  and  N5_32 
REMARK    7  A    between atoms: C12_12  and  C13_13 
REMARK    8  A    between atoms: C13_13  and  N7_35 
REMARK    9  A    between atoms: C15_15  and  C16_16 
REMARK       I    between atoms: C15_15  and  N8_36 
REMARK   10  A    between atoms: C18_18  and  N10_38 
REMARK   11  A    between atoms: C21_21  and  C22_22 
REMARK       I    between atoms: C21_21  and  N10_38 
REMARK   12  A    between atoms: C23_23  and  N14_44 
REMARK   13  A    between atoms: C24_24  and  C25_25 
REMARK       I    between atoms: C24_24  and  N14_44 
USER                              x       y       z     vdW  Elec       q    Type
USER                           _______ _______ _______ _____ _____    ______ ____
ROOT
ATOM      1  C1  UNL     1      19.653  11.606   2.386 -0.24 +0.00    +0.156 C 
ATOM      2  C2  UNL     1      17.813  10.002   2.868 -0.37 +0.00    +0.120 A 
ATOM      3  C3  UNL     1      17.695   8.696   3.277 -0.50 +0.00    +0.053 A 
ATOM      4  C4  UNL     1      19.008   8.205   3.460 -0.24 +0.00    +0.066 A 
ATOM      5  C5  UNL     1      19.918   9.214   3.152 -0.17 +0.00    +0.105 A 
ATOM      6  N1  UNL     1      19.149  10.310   2.793 -0.13 -0.00    -0.354 N 
ENDROOT
BRANCH   3   7
ATOM      7  N8  UNL     1      16.477   8.075   3.458 -0.31 -0.00    -0.320 N 
ATOM      8  C15 UNL     1      15.243   8.682   3.320 -0.32 +0.00    +0.273 C 
ATOM      9  O3  UNL     1      15.061   9.873   3.091 -0.12 -0.00    -0.266 OA
ATOM     10  H26 UNL     1      16.500   7.123   3.796 +0.05 +0.00    +0.169 HD
BRANCH   8  11
ATOM     11  C16 UNL     1      14.141   7.758   3.516 -0.37 +0.00    +0.105 A 
ATOM     12  C17 UNL     1      13.175   7.405   2.584 -0.07 +0.00    +0.066 A 
ATOM     13  C18 UNL     1      12.279   6.497   3.192 -0.22 +0.00    +0.053 A 
ATOM     14  C19 UNL     1      12.735   6.279   4.470 -0.22 +0.00    +0.120 A 
ATOM     15  N9  UNL     1      13.881   7.013   4.648 -0.23 -0.00    -0.354 N 
ATOM     16  C20 UNL     1      14.719   6.929   5.827 -0.13 +0.00    +0.156 C 
BRANCH  13  17
ATOM     17  N10 UNL     1      11.151   5.885   2.691 -0.11 -0.00    -0.319 N 
ATOM     18  C21 UNL     1       9.872   6.402   2.715 -0.17 +0.00    +0.292 C 
ATOM     19  O4  UNL     1       9.529   7.478   3.194 -0.28 -0.00    -0.264 OA
ATOM     20  H27 UNL     1      11.257   4.972   2.253 -0.40 +0.00    +0.169 HD
BRANCH  18  21
ATOM     21  C22 UNL     1       8.921   5.515   2.095 -0.09 +0.00    +0.204 A 
ATOM     22  N11 UNL     1       7.631   5.746   1.947 -0.11 -0.00    -0.168 N 
ATOM     23  C23 UNL     1       7.177   4.625   1.322 +0.14 +0.00    +0.701 A 
ATOM     24  H11 UNL     1       7.100   6.569   2.233 +0.09 +0.00    +0.186 HD
ATOM     25  N12 UNL     1       8.114   3.709   1.062 -0.10 -0.00    -0.130 N 
ATOM     26  N13 UNL     1       9.215   4.297   1.566 +0.00 -0.00    -0.266 N 
ATOM     27  H12 UNL     1       8.020   2.803   0.602 +0.08 +0.00    +0.205 HD
ATOM     28  H28 UNL     1      10.116   3.832   1.523 -0.37 +0.00    +0.189 HD
BRANCH  23  29
ATOM     29  N14 UNL     1       5.879   4.418   0.964 -0.09 -0.00    -0.153 N 
ATOM     30  C24 UNL     1       5.428   3.331   0.256 -0.05 +0.00    +0.276 C 
ATOM     31  O5  UNL     1       6.101   2.405  -0.185 -0.05 -0.00    -0.266 OA
ATOM     32  H29 UNL     1       5.260   5.167   1.232 +0.06 +0.00    +0.187 HD
BRANCH  30  33
ATOM     33  C25 UNL     1       3.947   3.371   0.010 -0.12 +0.00    +0.070 C 
ATOM     34  C26 UNL     1       3.077   3.270   1.028 -0.10 +0.00    +0.037 C 
ATOM     35 BR1  UNL     1       3.376   3.485  -1.764 -0.26 -0.00    -0.046 Br
ENDBRANCH  30  33
ENDBRANCH  23  29
ENDBRANCH  18  21
ENDBRANCH  13  17
ENDBRANCH   8  11
ENDBRANCH   3   7
BRANCH   5  36
ATOM     36  C6  UNL     1      21.380   9.203   3.183 -0.22 +0.00    +0.274 C 
ATOM     37  N2  UNL     1      21.967   8.622   2.084 +0.01 -0.00    -0.306 N 
ATOM     38  H21 UNL     1      21.410   8.275   1.321 +0.38 +0.00    +0.170 HD
ATOM     39  O1  UNL     1      22.011   9.687   4.120 -0.18 -0.00    -0.266 OA
BRANCH  37  40
ATOM     40  C7  UNL     1      23.315   8.474   1.877 -0.34 +0.00    +0.125 A 
ATOM     41  C9  UNL     1      24.013   7.843   0.831 -0.38 +0.00    +0.086 A 
ATOM     42  C8  UNL     1      25.359   7.960   1.138 -0.33 +0.00    +0.121 A 
ATOM     43  N4  UNL     1      25.381   8.709   2.286 -0.27 -0.00    -0.290 N 
ATOM     44  C14 UNL     1      26.528   9.263   2.967 -0.37 +0.00    +0.178 C 
ATOM     45  N3  UNL     1      24.157   8.987   2.775 -0.27 -0.00    -0.283 N 
ATOM     46  H3  UNL     1      23.927   9.479   3.638 +0.15 +0.00    +0.189 HD
BRANCH  42  47
ATOM     47  C10 UNL     1      26.474   7.455   0.375 -0.25 +0.00    +0.269 C 
ATOM     48  N5  UNL     1      26.138   6.600  -0.656 -0.14 -0.00    -0.355 N 
ATOM     49  H22 UNL     1      25.187   6.681  -1.001 +0.11 +0.00    +0.162 HD
ATOM     50  O2  UNL     1      27.634   7.795   0.586 -0.26 -0.00    -0.266 OA
BRANCH  48  51
ATOM     51  C11 UNL     1      27.131   6.218  -1.647 -0.27 +0.00    +0.130 C 
BRANCH  51  52
ATOM     52  C12 UNL     1      28.050   5.107  -1.156 -0.24 +0.00    +0.089 C 
BRANCH  52  53
ATOM     53  C13 UNL     1      27.374   3.761  -1.286 -0.30 +0.00    +0.049 C 
ATOM     54  N6  UNL     1      28.056   2.688  -1.523 -0.05 -0.00    -0.393 N 
ATOM     55  H23 UNL     1      29.049   2.913  -1.641 +0.06 +0.00    +0.157 HD
ATOM     56  H6  UNL     1      27.660   1.750  -1.584 -0.45 +0.00    +0.157 HD
BRANCH  53  57
ATOM     57  N7  UNL     1      26.029   3.658  -1.123 -0.68 -0.00    -0.293 NA
ATOM     58  H24 UNL     1      25.515   4.164  -1.840 +0.06 +0.00    +0.125 HD
ATOM     59  H25 UNL     1      25.657   3.798  -0.192 +0.06 +0.00    +0.125 HD
ENDBRANCH  53  57
ENDBRANCH  52  53
ENDBRANCH  51  52
ENDBRANCH  48  51
ENDBRANCH  42  47
ENDBRANCH  37  40
ENDBRANCH   5  36
TORSDOF 13
TER
