USER    Run = 1
USER    DPF = ligand_222_receptor.dpf
USER  
USER    Estimated Free Energy of Binding    = +210.13 kcal/mol  [=(1)+(2)+(3)-(4)]
USER    
USER    (1) Final Intermolecular Energy     = +208.94 kcal/mol
USER        vdW + Hbond + desolv Energy     = +208.94 kcal/mol
USER        Electrostatic Energy            =   +0.00 kcal/mol
USER    (2) Final Total Internal Energy     =   +8.98 kcal/mol
USER    (3) Torsional Free Energy           =   +1.19 kcal/mol
USER    (4) Unbound System's Energy  [=(2)] =   +8.98 kcal/mol
USER    
USER    
USER    NEWDPF move ligand_222.pdbqt
USER    NEWDPF about 0.000000 0.000000 0.000000
USER    NEWDPF tran0 18.087981 7.179378 -0.052701
USER    NEWDPF quaternion0 0.661749 0.285892 -0.179920 -0.669315
USER    NEWDPF axisangle0 0.890670 0.384791 -0.242161 -95.971563
USER    NEWDPF quat0 0.890670 0.384791 -0.242161 -95.971563
USER    NEWDPF dihe0 -180.00 -177.62 54.20 -141.94 -19.56 167.39 148.54 -40.98 -112.49 56.07 -5.67 77.94 -165.51 -179.91 -16.64 115.38 32.51 45.97 155.56 180.00 151.40 -47.29 -180.00 35.07 
USER  keepresnum = 1 
USER  
REMARK  24 active torsions:
REMARK  status: ('A' for Active; 'I' for Inactive)
REMARK    1  A    between atoms: C2_2  and  C3_3 
REMARK    2  A    between atoms: C2_2  and  C12_12 
REMARK    3  A    between atoms: C3_3  and  C4_4 
REMARK       I    between atoms: C12_12  and  N2_58 
REMARK    4  A    between atoms: C13_13  and  N2_58 
REMARK    5  A    between atoms: C15_15  and  C53_53 
REMARK    6  A    between atoms: C17_17  and  C21_21 
REMARK    7  A    between atoms: C18_18  and  S1_69 
REMARK    8  A    between atoms: C19_19  and  C20_20 
REMARK    9  A    between atoms: C19_19  and  S1_69 
REMARK   10  A    between atoms: C20_20  and  N3_59 
REMARK   11  A    between atoms: C21_21  and  C22_22 
REMARK   12  A    between atoms: C22_22  and  C23_23 
REMARK   13  A    between atoms: C25_25  and  C29_29 
REMARK       I    between atoms: C29_29  and  N4_60 
REMARK   14  A    between atoms: C30_30  and  N4_60 
REMARK   15  A    between atoms: C31_31  and  S2_70 
REMARK   16  A    between atoms: C32_32  and  N5_61 
REMARK   17  A    between atoms: C34_34  and  C36_36 
REMARK   18  A    between atoms: C40_40  and  C41_41 
REMARK       I    between atoms: C40_40  and  N5_61 
REMARK   19  A    between atoms: C41_41  and  C42_42 
REMARK   20  A    between atoms: C41_41  and  N7_63 
REMARK   21  A    between atoms: C42_42  and  C43_43 
REMARK   22  A    between atoms: C51_51  and  C52_52 
REMARK   23  A    between atoms: C51_51  and  S2_70 
REMARK   24  A    between atoms: C52_52  and  N8_64 
USER                              x       y       z     vdW  Elec       q    Type
USER                           _______ _______ _______ _____ _____    ______ ____
ROOT
ATOM      1  C23 UNL     1      19.904  11.577   0.566 -0.63 +0.00    +0.011 A 
ATOM      2  C24 UNL     1      19.010  10.731   1.222 -0.50 +0.00    +0.032 A 
ATOM      3  C25 UNL     1      17.633  10.944   1.118 -0.50 +0.00    +0.033 A 
ATOM      4  C26 UNL     1      17.160  12.072   0.434 +0.95 +0.00    +0.017 A 
ATOM      5  C27 UNL     1      18.061  12.952  -0.176+14.45 +0.00    +0.002 A 
ATOM      6  C28 UNL     1      19.434  12.699  -0.122 +2.26 +0.00    +0.015 A 
ENDROOT
BRANCH   3   7
ATOM      7  C29 UNL     1      16.721   9.934   1.730 -0.35 +0.00    +0.256 C 
ATOM      8  N4  UNL     1      15.834   9.326   0.851 -0.07 -0.00    -0.322 N 
ATOM      9  H60 UNL     1      16.183   9.254  -0.097 +0.07 +0.00    +0.169 HD
ATOM     10  O3  UNL     1      16.878   9.625   2.907 -0.30 -0.00    -0.267 OA
BRANCH   8  11
ATOM     11  C30 UNL     1      14.937   8.304   1.256 +9.44 +0.00    +0.054 A 
ATOM     12  C31 UNL     1      14.821   7.816   2.571 +1.29 +0.00    +0.054 A 
ATOM     13  C32 UNL     1      13.996   6.693   2.820 +6.92 +0.00    +0.054 A 
ATOM     14  C33 UNL     1      13.232   6.147   1.780 +6.13 +0.00    +0.039 A 
ATOM     15  C34 UNL     1      13.254   6.685   0.483 +0.54 -0.00    -0.046 A 
ATOM     16  C35 UNL     1      14.120   7.770   0.247 +6.30 +0.00    +0.039 A 
BRANCH  12  17
ATOM     17  S2  UNL     1      15.549   8.644   4.013 -0.60 -0.00    -0.124 SA
BRANCH  17  18
ATOM     18  C51 UNL     1      14.034   9.068   4.957 +1.04 +0.00    +0.109 C 
BRANCH  18  19
ATOM     19  C52 UNL     1      12.773   8.296   4.537 -0.16 +0.00    +0.277 C 
BRANCH  19  20
ATOM     20  N8  UNL     1      12.058   8.908   3.416 +0.08 +0.00    +0.079 N 
ATOM     21  H65 UNL     1      12.591   9.709   3.075 -0.16 +0.00    +0.312 HD
ATOM     22  H66 UNL     1      12.041   8.241   2.643 +0.02 +0.00    +0.312 HD
ENDBRANCH  19  20
ENDBRANCH  18  19
ENDBRANCH  17  18
ENDBRANCH  12  17
BRANCH  13  23
ATOM     23  N5  UNL     1      14.016   6.140   4.126 +0.77 -0.00    -0.324 N 
ATOM     24  C40 UNL     1      15.006   6.225   5.082 +4.40 +0.00    +0.255 C 
ATOM     25  O4  UNL     1      16.172   6.566   4.877 +1.92 -0.00    -0.271 OA
ATOM     26  H61 UNL     1      13.133   5.712   4.393 +0.11 +0.00    +0.169 HD
BRANCH  24  27
ATOM     27  C41 UNL     1      14.542   5.767   6.491 +0.33 +0.00    +0.313 C 
BRANCH  27  28
ATOM     28  C42 UNL     1      13.025   5.941   6.718 -0.47 +0.00    +0.086 C 
BRANCH  28  29
ATOM     29  C43 UNL     1      12.316   4.737   7.270 -0.48 -0.00    -0.028 A 
ATOM     30  C44 UNL     1      12.892   3.531   7.621 +0.21 +0.00    +0.096 A 
ATOM     31  N6  UNL     1      11.915   2.710   8.112 +1.67 -0.00    -0.365 N 
ATOM     32  C45 UNL     1      10.695   3.340   8.065 -0.02 +0.00    +0.042 A 
ATOM     33  H62 UNL     1      12.061   1.771   8.455 +0.34 +0.00    +0.165 HD
ATOM     34  C46 UNL     1       9.430   2.886   8.459 +0.09 +0.00    +0.030 A 
ATOM     35  C50 UNL     1      10.908   4.605   7.519 -0.44 -0.00    -0.002 A 
ATOM     36  C47 UNL     1       8.345   3.751   8.287 -0.46 +0.00    +0.002 A 
ATOM     37  C48 UNL     1       8.520   5.014   7.731 -0.49 +0.00    +0.001 A 
ATOM     38  C49 UNL     1       9.792   5.448   7.337 -0.31 +0.00    +0.014 A 
ENDBRANCH  28  29
ENDBRANCH  27  28
BRANCH  27  39
ATOM     39  N7  UNL     1      15.344   6.467   7.530 +0.43 +0.00    +0.092 N 
ATOM     40  H63 UNL     1      14.687   6.794   8.245 +0.23 +0.00    +0.313 HD
ATOM     41  H64 UNL     1      15.872   5.743   8.026 -0.12 +0.00    +0.313 HD
ENDBRANCH  27  39
ENDBRANCH  24  27
ENDBRANCH  13  23
BRANCH  15  42
ATOM     42  C36 UNL     1      12.414   6.103  -0.670 -0.46 -0.00    -0.024 C 
ATOM     43  C37 UNL     1      13.284   6.001  -1.940 +3.60 +0.00    +0.019 C 
ATOM     44  C38 UNL     1      11.849   4.692  -0.387 +0.83 +0.00    +0.019 C 
ATOM     45  C39 UNL     1      11.205   7.023  -0.952 -0.32 +0.00    +0.019 C 
ENDBRANCH  15  42
ENDBRANCH   8  11
ENDBRANCH   3   7
BRANCH   1  46
ATOM     46  C22 UNL     1      21.345  11.238   0.610 +0.83 +0.00    +0.163 C 
ATOM     47  O2  UNL     1      21.969  11.183  -0.447 -0.33 -0.00    -0.292 OA
BRANCH  46  48
ATOM     48  C21 UNL     1      21.980  10.957   1.958+23.62 +0.00    +0.123 C 
BRANCH  48  49
ATOM     49  C17 UNL     1      21.875   9.511   2.410 -0.43 -0.00    -0.031 A 
ATOM     50  C16 UNL     1      20.716   9.130   3.118 -0.25 +0.00    +0.017 A 
ATOM     51  C15 UNL     1      20.501   7.818   3.572 +4.38 -0.00    -0.048 A 
ATOM     52  C14 UNL     1      21.464   6.855   3.232+45.85 +0.00    +0.038 A 
ATOM     53  C13 UNL     1      22.617   7.184   2.505 +6.26 +0.00    +0.052 A 
ATOM     54  C18 UNL     1      22.863   8.536   2.154 -0.39 +0.00    +0.034 A 
BRANCH  51  55
ATOM     55  C53 UNL     1      19.235   7.478   4.381 +1.24 -0.00    -0.024 C 
ATOM     56  C54 UNL     1      18.421   8.713   4.827 +3.06 +0.00    +0.019 C 
ATOM     57  C55 UNL     1      18.293   6.601   3.525 +7.15 +0.00    +0.019 C 
ATOM     58  C56 UNL     1      19.631   6.704   5.656+37.37 +0.00    +0.019 C 
ENDBRANCH  51  55
BRANCH  53  59
ATOM     59  N2  UNL     1      23.521   6.194   2.036 +3.71 -0.00    -0.326 N 
ATOM     60  C12 UNL     1      23.243   4.965   1.464 +0.40 +0.00    +0.226 C 
ATOM     61  O1  UNL     1      22.135   4.447   1.371 +7.65 -0.00    -0.273 OA
ATOM     62  H57 UNL     1      24.494   6.483   2.076 +0.14 +0.00    +0.169 HD
BRANCH  60  63
ATOM     63  C2  UNL     1      24.503   4.259   0.958 -0.30 +0.00    +0.078 C 
ATOM     64  C1  UNL     1      24.107   3.032   0.133 +3.66 +0.00    +0.020 C 
BRANCH  63  65
ATOM     65  C3  UNL     1      25.362   5.243   0.146 -0.50 +0.00    +0.054 C 
BRANCH  65  66
ATOM     66  C4  UNL     1      26.827   4.929   0.194 -0.33 -0.00    -0.029 A 
ATOM     67  C5  UNL     1      27.625   4.913   1.322+10.40 +0.00    +0.096 A 
ATOM     68  N1  UNL     1      28.898   4.584   0.945 +0.06 -0.00    -0.365 N 
ATOM     69  C6  UNL     1      28.954   4.378  -0.414 -0.20 +0.00    +0.042 A 
ATOM     70  H56 UNL     1      29.688   4.497   1.569 +0.04 +0.00    +0.165 HD
ATOM     71  C7  UNL     1      30.037   4.026  -1.229 -0.09 +0.00    +0.030 A 
ATOM     72  C11 UNL     1      27.667   4.579  -0.912 -0.28 -0.00    -0.002 A 
ATOM     73  C8  UNL     1      29.796   3.876  -2.598 -0.10 +0.00    +0.002 A 
ATOM     74  C9  UNL     1      28.521   4.067  -3.126 -0.11 +0.00    +0.001 A 
ATOM     75  C10 UNL     1      27.450   4.417  -2.296 -0.15 +0.00    +0.014 A 
ENDBRANCH  65  66
ENDBRANCH  63  65
ENDBRANCH  60  63
ENDBRANCH  53  59
BRANCH  54  76
ATOM     76  S1  UNL     1      24.393   8.995   1.315 -0.52 -0.00    -0.125 SA
BRANCH  76  77
ATOM     77  C19 UNL     1      25.644   8.809   2.649 -0.57 +0.00    +0.109 C 
BRANCH  77  78
ATOM     78  C20 UNL     1      27.086   9.204   2.305 +0.45 +0.00    +0.277 C 
BRANCH  78  79
ATOM     79  N3  UNL     1      28.081   8.200   2.686 -0.42 +0.00    +0.079 N 
ATOM     80  H58 UNL     1      28.885   8.674   3.104 -0.12 +0.00    +0.312 HD
ATOM     81  H59 UNL     1      28.438   7.725   1.857 +0.19 +0.00    +0.312 HD
ENDBRANCH  78  79
ENDBRANCH  77  78
ENDBRANCH  76  77
ENDBRANCH  54  76
ENDBRANCH  48  49
ENDBRANCH  46  48
ENDBRANCH   1  46
TORSDOF 24
TER
