USER    Run = 1
USER    DPF = ligand_485_receptor.dpf
USER  
USER    Estimated Free Energy of Binding    =  +2.14e+004 kcal/mol  [=(1)+(2)+(3)-(4)]
USER    
USER    (1) Final Intermolecular Energy     =  +2.14e+004 kcal/mol
USER        vdW + Hbond + desolv Energy     =  +2.14e+004 kcal/mol
USER        Electrostatic Energy            =   +0.00 kcal/mol
USER    (2) Final Total Internal Energy     =   +0.00 kcal/mol
USER    (3) Torsional Free Energy           =   +1.19 kcal/mol
USER    (4) Unbound System's Energy  [=(2)] =   +0.00 kcal/mol
USER    
USER    
USER    NEWDPF move ligand_485.pdbqt
USER    NEWDPF about 0.000000 0.000000 0.000000
USER    NEWDPF tran0 13.361399 7.511987 3.677013
USER    NEWDPF quaternion0 0.386283 0.179394 -0.340798 -0.838129
USER    NEWDPF axisangle0 0.708163 0.328878 -0.624776 -66.113907
USER    NEWDPF quat0 0.708163 0.328878 -0.624776 -66.113907
USER  keepresnum = 1 
USER  
REMARK  0 active torsions:
REMARK  status: ('A' for Active; 'I' for Inactive)
REMARK       I    between atoms: C2_2  and  C3_3 
REMARK       I    between atoms: C3_3  and  C5_5 
REMARK       I    between atoms: C5_5  and  C6_6 
REMARK       I    between atoms: C5_5  and  N3_78 
REMARK       I    between atoms: C6_6  and  C7_7 
REMARK       I    between atoms: C6_6  and  O5_67 
REMARK       I    between atoms: C7_7  and  C8_8 
REMARK       I    between atoms: C8_8  and  N1_76 
REMARK       I    between atoms: C12_12  and  C13_13 
REMARK       I    between atoms: C13_13  and  C14_14 
REMARK       I    between atoms: C13_13  and  O4_66 
REMARK       I    between atoms: C14_14  and  C16_16 
REMARK       I    between atoms: C16_16  and  N2_77 
REMARK       I    between atoms: C17_17  and  C19_19 
REMARK       I    between atoms: C17_17  and  N2_77 
REMARK       I    between atoms: C19_19  and  C20_20 
REMARK       I    between atoms: C19_19  and  O3_65 
REMARK       I    between atoms: C29_29  and  C30_30 
REMARK       I    between atoms: C29_29  and  N3_78 
REMARK       I    between atoms: C30_30  and  C31_31 
REMARK       I    between atoms: C30_30  and  N4_79 
REMARK       I    between atoms: C34_34  and  C35_35 
REMARK       I    between atoms: C34_34  and  N4_79 
REMARK       I    between atoms: C35_35  and  C36_36 
REMARK       I    between atoms: C35_35  and  N5_80 
REMARK       I    between atoms: C40_40  and  O9_71 
REMARK       I    between atoms: C40_40  and  N5_80 
REMARK       I    between atoms: C41_41  and  C42_42 
REMARK       I    between atoms: C41_41  and  O9_71 
REMARK       I    between atoms: C45_45  and  N6_81 
REMARK       I    between atoms: C48_48  and  C49_49 
REMARK       I    between atoms: C48_48  and  N6_81 
REMARK       I    between atoms: C49_49  and  C50_50 
REMARK       I    between atoms: C49_49  and  N7_82 
REMARK       I    between atoms: C50_50  and  C51_51 
REMARK       I    between atoms: C51_51  and  S1_85 
REMARK       I    between atoms: C53_53  and  C54_54 
REMARK       I    between atoms: C53_53  and  N7_82 
REMARK       I    between atoms: C54_54  and  N8_83 
REMARK       I    between atoms: C56_56  and  C57_57 
REMARK       I    between atoms: C56_56  and  N8_83 
REMARK       I    between atoms: C57_57  and  C58_58 
REMARK       I    between atoms: C57_57  and  N9_84 
REMARK       I    between atoms: C58_58  and  C59_59 
USER                              x       y       z     vdW  Elec       q    Type
USER                           _______ _______ _______ _____ _____    ______ ____
ROOT
ATOM      1  C1  UNL     1       9.334   7.959   2.945 -0.39 +0.00    +0.005 C 
ATOM      2  C2  UNL     1       8.127   8.221   3.835 +8.62 +0.00    +0.002 C 
ATOM      3  C3  UNL     1       7.401   6.953   4.338 +3.30 +0.00    +0.006 C 
ATOM      4  C4  UNL     1       6.094   7.390   5.009+99.99 +0.00    +0.012 C 
ATOM      5  C5  UNL     1       8.296   5.974   5.186 +0.16 +0.00    +0.119 C 
ATOM      6  C6  UNL     1       8.574   6.319   6.696 +5.42 +0.00    +0.152 C 
ATOM      7  C7  UNL     1       9.442   7.585   6.853+70.51 +0.00    +0.137 C 
ATOM      8  C8  UNL     1      10.355   7.519   8.068+99.99 +0.00    +0.222 C 
ATOM      9  C9  UNL     1      11.690   8.685   9.743+99.99 +0.00    +0.126 C 
ATOM     10  C10 UNL     1      12.212  10.094   9.939+99.99 +0.00    +0.022 C 
ATOM     11  C11 UNL     1      11.301  10.951   9.076+11.27 +0.00    +0.029 C 
ATOM     12  C12 UNL     1      10.838  10.039   7.928+12.31 +0.00    +0.117 C 
ATOM     13  C13 UNL     1      11.561  10.330   6.568+99.99 +0.00    +0.156 C 
ATOM     14  C14 UNL     1      12.778   9.436   6.225+15.70 +0.00    +0.105 C 
ATOM     15  C15 UNL     1      13.201   9.560   4.753+29.41 +0.00    +0.022 C 
ATOM     16  C16 UNL     1      13.976   9.745   7.105 +3.07 +0.00    +0.224 C 
ATOM     17  C17 UNL     1      15.614  11.463   7.814 +4.50 +0.00    +0.113 C 
ATOM     18  C18 UNL     1      15.537  12.975   8.039+99.99 +0.00    +0.035 C 
ATOM     19  C19 UNL     1      16.900  11.012   7.065+30.38 +0.00    +0.173 C 
ATOM     20  C20 UNL     1      18.162  11.248   7.871+23.08 -0.00    -0.028 A 
ATOM     21  C21 UNL     1      18.934  12.410   7.716+23.30 +0.00    +0.010 A 
ATOM     22  C22 UNL     1      20.077  12.614   8.492 +0.04 +0.00    +0.001 A 
ATOM     23  C23 UNL     1      20.462  11.660   9.430 -0.58 +0.00    +0.000 A 
ATOM     24  C24 UNL     1      19.703  10.504   9.599 +5.45 +0.00    +0.001 A 
ATOM     25  C25 UNL     1      18.560  10.299   8.825+99.99 +0.00    +0.010 A 
ATOM     26  C26 UNL     1       9.885  11.379   5.217+99.99 +0.00    +0.202 C 
ATOM     27  C27 UNL     1       7.421   6.356   8.806+10.05 +0.00    +0.202 C 
ATOM     28  C28 UNL     1       6.936   3.954   5.950 -0.20 +0.00    +0.153 C 
ATOM     29  C29 UNL     1       8.189   3.946   3.764 -0.18 +0.00    +0.243 C 
ATOM     30  C30 UNL     1       7.723   2.495   3.467 -0.04 +0.00    +0.180 C 
ATOM     31  C31 UNL     1       8.584   1.466   4.235+99.99 +0.00    +0.009 C 
ATOM     32  C32 UNL     1      10.041   1.427   3.760+99.99 +0.00    +0.012 C 
ATOM     33  C33 UNL     1       7.981   0.061   4.164+99.99 +0.00    +0.012 C 
ATOM     34  C34 UNL     1       6.884   1.654   1.262 -0.14 +0.00    +0.241 C 
ATOM     35  C35 UNL     1       6.986   1.908  -0.269 -0.08 +0.00    +0.184 C 
ATOM     36  C36 UNL     1       6.544   0.682  -1.110 -0.17 +0.00    +0.010 C 
ATOM     37  C37 UNL     1       7.348  -0.600  -0.881 +0.63 +0.00    +0.012 C 
ATOM     38  C38 UNL     1       6.489   1.015  -2.605 -0.15 +0.00    +0.012 C 
ATOM     39  C39 UNL     1       9.490   1.771  -0.674 -0.16 +0.00    +0.156 C 
ATOM     40  C40 UNL     1       8.266   3.929  -0.865 -0.01 +0.00    +0.363 C 
ATOM     41  C41 UNL     1       9.580   5.845  -1.138 -0.14 +0.00    +0.219 C 
ATOM     42  C42 UNL     1      11.033   6.227  -1.028 -0.31 -0.00    -0.034 A 
ATOM     43  C43 UNL     1      11.744   6.677  -2.144 -0.31 +0.00    +0.011 A 
ATOM     44  C44 UNL     1      13.103   6.996  -2.044+10.67 +0.00    +0.030 A 
ATOM     45  C45 UNL     1      13.775   6.862  -0.829 +0.27 +0.00    +0.034 A 
ATOM     46  C46 UNL     1      13.063   6.418   0.292 +0.07 +0.00    +0.030 A 
ATOM     47  C47 UNL     1      11.705   6.101   0.194 -0.40 +0.00    +0.011 A 
ATOM     48  C48 UNL     1      16.064   7.513  -1.625 +4.20 +0.00    +0.245 C 
ATOM     49  C49 UNL     1      17.502   7.634  -1.076+15.01 +0.00    +0.177 C 
ATOM     50  C50 UNL     1      18.121   6.228  -0.946+99.99 +0.00    +0.047 C 
ATOM     51  C51 UNL     1      18.611   5.657  -2.276+99.99 +0.00    +0.111 C 
ATOM     52  C52 UNL     1      21.292   5.848  -1.811+54.65 +0.00    +0.127 C 
ATOM     53  C53 UNL     1      18.648   8.804   0.770+10.68 +0.00    +0.240 C 
ATOM     54  C54 UNL     1      18.492   9.723   1.997 -0.36 +0.00    +0.172 C 
ATOM     55  C55 UNL     1      17.878  11.062   1.609 -0.57 +0.00    +0.042 C 
ATOM     56  C56 UNL     1      20.028  10.272   3.875+68.23 +0.00    +0.251 C 
ATOM     57  C57 UNL     1      21.518  10.330   4.292+20.18 +0.00    +0.311 C 
ATOM     58  C58 UNL     1      22.286  11.469   3.588 +7.32 +0.00    +0.049 C 
ATOM     59  C59 UNL     1      22.066  12.945   3.992+15.25 -0.00    -0.020 C 
ATOM     60  C60 UNL     1      22.725  13.319   5.320+99.99 +0.00    +0.009 C 
ATOM     61  C61 UNL     1      20.609  13.391   3.967+99.99 +0.00    +0.009 C 
ATOM     62  C62 UNL     1      21.442   9.058   6.366+13.80 +0.00    +0.307 C 
ATOM     63  O1  UNL     1      10.537   6.463   8.677+99.99 -0.00    -0.273 OA
ATOM     64  O2  UNL     1      14.515   8.883   7.796+64.22 -0.00    -0.273 OA
ATOM     65  O3  UNL     1      16.964  11.659   5.786+50.33 -0.00    -0.389 OA
ATOM     66  O4  UNL     1      10.602  10.179   5.495+79.66 -0.00    -0.388 OA
ATOM     67  O5  UNL     1       7.322   6.469   7.393 +1.57 -0.00    -0.388 OA
ATOM     68  O6  UNL     1       8.896   4.527   2.926 -0.12 -0.00    -0.271 OA
ATOM     69  O7  UNL     1       5.998   0.967   1.764 -0.12 -0.00    -0.271 OA
ATOM     70  O8  UNL     1       7.264   4.633  -0.819 -0.09 -0.00    -0.238 OA
ATOM     71  O9  UNL     1       9.511   4.417  -1.091 -0.09 -0.00    -0.299 OA
ATOM     72  O10 UNL     1      15.843   7.644  -2.824+99.99 -0.00    -0.271 OA
ATOM     73  O11 UNL     1      20.339   5.968  -4.301+99.99 -0.00    -0.258 OA
ATOM     74  O12 UNL     1      19.755   8.500   0.324+99.99 -0.00    -0.271 OA
ATOM     75  O13 UNL     1      19.094  10.528   4.635+99.99 -0.00    -0.271 OA
ATOM     76  N1  UNL     1      10.984   8.684   8.470+99.99 -0.00    -0.345 N 
ATOM     77  N2  UNL     1      14.413  11.052   7.072+14.61 -0.00    -0.354 N 
ATOM     78  N3  UNL     1       7.845   4.551   4.974 -0.10 -0.00    -0.347 N 
ATOM     79  N4  UNL     1       7.807   2.339   2.017 -0.11 -0.00    -0.346 N 
ATOM     80  N5  UNL     1       8.263   2.556  -0.654 -0.01 -0.00    -0.319 N 
ATOM     81  N6  UNL     1      15.147   7.136  -0.653 +0.48 -0.00    -0.325 N 
ATOM     82  N7  UNL     1      17.467   8.339   0.218 +0.64 -0.00    -0.346 N 
ATOM     83  N8  UNL     1      19.821   9.903   2.569 -0.17 -0.00    -0.346 N 
ATOM     84  N9  UNL     1      21.672  10.364   5.757+99.99 +0.00    +0.092 N 
ATOM     85  S1  UNL     1      20.060   6.540  -2.943+35.36 +0.00    +0.010 S 
ATOM     86  H95 UNL     1      17.785  11.310   5.367 +0.95 +0.00    +0.210 HD
ATOM     87  H96 UNL     1      14.260  11.566   6.214+99.99 +0.00    +0.163 HD
ATOM     88  H97 UNL     1       8.387   3.025   1.542 +0.06 +0.00    +0.163 HD
ATOM     89  H98 UNL     1      15.520   6.965   0.273 -0.03 +0.00    +0.169 HD
ATOM     90  H99 UNL     1      16.643   8.901   0.400 +0.11 +0.00    +0.163 HD
ATOM     91  HA0 UNL     1      20.605   9.602   1.993 +0.12 +0.00    +0.163 HD
ATOM     92  HA1 UNL     1      20.969  11.007   6.137+99.99 +0.00    +0.316 HD
ENDROOT
TORSDOF 36
TER
