USER    Run = 1
USER    DPF = ligand_357_receptor.dpf
USER  
USER    Estimated Free Energy of Binding    =  +4.67e+003 kcal/mol  [=(1)+(2)+(3)-(4)]
USER    
USER    (1) Final Intermolecular Energy     =  +4.66e+003 kcal/mol
USER        vdW + Hbond + desolv Energy     =  +4.66e+003 kcal/mol
USER        Electrostatic Energy            =   +0.00 kcal/mol
USER    (2) Final Total Internal Energy     =   +2.12 kcal/mol
USER    (3) Torsional Free Energy           =   +1.19 kcal/mol
USER    (4) Unbound System's Energy  [=(2)] =   +2.12 kcal/mol
USER    
USER    
USER    NEWDPF move ligand_357.pdbqt
USER    NEWDPF about 0.000000 0.000000 0.000000
USER    NEWDPF tran0 9.587409 12.387193 10.599686
USER    NEWDPF quaternion0 0.303664 -0.900466 0.069383 -0.303537
USER    NEWDPF axisangle0 0.318701 -0.945054 0.072819 -144.659683
USER    NEWDPF quat0 0.318701 -0.945054 0.072819 -144.659683
USER    NEWDPF dihe0 -180.00 -114.92 67.48 149.15 178.64 -179.97 -163.93 116.12 116.10 42.89 53.76 -41.67 179.87 -162.21 -7.59 157.62 -72.76 180.00 153.23 -180.00 -107.75 19.91 -114.14 -6.61 180.00 -9.90 -77.81 
USER  keepresnum = 1 
USER  
REMARK  27 active torsions:
REMARK  status: ('A' for Active; 'I' for Inactive)
REMARK    1  A    between atoms: C4_4  and  C5_5 
REMARK       I    between atoms: C5_5  and  N3_62 
REMARK    2  A    between atoms: C6_6  and  N3_62 
REMARK    3  A    between atoms: C8_8  and  C10_10 
REMARK       I    between atoms: C10_10  and  N5_64 
REMARK    4  A    between atoms: C11_11  and  N5_64 
REMARK    5  A    between atoms: C13_13  and  C15_15 
REMARK       I    between atoms: C15_15  and  N7_66 
REMARK    6  A    between atoms: C16_16  and  N7_66 
REMARK    7  A    between atoms: C18_18  and  C20_20 
REMARK       I    between atoms: C20_20  and  N9_68 
REMARK    8  A    between atoms: C21_21  and  C22_22 
REMARK    9  A    between atoms: C21_21  and  N9_68 
REMARK   10  A    between atoms: C22_22  and  C23_23 
REMARK   11  A    between atoms: C23_23  and  C24_24 
REMARK   12  A    between atoms: C23_23  and  N22_82 
REMARK       I    between atoms: C24_24  and  N10_69 
REMARK   13  A    between atoms: C25_25  and  N10_69 
REMARK   14  A    between atoms: C27_27  and  C28_28 
REMARK       I    between atoms: C28_28  and  N13_73 
REMARK   15  A    between atoms: C29_29  and  N13_73 
REMARK   16  A    between atoms: C31_31  and  C33_33 
REMARK       I    between atoms: C33_33  and  N15_75 
REMARK   17  A    between atoms: C34_34  and  N15_75 
REMARK   18  A    between atoms: C36_36  and  C38_38 
REMARK       I    between atoms: C38_38  and  N17_77 
REMARK   19  A    between atoms: C39_39  and  N17_77 
REMARK   20  A    between atoms: C41_41  and  C43_43 
REMARK       I    between atoms: C43_43  and  N19_79 
REMARK   21  A    between atoms: C44_44  and  C45_45 
REMARK   22  A    between atoms: C44_44  and  N19_79 
REMARK   23  A    between atoms: C45_45  and  C46_46 
REMARK       I    between atoms: C46_46  and  N20_80 
REMARK   24  A    between atoms: C47_47  and  C48_48 
REMARK   25  A    between atoms: C47_47  and  N20_80 
REMARK   26  A    between atoms: C48_48  and  C49_49 
REMARK   27  A    between atoms: C49_49  and  N21_81 
USER                              x       y       z     vdW  Elec       q    Type
USER                           _______ _______ _______ _____ _____    ______ ____
ROOT
ATOM      1  C25 UNL     1       6.839   7.000   3.979 +5.39 +0.00    +0.125 A 
ATOM      2  C26 UNL     1       7.114   6.070   3.007 -0.15 +0.00    +0.140 A 
ATOM      3  C27 UNL     1       8.834   7.437   3.319 -0.23 +0.00    +0.178 A 
ATOM      4  C55 UNL     1       9.124   5.648   1.572 -0.16 +0.00    +0.157 C 
ATOM      5  N11 UNL     1       8.387   6.358   2.593 -0.09 -0.00    -0.339 N 
ATOM      6  N12 UNL     1       7.895   7.835   4.170 +8.25 -0.00    -0.323 N 
ATOM      7  H12 UNL     1       7.954   8.608   4.832+47.60 +0.00    +0.169 HD
ENDROOT
BRANCH   1   8
ATOM      8  N10 UNL     1       5.655   7.083   4.671+65.06 -0.00    -0.310 N 
ATOM      9  C24 UNL     1       5.500   6.642   5.967 +2.57 +0.00    +0.254 C 
ATOM     10  O5  UNL     1       6.356   6.152   6.704 -0.18 -0.00    -0.271 OA
ATOM     11  H65 UNL     1       4.897   7.516   4.160 +1.11 +0.00    +0.170 HD
BRANCH   9  12
ATOM     12  C23 UNL     1       4.084   6.832   6.548 -0.11 +0.00    +0.276 C 
BRANCH  12  13
ATOM     13  C22 UNL     1       3.030   6.100   5.706 -0.19 +0.00    +0.062 C 
BRANCH  13  14
ATOM     14  C21 UNL     1       2.928   4.595   5.972 -0.17 +0.00    +0.125 C 
BRANCH  14  15
ATOM     15  N9  UNL     1       3.978   3.825   5.336 -0.08 -0.00    -0.356 N 
ATOM     16  C20 UNL     1       4.746   4.302   4.299 -0.10 +0.00    +0.268 C 
ATOM     17  O4  UNL     1       4.413   5.335   3.713 -0.10 -0.00    -0.266 OA
ATOM     18  H64 UNL     1       4.362   3.044   5.861 +0.03 +0.00    +0.162 HD
BRANCH  16  19
ATOM     19  C18 UNL     1       5.886   3.489   3.941 -0.17 +0.00    +0.104 A 
ATOM     20  C19 UNL     1       6.755   3.629   2.863 -0.15 +0.00    +0.066 A 
ATOM     21  C16 UNL     1       7.735   2.613   2.928 -0.21 +0.00    +0.053 A 
ATOM     22  C17 UNL     1       7.456   1.867   4.047 +3.46 +0.00    +0.120 A 
ATOM     23  N8  UNL     1       6.344   2.396   4.654 +3.42 -0.00    -0.354 N 
ATOM     24  C56 UNL     1       5.739   1.844   5.848+99.99 +0.00    +0.156 C 
BRANCH  21  25
ATOM     25  N7  UNL     1       8.800   2.345   2.093 -0.11 -0.00    -0.320 N 
ATOM     26  C15 UNL     1       8.708   1.772   0.835 -0.15 +0.00    +0.273 C 
ATOM     27  O3  UNL     1       7.649   1.403   0.331 -0.14 -0.00    -0.266 OA
ATOM     28  H63 UNL     1       9.718   2.562   2.455 -0.26 +0.00    +0.169 HD
BRANCH  26  29
ATOM     29  C13 UNL     1       9.989   1.624   0.152 -0.12 +0.00    +0.105 A 
ATOM     30  C14 UNL     1      11.194   2.289   0.366+73.46 +0.00    +0.066 A 
ATOM     31  C11 UNL     1      12.159   1.804  -0.546 +3.63 +0.00    +0.053 A 
ATOM     32  C12 UNL     1      11.532   0.858  -1.318 -0.32 +0.00    +0.120 A 
ATOM     33  N6  UNL     1      10.227   0.757  -0.901 -0.09 -0.00    -0.354 N 
ATOM     34  C57 UNL     1       9.265  -0.153  -1.489 -0.20 +0.00    +0.156 C 
BRANCH  31  35
ATOM     35  N5  UNL     1      13.486   2.150  -0.715+30.38 -0.00    -0.320 N 
ATOM     36  C10 UNL     1      14.335   1.628  -1.675+99.99 +0.00    +0.273 C 
ATOM     37  O2  UNL     1      13.988   0.799  -2.515+99.99 -0.00    -0.266 OA
ATOM     38  H62 UNL     1      13.839   2.865  -0.097+43.25 +0.00    +0.169 HD
BRANCH  36  39
ATOM     39  C8  UNL     1      15.696   2.156  -1.623+36.55 +0.00    +0.105 A 
ATOM     40  C9  UNL     1      16.660   2.046  -0.624+21.89 +0.00    +0.066 A 
ATOM     41  C6  UNL     1      17.829   2.729  -1.032+99.99 +0.00    +0.053 A 
ATOM     42  C7  UNL     1      17.573   3.241  -2.279+99.99 +0.00    +0.120 A 
ATOM     43  N4  UNL     1      16.294   2.892  -2.634+29.62 -0.00    -0.354 N 
ATOM     44  C58 UNL     1      15.680   3.267  -3.892+99.99 +0.00    +0.156 C 
BRANCH  41  45
ATOM     45  N3  UNL     1      19.031   2.899  -0.385+35.09 -0.00    -0.319 N 
ATOM     46  C5  UNL     1      20.012   3.815  -0.714+99.99 +0.00    +0.290 C 
ATOM     47  O1  UNL     1      19.952   4.619  -1.641+60.98 -0.00    -0.264 OA
ATOM     48  H61 UNL     1      19.243   2.303   0.411 -0.12 +0.00    +0.169 HD
BRANCH  46  49
ATOM     49  C4  UNL     1      21.155   3.716   0.187+99.99 +0.00    +0.176 A 
ATOM     50  N1  UNL     1      21.293   2.871   1.263 +5.22 -0.00    -0.342 N 
ATOM     51  C1  UNL     1      20.325   1.904   1.720+53.09 +0.00    +0.157 C 
ATOM     52  C2  UNL     1      22.515   3.106   1.832 +0.58 +0.00    +0.109 A 
ATOM     53  C3  UNL     1      23.081   4.098   1.070 +0.08 +0.00    +0.107 A 
ATOM     54  N2  UNL     1      22.240   4.473   0.055+22.48 -0.00    -0.346 N 
ATOM     55  H2  UNL     1      22.411   5.185  -0.654 +0.58 +0.00    +0.167 HD
ENDBRANCH  46  49
ENDBRANCH  41  45
ENDBRANCH  36  39
ENDBRANCH  31  35
ENDBRANCH  26  29
ENDBRANCH  21  25
ENDBRANCH  16  19
ENDBRANCH  14  15
ENDBRANCH  13  14
ENDBRANCH  12  13
BRANCH  12  56
ATOM     56  N22 UNL     1       4.083   6.323   7.954 +0.77 -0.00    -0.066 N 
ATOM     57  H72 UNL     1       3.296   5.677   8.105 +0.13 +0.00    +0.275 HD
ATOM     58  H73 UNL     1       4.962   5.835   8.216 +0.21 +0.00    +0.275 HD
ATOM     59  H74 UNL     1       3.930   7.089   8.623 +0.58 +0.00    +0.275 HD
ENDBRANCH  12  56
ENDBRANCH   9  12
ENDBRANCH   1   8
BRANCH   3  60
ATOM     60  C28 UNL     1      10.136   8.086   3.209 -0.18 +0.00    +0.290 C 
ATOM     61  N13 UNL     1      10.924   7.485   2.244 -0.07 -0.00    -0.319 N 
ATOM     62  H66 UNL     1      10.498   6.701   1.760 +0.09 +0.00    +0.169 HD
ATOM     63  O6  UNL     1      10.455   9.045   3.904 -0.40 -0.00    -0.264 OA
BRANCH  61  64
ATOM     64  C29 UNL     1      12.208   7.849   1.894 +6.46 +0.00    +0.053 A 
ATOM     65  C30 UNL     1      12.930   8.929   2.333+99.99 +0.00    +0.120 A 
ATOM     66  N14 UNL     1      14.166   8.897   1.740+99.99 -0.00    -0.354 N 
ATOM     67  C31 UNL     1      14.263   7.809   0.889+15.44 +0.00    +0.105 A 
ATOM     68  C54 UNL     1      15.195   9.891   1.975 +3.28 +0.00    +0.156 C 
ATOM     69  C32 UNL     1      13.044   7.143   0.992 +1.67 +0.00    +0.066 A 
BRANCH  67  70
ATOM     70  C33 UNL     1      15.450   7.485   0.100 +3.56 +0.00    +0.273 C 
ATOM     71  N15 UNL     1      16.599   8.129   0.525 -0.30 -0.00    -0.320 N 
ATOM     72  H67 UNL     1      16.553   8.695   1.358 +0.09 +0.00    +0.169 HD
ATOM     73  O7  UNL     1      15.414   6.692  -0.837 +4.28 -0.00    -0.266 OA
BRANCH  71  74
ATOM     74  C34 UNL     1      17.846   8.005  -0.058+32.09 +0.00    +0.053 A 
ATOM     75  C35 UNL     1      18.069   7.250  -1.183+99.99 +0.00    +0.120 A 
ATOM     76  N16 UNL     1      19.402   7.332  -1.500+99.99 -0.00    -0.354 N 
ATOM     77  C36 UNL     1      20.063   8.148  -0.595+99.99 +0.00    +0.105 A 
ATOM     78  C53 UNL     1      20.002   6.666  -2.638 +8.34 +0.00    +0.156 C 
ATOM     79  C37 UNL     1      19.092   8.559   0.315+88.06 +0.00    +0.066 A 
BRANCH  77  80
ATOM     80  C38 UNL     1      21.493   8.452  -0.648 +2.61 +0.00    +0.273 C 
ATOM     81  N17 UNL     1      22.278   7.408  -1.106 -0.13 -0.00    -0.320 N 
ATOM     82  H68 UNL     1      21.827   6.533  -1.327 +0.10 +0.00    +0.169 HD
ATOM     83  O8  UNL     1      21.933   9.542  -0.292 -0.29 -0.00    -0.266 OA
BRANCH  81  84
ATOM     84  C39 UNL     1      23.654   7.428  -1.251 -0.47 +0.00    +0.053 A 
ATOM     85  C40 UNL     1      24.450   6.559  -1.957 -0.44 +0.00    +0.120 A 
ATOM     86  N18 UNL     1      25.757   6.945  -1.810 -0.02 -0.00    -0.354 N 
ATOM     87  C41 UNL     1      25.825   8.106  -1.065 +5.55 +0.00    +0.104 A 
ATOM     88  C52 UNL     1      26.874   6.168  -2.307 +1.21 +0.00    +0.156 C 
ATOM     89  C42 UNL     1      24.521   8.383  -0.668 +0.04 +0.00    +0.066 A 
BRANCH  87  90
ATOM     90  C43 UNL     1      27.004   8.865  -0.714 +9.20 +0.00    +0.268 C 
ATOM     91  N19 UNL     1      28.192   8.344  -1.183 +1.03 -0.00    -0.355 N 
ATOM     92  H69 UNL     1      28.111   7.675  -1.940 +0.06 +0.00    +0.162 HD
ATOM     93  O9  UNL     1      26.970   9.924  -0.090+15.97 -0.00    -0.266 OA
BRANCH  91  94
ATOM     94  C44 UNL     1      29.434   9.093  -1.093 +5.47 +0.00    +0.132 C 
BRANCH  94  95
ATOM     95  C45 UNL     1      30.449   8.460  -0.143 -0.22 +0.00    +0.122 C 
BRANCH  95  96
ATOM     96  C46 UNL     1      29.850   7.306   0.628 -0.21 +0.00    +0.219 C 
ATOM     97  N20 UNL     1      30.650   6.771   1.606 -0.15 -0.00    -0.361 N 
ATOM     98  H70 UNL     1      31.627   7.093   1.648 +0.05 +0.00    +0.162 HD
ATOM     99  O10 UNL     1      28.704   6.893   0.434 -0.16 -0.00    -0.274 OA
BRANCH  97 100
ATOM    100  C47 UNL     1      30.321   5.548   2.303 +1.51 +0.00    +0.124 C 
BRANCH 100 101
ATOM    101  C48 UNL     1      30.792   4.285   1.585 -0.22 +0.00    +0.047 C 
BRANCH 101 102
ATOM    102  C49 UNL     1      30.034   2.991   1.886 +0.27 +0.00    +0.235 C 
BRANCH 102 103
ATOM    103  N21 UNL     1      29.383   2.358   0.684 -0.41 -0.00    -0.079 N 
ATOM    104  C50 UNL     1      28.440   3.240  -0.071 -0.18 +0.00    +0.269 C 
ATOM    105  C51 UNL     1      30.406   1.740  -0.231 -0.07 +0.00    +0.269 C 
ATOM    106  H71 UNL     1      28.847   1.537   1.044 +0.14 +0.00    +0.278 HD
ENDBRANCH 102 103
ENDBRANCH 101 102
ENDBRANCH 100 101
ENDBRANCH  97 100
ENDBRANCH  95  96
ENDBRANCH  94  95
ENDBRANCH  91  94
ENDBRANCH  87  90
ENDBRANCH  81  84
ENDBRANCH  77  80
ENDBRANCH  71  74
ENDBRANCH  67  70
ENDBRANCH  61  64
ENDBRANCH   3  60
TORSDOF 27
TER
