USER    Run = 1
USER    DPF = ligand_503_receptor.dpf
USER  
USER    Estimated Free Energy of Binding    =  +3.42e+003 kcal/mol  [=(1)+(2)+(3)-(4)]
USER    
USER    (1) Final Intermolecular Energy     =  +3.41e+003 kcal/mol
USER        vdW + Hbond + desolv Energy     =  +3.41e+003 kcal/mol
USER        Electrostatic Energy            =   +0.00 kcal/mol
USER    (2) Final Total Internal Energy     =   +0.00 kcal/mol
USER    (3) Torsional Free Energy           =   +1.19 kcal/mol
USER    (4) Unbound System's Energy  [=(2)] =   +0.00 kcal/mol
USER    
USER    
USER    NEWDPF move ligand_503.pdbqt
USER    NEWDPF about 0.000000 0.000000 0.000000
USER    NEWDPF tran0 15.424223 6.800360 1.918834
USER    NEWDPF quaternion0 -0.957254 -0.188581 -0.089240 0.200345
USER    NEWDPF axisangle0 -0.977064 -0.192483 -0.091087 156.885742
USER    NEWDPF quat0 -0.977064 -0.192483 -0.091087 156.885742
USER  keepresnum = 1 
USER  
REMARK  0 active torsions:
REMARK  status: ('A' for Active; 'I' for Inactive)
REMARK       I    between atoms: C2_2  and  O1_56 
REMARK       I    between atoms: C3_3  and  C14_14 
REMARK       I    between atoms: C5_5  and  N1_67 
REMARK       I    between atoms: C8_8  and  C9_9 
REMARK       I    between atoms: C8_8  and  N1_67 
REMARK       I    between atoms: C9_9  and  C10_10 
REMARK       I    between atoms: C9_9  and  N3_69 
REMARK       I    between atoms: C10_10  and  C11_11 
REMARK       I    between atoms: C11_11  and  C12_12 
REMARK       I    between atoms: C12_12  and  C13_13 
REMARK       I    between atoms: C13_13  and  N2_68 
REMARK       I    between atoms: C14_14  and  N4_70 
REMARK       I    between atoms: C15_15  and  C16_16 
REMARK       I    between atoms: C15_15  and  C20_20 
REMARK       I    between atoms: C15_15  and  N4_70 
REMARK       I    between atoms: C16_16  and  C17_17 
REMARK       I    between atoms: C17_17  and  C18_18 
REMARK       I    between atoms: C18_18  and  C19_19 
REMARK       I    between atoms: C19_19  and  N5_71 
REMARK       I    between atoms: C20_20  and  N6_72 
REMARK       I    between atoms: C21_21  and  N6_72 
REMARK       I    between atoms: C23_23  and  C28_28 
REMARK       I    between atoms: C24_24  and  O5_60 
REMARK       I    between atoms: C28_28  and  N7_73 
REMARK       I    between atoms: C29_29  and  C30_30 
REMARK       I    between atoms: C29_29  and  C34_34 
REMARK       I    between atoms: C29_29  and  N7_73 
REMARK       I    between atoms: C30_30  and  C31_31 
REMARK       I    between atoms: C31_31  and  C32_32 
REMARK       I    between atoms: C32_32  and  C33_33 
REMARK       I    between atoms: C33_33  and  N8_74 
REMARK       I    between atoms: C34_34  and  N9_75 
REMARK       I    between atoms: C35_35  and  N9_75 
REMARK       I    between atoms: C37_37  and  C42_42 
REMARK       I    between atoms: C38_38  and  O8_63 
REMARK       I    between atoms: C42_42  and  N10_76 
REMARK       I    between atoms: C43_43  and  C44_44 
REMARK       I    between atoms: C43_43  and  C48_48 
REMARK       I    between atoms: C43_43  and  N10_76 
REMARK       I    between atoms: C44_44  and  C45_45 
REMARK       I    between atoms: C45_45  and  C46_46 
REMARK       I    between atoms: C46_46  and  C47_47 
REMARK       I    between atoms: C47_47  and  N11_77 
REMARK       I    between atoms: C48_48  and  N12_78 
REMARK       I    between atoms: C49_49  and  N12_78 
REMARK       I    between atoms: C53_53  and  C55_55 
REMARK       I    between atoms: C55_55  and  N13_79 
USER                              x       y       z     vdW  Elec       q    Type
USER                           _______ _______ _______ _____ _____    ______ ____
ROOT
ATOM      1  C1  UNL     1      21.754   7.348  -3.383+51.02 +0.00    +0.210 C 
ATOM      2  C2  UNL     1      22.240   7.608  -1.053 +0.25 +0.00    +0.084 A 
ATOM      3  C3  UNL     1      21.989   8.256   0.173 +2.97 +0.00    +0.067 A 
ATOM      4  C4  UNL     1      22.838   8.012   1.271 -0.06 +0.00    +0.049 A 
ATOM      5  C5  UNL     1      23.922   7.136   1.175 -0.39 +0.00    +0.035 A 
ATOM      6  C6  UNL     1      24.155   6.492  -0.035 -0.47 +0.00    +0.032 A 
ATOM      7  C7  UNL     1      23.323   6.725  -1.138 -0.51 +0.00    +0.040 A 
ATOM      8  C8  UNL     1      25.861   6.198   2.468 +2.27 +0.00    +0.255 C 
ATOM      9  C9  UNL     1      26.378   6.224   3.928+35.70 +0.00    +0.309 C 
ATOM     10  C10 UNL     1      25.662   5.132   4.735+51.30 +0.00    +0.045 C 
ATOM     11  C11 UNL     1      26.097   4.990   6.199+99.99 +0.00    +0.004 C 
ATOM     12  C12 UNL     1      27.591   4.760   6.464+42.91 +0.00    +0.030 C 
ATOM     13  C13 UNL     1      28.132   3.410   5.991+83.70 +0.00    +0.267 C 
ATOM     14  C14 UNL     1      20.867   9.221   0.418 +3.14 +0.00    +0.255 C 
ATOM     15  C15 UNL     1      18.949  10.484  -0.573 +2.21 +0.00    +0.177 C 
ATOM     16  C16 UNL     1      19.546  11.904  -0.539 -0.21 +0.00    +0.035 C 
ATOM     17  C17 UNL     1      20.259  12.334  -1.829+12.80 +0.00    +0.004 C 
ATOM     18  C18 UNL     1      21.664  11.766  -2.064+99.99 +0.00    +0.030 C 
ATOM     19  C19 UNL     1      22.701  12.077  -0.984 +0.18 +0.00    +0.267 C 
ATOM     20  C20 UNL     1      17.839  10.295   0.505 -0.35 +0.00    +0.245 C 
ATOM     21  C21 UNL     1      16.745   8.413   1.763 -0.46 +0.00    +0.035 A 
ATOM     22  C22 UNL     1      15.680   9.119   2.323 -0.26 +0.00    +0.049 A 
ATOM     23  C23 UNL     1      14.778   8.486   3.197 -0.36 +0.00    +0.067 A 
ATOM     24  C24 UNL     1      14.927   7.118   3.487 +1.25 +0.00    +0.084 A 
ATOM     25  C25 UNL     1      16.001   6.415   2.937+99.99 +0.00    +0.040 A 
ATOM     26  C26 UNL     1      16.898   7.058   2.078 +4.98 +0.00    +0.032 A 
ATOM     27  C27 UNL     1      13.615   5.212   3.946+99.99 +0.00    +0.210 C 
ATOM     28  C28 UNL     1      13.654   9.311   3.729 +4.62 +0.00    +0.255 C 
ATOM     29  C29 UNL     1      11.851   9.487   5.423+99.99 +0.00    +0.177 C 
ATOM     30  C30 UNL     1      11.739   9.349   6.947 +3.17 +0.00    +0.035 C 
ATOM     31  C31 UNL     1      12.781  10.199   7.684 +0.73 +0.00    +0.004 C 
ATOM     32  C32 UNL     1      12.677  10.104   9.212 +1.08 +0.00    +0.030 C 
ATOM     33  C33 UNL     1      11.727  11.117   9.855+17.03 +0.00    +0.267 C 
ATOM     34  C34 UNL     1      10.708   8.726   4.702 +0.03 +0.00    +0.245 C 
ATOM     35  C35 UNL     1       9.875   8.437   2.347 +3.48 +0.00    +0.035 A 
ATOM     36  C36 UNL     1       9.075   7.313   2.545 -0.33 +0.00    +0.049 A 
ATOM     37  C37 UNL     1       8.373   6.725   1.475 -0.25 +0.00    +0.067 A 
ATOM     38  C38 UNL     1       8.459   7.286   0.184 -0.31 +0.00    +0.084 A 
ATOM     39  C39 UNL     1       9.258   8.420  -0.005 +8.49 +0.00    +0.040 A 
ATOM     40  C40 UNL     1       9.964   8.981   1.064+99.99 +0.00    +0.032 A 
ATOM     41  C41 UNL     1       7.889   7.214  -2.143+18.85 +0.00    +0.210 C 
ATOM     42  C42 UNL     1       7.609   5.478   1.801 -0.09 +0.00    +0.255 C 
ATOM     43  C43 UNL     1       5.993   3.740   1.031 -0.07 +0.00    +0.177 C 
ATOM     44  C44 UNL     1       4.643   3.765   0.294 -0.15 +0.00    +0.035 C 
ATOM     45  C45 UNL     1       4.730   4.089  -1.205 -0.17 +0.00    +0.004 C 
ATOM     46  C46 UNL     1       3.363   3.939  -1.882 -0.13 +0.00    +0.030 C 
ATOM     47  C47 UNL     1       3.371   4.343  -3.358 +1.86 +0.00    +0.267 C 
ATOM     48  C48 UNL     1       6.875   2.519   0.631 -0.07 +0.00    +0.245 C 
ATOM     49  C49 UNL     1       9.132   1.560   1.195 -0.27 +0.00    +0.035 A 
ATOM     50  C50 UNL     1       9.119   0.476   0.316 -0.31 +0.00    +0.029 A 
ATOM     51  C51 UNL     1      10.214  -0.392   0.241 -0.15 +0.00    +0.003 A 
ATOM     52  C52 UNL     1      11.330  -0.186   1.049+18.82 +0.00    +0.017 A 
ATOM     53  C53 UNL     1      11.352   0.893   1.938 +1.63 +0.00    +0.034 A 
ATOM     54  C54 UNL     1      10.258   1.767   2.003 +4.19 +0.00    +0.046 A 
ATOM     55  C55 UNL     1      12.526   1.160   2.807+22.55 +0.00    +0.249 C 
ATOM     56  O1  UNL     1      21.400   7.871  -2.106+10.82 -0.00    -0.355 OA
ATOM     57  O2  UNL     1      26.427   5.549   1.594 +0.86 -0.00    -0.271 OA
ATOM     58  O3  UNL     1      20.777   9.806   1.492 -0.29 -0.00    -0.268 OA
ATOM     59  O4  UNL     1      17.104  11.220   0.841 -0.35 -0.00    -0.271 OA
ATOM     60  O5  UNL     1      14.034   6.521   4.340 -0.22 -0.00    -0.355 OA
ATOM     61  O6  UNL     1      13.201  10.252   3.081+52.31 -0.00    -0.268 OA
ATOM     62  O7  UNL     1       9.984   7.922   5.283 +0.33 -0.00    -0.271 OA
ATOM     63  O8  UNL     1       7.766   6.675  -0.831 -0.04 -0.00    -0.355 OA
ATOM     64  O9  UNL     1       7.830   4.851   2.835 -0.08 -0.00    -0.268 OA
ATOM     65  O10 UNL     1       6.480   1.663  -0.156 -0.09 -0.00    -0.271 OA
ATOM     66  O11 UNL     1      12.803   2.287   3.195+99.99 -0.00    -0.268 OA
ATOM     67  N1  UNL     1      24.709   6.953   2.322 +0.36 -0.00    -0.325 N 
ATOM     68  N2  UNL     1      28.275   3.349   4.545+99.99 +0.00    +0.078 N 
ATOM     69  N3  UNL     1      26.124   7.570   4.508 +0.35 +0.00    +0.092 N 
ATOM     70  N4  UNL     1      19.941   9.404  -0.585 +2.90 -0.00    -0.344 N 
ATOM     71  N5  UNL     1      22.940  13.510  -0.848+99.99 +0.00    +0.078 N 
ATOM     72  N6  UNL     1      17.691   8.971   0.885 -0.15 -0.00    -0.325 N 
ATOM     73  N7  UNL     1      13.115   8.932   4.938 +0.60 -0.00    -0.344 N 
ATOM     74  N8  UNL     1      10.337  10.916   9.476+10.81 +0.00    +0.078 N 
ATOM     75  N9  UNL     1      10.644   9.048   3.352 +1.13 -0.00    -0.325 N 
ATOM     76  N10 UNL     1       6.708   5.007   0.875 -0.03 -0.00    -0.344 N 
ATOM     77  N11 UNL     1       4.186   3.463  -4.188 -0.10 +0.00    +0.078 N 
ATOM     78  N12 UNL     1       8.077   2.482   1.322 -0.08 -0.00    -0.325 N 
ATOM     79  N13 UNL     1      13.274   0.081   3.189+99.99 -0.00    -0.366 N 
ATOM     80  H59 UNL     1      24.471   7.481   3.162 +0.16 +0.00    +0.169 HD
ATOM     81  H60 UNL     1      28.605   2.422   4.273 -0.11 +0.00    +0.312 HD
ATOM     82  H61 UNL     1      28.995   4.000   4.235+99.99 +0.00    +0.312 HD
ATOM     83  H62 UNL     1      26.687   8.246   3.987 -0.34 +0.00    +0.313 HD
ATOM     84  H63 UNL     1      26.502   7.588   5.456 +0.10 +0.00    +0.313 HD
ATOM     85  H64 UNL     1      20.162   8.988  -1.486 +3.01 +0.00    +0.163 HD
ATOM     86  H65 UNL     1      22.098  13.962  -0.492+99.99 +0.00    +0.312 HD
ATOM     87  H66 UNL     1      23.652  13.661  -0.133 +1.30 +0.00    +0.312 HD
ATOM     88  H67 UNL     1      18.435   8.364   0.562 +0.41 +0.00    +0.169 HD
ATOM     89  H68 UNL     1      13.362   8.000   5.265 +0.12 +0.00    +0.163 HD
ATOM     90  H69 UNL     1      10.043   9.973   9.727+12.54 +0.00    +0.312 HD
ATOM     91  H70 UNL     1       9.743  11.553  10.005 +8.96 +0.00    +0.312 HD
ATOM     92  H71 UNL     1      11.304   9.766   3.047 +0.95 +0.00    +0.169 HD
ATOM     93  H72 UNL     1       6.762   5.423  -0.049 +0.00 +0.00    +0.163 HD
ATOM     94  H73 UNL     1       3.875   2.499  -4.065 +0.06 +0.00    +0.312 HD
ATOM     95  H74 UNL     1       5.153   3.477  -3.868 +0.07 +0.00    +0.312 HD
ATOM     96  H75 UNL     1       8.198   3.214   2.025 +0.07 +0.00    +0.169 HD
ATOM     97  H76 UNL     1      13.975   0.258   3.898+99.99 +0.00    +0.159 HD
ATOM     98  H77 UNL     1      12.907  -0.860   3.133 +0.46 +0.00    +0.159 HD
ENDROOT
TORSDOF 39
TER
