USER    Run = 1
USER    DPF = ligand_346_receptor.dpf
USER  
USER    Estimated Free Energy of Binding    =  +32.56 kcal/mol  [=(1)+(2)+(3)-(4)]
USER    
USER    (1) Final Intermolecular Energy     =  +31.36 kcal/mol
USER        vdW + Hbond + desolv Energy     =  +31.36 kcal/mol
USER        Electrostatic Energy            =   +0.00 kcal/mol
USER    (2) Final Total Internal Energy     =  +11.14 kcal/mol
USER    (3) Torsional Free Energy           =   +1.19 kcal/mol
USER    (4) Unbound System's Energy  [=(2)] =  +11.14 kcal/mol
USER    
USER    
USER    NEWDPF move ligand_346.pdbqt
USER    NEWDPF about 0.000000 0.000000 0.000000
USER    NEWDPF tran0 15.969936 6.774112 2.776961
USER    NEWDPF quaternion0 0.061381 0.584291 0.253144 0.768605
USER    NEWDPF axisangle0 0.095949 0.913350 0.395709 79.542393
USER    NEWDPF quat0 0.095949 0.913350 0.395709 79.542393
USER    NEWDPF dihe0 -180.00 172.08 180.00 122.74 -180.00 60.70 -163.43 80.06 -130.83 -107.61 -125.14 58.91 30.19 66.63 -61.10 90.89 168.30 23.19 -131.80 -180.00 52.09 -3.34 178.54 180.00 -180.00 57.88 -129.93 43.16 -120.36 180.00 
USER  keepresnum = 1 
USER  
REMARK  30 active torsions:
REMARK  status: ('A' for Active; 'I' for Inactive)
REMARK    1  A    between atoms: C2_2  and  C3_3 
REMARK    2  A    between atoms: C2_2  and  O14_52 
REMARK    3  A    between atoms: C3_3  and  C4_4 
REMARK    4  A    between atoms: C3_3  and  N10_63 
REMARK       I    between atoms: C4_4  and  N1_53 
REMARK    5  A    between atoms: C5_5  and  C6_6 
REMARK    6  A    between atoms: C5_5  and  C13_13 
REMARK    7  A    between atoms: C5_5  and  N1_53 
REMARK    8  A    between atoms: C6_6  and  C7_7 
REMARK    9  A    between atoms: C10_10  and  O2_40 
REMARK       I    between atoms: C13_13  and  N2_54 
REMARK   10  A    between atoms: C14_14  and  C16_16 
REMARK   11  A    between atoms: C14_14  and  N2_54 
REMARK       I    between atoms: C16_16  and  N3_55 
REMARK   12  A    between atoms: C17_17  and  C19_19 
REMARK   13  A    between atoms: C17_17  and  N3_55 
REMARK       I    between atoms: C19_19  and  N4_56 
REMARK   14  A    between atoms: C20_20  and  C21_21 
REMARK   15  A    between atoms: C20_20  and  C23_23 
REMARK   16  A    between atoms: C20_20  and  N4_56 
REMARK   17  A    between atoms: C21_21  and  O6_44 
REMARK       I    between atoms: C23_23  and  N5_57 
REMARK   18  A    between atoms: C27_27  and  C28_28 
REMARK       I    between atoms: C28_28  and  N6_58 
REMARK   19  A    between atoms: C29_29  and  C30_30 
REMARK   20  A    between atoms: C29_29  and  C34_34 
REMARK   21  A    between atoms: C29_29  and  N6_58 
REMARK   22  A    between atoms: C30_30  and  C31_31 
REMARK   23  A    between atoms: C31_31  and  C32_32 
REMARK   24  A    between atoms: C32_32  and  N7_59 
REMARK       I    between atoms: C33_33  and  N8_61 
REMARK       I    between atoms: C33_33  and  N9_62 
REMARK   25  A    between atoms: C34_34  and  O10_48 
REMARK   26  A    between atoms: C35_35  and  C36_36 
REMARK       I    between atoms: C35_35  and  N10_63 
REMARK   27  A    between atoms: C36_36  and  C37_37 
REMARK   28  A    between atoms: C36_36  and  N11_64 
REMARK   29  A    between atoms: C37_37  and  C38_38 
REMARK   30  A    between atoms: C38_38  and  O13_51 
USER                              x       y       z     vdW  Elec       q    Type
USER                           _______ _______ _______ _____ _____    ______ ____
ROOT
ATOM      1  C16 UNL     1      16.639   9.785   2.103 -0.36 +0.00    +0.240 C 
ATOM      2  O4  UNL     1      15.486  10.118   2.375 -0.28 -0.00    -0.271 OA
ATOM      3  N3  UNL     1      17.227   8.670   2.657 -0.24 -0.00    -0.346 N 
ATOM      4  H50 UNL     1      18.170   8.405   2.357 +0.11 +0.00    +0.163 HD
ENDROOT
BRANCH   3   5
ATOM      5  C17 UNL     1      16.652   7.959   3.793 -0.47 +0.00    +0.172 C 
ATOM      6  C18 UNL     1      17.400   8.229   5.093 +3.31 +0.00    +0.042 C 
BRANCH   5   7
ATOM      7  C19 UNL     1      15.159   8.324   3.926 -0.38 +0.00    +0.240 C 
ATOM      8  O5  UNL     1      14.459   8.623   2.963 -0.19 -0.00    -0.271 OA
ATOM      9  N4  UNL     1      14.676   8.294   5.220 +0.15 -0.00    -0.344 N 
ATOM     10  H51 UNL     1      15.205   7.723   5.872 +0.23 +0.00    +0.163 HD
BRANCH   9  11
ATOM     11  C20 UNL     1      13.228   8.218   5.456 -0.28 +0.00    +0.205 C 
BRANCH  11  12
ATOM     12  C21 UNL     1      12.883   9.033   6.731 +0.39 +0.00    +0.146 C 
ATOM     13  C22 UNL     1      13.751  10.272   6.927 +4.58 +0.00    +0.042 C 
BRANCH  12  14
ATOM     14  O6  UNL     1      11.498   9.456   6.664 +3.58 -0.00    -0.393 OA
ATOM     15  H44 UNL     1      10.995   8.872   7.264 +0.16 +0.00    +0.210 HD
ENDBRANCH  12  14
ENDBRANCH  11  12
BRANCH  11  16
ATOM     16  C23 UNL     1      12.272   8.603   4.301 +0.20 +0.00    +0.245 C 
ATOM     17  O7  UNL     1      12.673   9.442   3.480 +2.15 -0.00    -0.271 OA
ATOM     18  N5  UNL     1      11.090   7.934   4.064 -0.21 -0.00    -0.337 N 
ATOM     19  C24 UNL     1      10.312   8.282   2.884 +0.66 +0.00    +0.127 C 
ATOM     20  C27 UNL     1      10.338   7.015   4.925 -0.24 +0.00    +0.179 C 
ATOM     21  C25 UNL     1       9.160   7.293   2.861 -0.40 +0.00    +0.022 C 
ATOM     22  C26 UNL     1       8.919   7.033   4.342 +0.23 +0.00    +0.037 C 
BRANCH  20  23
ATOM     23  C28 UNL     1      10.883   5.575   4.891 -0.20 +0.00    +0.241 C 
ATOM     24  O8  UNL     1      11.634   5.163   4.011 -0.03 -0.00    -0.271 OA
ATOM     25  N6  UNL     1      10.448   4.777   5.930 -0.11 -0.00    -0.345 N 
ATOM     26  H52 UNL     1       9.629   5.061   6.461 +0.11 +0.00    +0.163 HD
BRANCH  25  27
ATOM     27  C29 UNL     1      10.813   3.357   6.012 -0.38 +0.00    +0.182 C 
BRANCH  27  28
ATOM     28  C30 UNL     1      10.021   2.509   5.005 +1.16 +0.00    +0.038 C 
BRANCH  28  29
ATOM     29  C31 UNL     1       8.665   3.123   4.648 -0.24 +0.00    +0.022 C 
BRANCH  29  30
ATOM     30  C32 UNL     1       8.367   4.411   5.409 -0.31 +0.00    +0.121 C 
BRANCH  30  31
ATOM     31  N7  UNL     1       7.201   5.072   4.837 -0.07 -0.00    -0.372 N 
ATOM     32  C33 UNL     1       6.150   5.201   5.555 -0.28 +0.00    +0.121 C 
ATOM     33  N8  UNL     1       5.071   5.837   5.048 -0.08 -0.00    -0.279 NA
ATOM     34  N9  UNL     1       5.888   4.798   6.820 -0.30 -0.00    -0.279 NA
ATOM     35  H53 UNL     1       4.695   6.522   5.692 +0.05 +0.00    +0.126 HD
ATOM     36  H54 UNL     1       5.320   6.276   4.167 +0.05 +0.00    +0.126 HD
ATOM     37  H55 UNL     1       4.935   4.467   6.917 +0.05 +0.00    +0.126 HD
ATOM     38  H56 UNL     1       6.527   4.094   7.191 +0.03 +0.00    +0.126 HD
ATOM     39  H7  UNL     1       7.222   5.427   3.882 +0.08 +0.00    +0.161 HD
ENDBRANCH  30  31
ENDBRANCH  29  30
ENDBRANCH  28  29
ENDBRANCH  27  28
BRANCH  27  40
ATOM     40  C34 UNL     1      12.312   3.182   5.752 +1.95 +0.00    +0.163 C 
ATOM     41  O9  UNL     1      12.832   2.776   4.725 +6.06 -0.00    -0.648 OA
BRANCH  40  42
ATOM     42  O10 UNL     1      13.094   3.574   6.788 +0.25 -0.00    -0.775 OA
ATOM     43  H45 UNL     1      12.453   4.005   7.394 +0.12 +0.00    +0.167 HD
ENDBRANCH  40  42
ENDBRANCH  27  40
ENDBRANCH  25  27
ENDBRANCH  20  23
ENDBRANCH  11  16
ENDBRANCH   9  11
ENDBRANCH   5   7
ENDBRANCH   3   5
BRANCH   1  44
ATOM     44  C14 UNL     1      17.520  10.539   1.082 -0.42 +0.00    +0.172 C 
ATOM     45  C15 UNL     1      17.552   9.808  -0.254 -0.46 +0.00    +0.042 C 
BRANCH  44  46
ATOM     46  N2  UNL     1      18.873  10.682   1.604 -0.19 -0.00    -0.346 N 
ATOM     47  C13 UNL     1      19.976  10.615   0.777 -0.39 +0.00    +0.241 C 
ATOM     48  O3  UNL     1      19.871  10.291  -0.405 +0.56 -0.00    -0.271 OA
ATOM     49  H49 UNL     1      18.987  11.178   2.484 +0.13 +0.00    +0.163 HD
BRANCH  47  50
ATOM     50  C5  UNL     1      21.335  10.824   1.486 +1.00 +0.00    +0.180 C 
BRANCH  50  51
ATOM     51  C6  UNL     1      21.281  10.403   2.967 -0.05 +0.00    +0.073 C 
BRANCH  51  52
ATOM     52  C7  UNL     1      22.454   9.550   3.407 -0.44 -0.00    -0.056 A 
ATOM     53  C8  UNL     1      22.995   9.677   4.696 -0.48 +0.00    +0.010 A 
ATOM     54  C9  UNL     1      24.115   8.933   5.076 +0.53 +0.00    +0.037 A 
ATOM     55  C10 UNL     1      24.685   8.046   4.169 +0.40 +0.00    +0.065 A 
ATOM     56  C11 UNL     1      24.144   7.886   2.901 +0.54 +0.00    +0.037 A 
ATOM     57  C12 UNL     1      23.035   8.639   2.518 -0.43 +0.00    +0.010 A 
BRANCH  55  58
ATOM     58  O2  UNL     1      25.796   7.322   4.492 -0.32 -0.00    -0.361 OA
ATOM     59  H43 UNL     1      26.127   6.912   3.674 +0.12 +0.00    +0.217 HD
ENDBRANCH  55  58
ENDBRANCH  51  52
ENDBRANCH  50  51
BRANCH  50  60
ATOM     60  N1  UNL     1      22.431  10.173   0.762 -0.05 -0.00    -0.346 N 
ATOM     61  C4  UNL     1      22.217   9.078  -0.052 -0.23 +0.00    +0.243 C 
ATOM     62  O1  UNL     1      21.126   8.513  -0.125 +4.89 -0.00    -0.271 OA
ATOM     63  H48 UNL     1      23.254  10.745   0.579 +0.15 +0.00    +0.163 HD
BRANCH  61  64
ATOM     64  C3  UNL     1      23.422   8.652  -0.929 -0.05 +0.00    +0.205 C 
BRANCH  64  65
ATOM     65  C2  UNL     1      22.983   7.651  -2.019 +5.81 +0.00    +0.146 C 
ATOM     66  C1  UNL     1      24.061   7.326  -3.049 +1.15 +0.00    +0.042 C 
BRANCH  65  67
ATOM     67  O14 UNL     1      22.512   6.428  -1.443 +0.03 -0.00    -0.393 OA
ATOM     68  H47 UNL     1      21.692   6.635  -0.947 +0.16 +0.00    +0.210 HD
ENDBRANCH  65  67
ENDBRANCH  64  65
BRANCH  64  69
ATOM     69  N10 UNL     1      24.487   8.119  -0.079 -0.17 -0.00    -0.344 N 
ATOM     70  C35 UNL     1      25.046   6.883  -0.317 -0.31 +0.00    +0.252 C 
ATOM     71  O11 UNL     1      24.493   6.005  -0.973 -0.34 -0.00    -0.271 OA
ATOM     72  H57 UNL     1      25.100   8.827   0.327 +0.12 +0.00    +0.163 HD
BRANCH  70  73
ATOM     73  C36 UNL     1      26.505   6.740   0.164 -0.20 +0.00    +0.318 C 
BRANCH  73  74
ATOM     74  C37 UNL     1      27.094   8.025   0.751 -0.35 +0.00    +0.155 C 
BRANCH  74  75
ATOM     75  C38 UNL     1      28.202   7.822   1.749 -0.39 +0.00    +0.141 C 
ATOM     76  O12 UNL     1      28.083   7.580   2.941 +0.23 -0.00    -0.650 OA
BRANCH  75  77
ATOM     77  O13 UNL     1      29.417   7.876   1.173 +0.05 -0.00    -0.776 OA
ATOM     78  H46 UNL     1      29.252   8.023   0.218 +0.08 +0.00    +0.167 HD
ENDBRANCH  75  77
ENDBRANCH  74  75
ENDBRANCH  73  74
BRANCH  73  79
ATOM     79  N11 UNL     1      27.277   6.153  -0.953 -0.27 +0.00    +0.092 N 
ATOM     80  H58 UNL     1      27.751   5.305  -0.622 +0.17 +0.00    +0.313 HD
ATOM     81  H59 UNL     1      26.614   5.815  -1.661 +0.19 +0.00    +0.313 HD
ENDBRANCH  73  79
ENDBRANCH  70  73
ENDBRANCH  64  69
ENDBRANCH  61  64
ENDBRANCH  50  60
ENDBRANCH  47  50
ENDBRANCH  44  46
ENDBRANCH   1  44
TORSDOF 30
TER
