USER    Run = 1
USER    DPF = ligand_466_receptor.dpf
USER  
USER    Estimated Free Energy of Binding    =  -13.47 kcal/mol  [=(1)+(2)+(3)-(4)]
USER    Estimated Inhibition Constant, Ki   =  134.00 pM (picomolar)  [Temperature = 298.15 K]
USER    
USER    (1) Final Intermolecular Energy     =  -14.66 kcal/mol
USER        vdW + Hbond + desolv Energy     =  -14.66 kcal/mol
USER        Electrostatic Energy            =   +0.00 kcal/mol
USER    (2) Final Total Internal Energy     =   -2.26 kcal/mol
USER    (3) Torsional Free Energy           =   +1.19 kcal/mol
USER    (4) Unbound System's Energy  [=(2)] =   -2.26 kcal/mol
USER    
USER    
USER    NEWDPF move ligand_466.pdbqt
USER    NEWDPF about 0.000000 0.000000 0.000000
USER    NEWDPF tran0 15.958278 8.688989 4.854367
USER    NEWDPF quaternion0 0.432240 0.205103 0.172320 -0.861050
USER    NEWDPF axisangle0 0.849995 0.403333 0.338866 -61.130683
USER    NEWDPF quat0 0.849995 0.403333 0.338866 -61.130683
USER    NEWDPF dihe0 20.75 29.61 34.02 -154.45 99.80 -41.56 -3.80 -17.17 -122.61 -162.10 -172.84 
USER  keepresnum = 1 
USER  
REMARK  11 active torsions:
REMARK  status: ('A' for Active; 'I' for Inactive)
REMARK    1  A    between atoms: C2_2  and  N1_31 
REMARK    2  A    between atoms: C2_2  and  N9_41 
REMARK    3  A    between atoms: C3_3  and  C4_4 
REMARK       I    between atoms: C3_3  and  N1_31 
REMARK    4  A    between atoms: C10_10  and  C12_12 
REMARK       I    between atoms: C12_12  and  N3_33 
REMARK    5  A    between atoms: C13_13  and  N3_33 
REMARK    6  A    between atoms: C20_20  and  C21_21 
REMARK       I    between atoms: C21_21  and  N5_35 
REMARK    7  A    between atoms: C22_22  and  C23_23 
REMARK    8  A    between atoms: C22_22  and  N5_35 
REMARK    9  A    between atoms: C23_23  and  N6_36 
REMARK   10  A    between atoms: C24_24  and  C25_25 
REMARK   11  A    between atoms: C24_24  and  N8_40 
REMARK       I    between atoms: C30_30  and  N10_43 
REMARK       I    between atoms: C30_30  and  N11_44 
USER                              x       y       z     vdW  Elec       q    Type
USER                           _______ _______ _______ _____ _____    ______ ____
ROOT
ATOM      1  C13 UNL     1      16.488   9.230   2.575 -0.46 +0.00    +0.037 A 
ATOM      2  C14 UNL     1      17.624   8.737   3.240 -0.50 +0.00    +0.059 A 
ATOM      3  C15 UNL     1      18.874   9.287   2.923 -0.40 +0.00    +0.045 A 
ATOM      4  C16 UNL     1      19.031  10.296   1.978 -0.46 -0.00    -0.007 A 
ATOM      5  C17 UNL     1      17.890  10.780   1.317 -0.50 +0.00    +0.016 A 
ATOM      6  C18 UNL     1      16.630  10.241   1.624 -0.47 +0.00    +0.030 A 
ATOM      7  C19 UNL     1      20.418  10.602   1.917 -0.44 +0.00    +0.049 A 
ATOM      8  C20 UNL     1      21.086   9.794   2.823 -0.32 +0.00    +0.102 A 
ATOM      9  N4  UNL     1      20.125   8.998   3.411 -0.08 -0.00    -0.351 N 
ATOM     10  H24 UNL     1      20.336   8.298   4.109 +0.13 +0.00    +0.166 HD
ENDROOT
BRANCH   1  11
ATOM     11  N3  UNL     1      15.251   8.647   2.926 -0.23 -0.00    -0.322 N 
ATOM     12  C12 UNL     1      14.992   7.743   3.938 -0.36 +0.00    +0.272 C 
ATOM     13  O2  UNL     1      15.819   7.288   4.718 -0.66 -0.00    -0.266 OA
ATOM     14  H23 UNL     1      14.463   8.933   2.366 -0.45 +0.00    +0.169 HD
BRANCH  12  15
ATOM     15  C10 UNL     1      13.599   7.335   4.035 -0.40 +0.00    +0.102 A 
ATOM     16  C11 UNL     1      12.849   6.749   5.042 -0.38 +0.00    +0.049 A 
ATOM     17  C6  UNL     1      11.516   6.577   4.571 -0.33 -0.00    -0.006 A 
ATOM     18  C5  UNL     1      10.340   6.045   5.137 -0.27 +0.00    +0.030 A 
ATOM     19  C7  UNL     1      11.477   7.062   3.266 -0.35 +0.00    +0.043 A 
ATOM     20  C4  UNL     1       9.159   6.026   4.373 -0.23 +0.00    +0.033 A 
ATOM     21  C9  UNL     1       9.161   6.508   3.060 -0.27 +0.00    +0.019 A 
ATOM     22  C8  UNL     1      10.319   7.040   2.482 -0.32 +0.00    +0.031 A 
ATOM     23  N2  UNL     1      12.739   7.515   2.970 -0.19 -0.00    -0.351 N 
ATOM     24  H22 UNL     1      13.024   7.924   2.089 -0.21 +0.00    +0.166 HD
BRANCH  20  25
ATOM     25  C3  UNL     1       7.888   5.473   4.918 -0.15 +0.00    +0.253 C 
ATOM     26  N1  UNL     1       7.768   5.457   6.287 -0.12 -0.00    -0.336 N 
ATOM     27  H21 UNL     1       8.404   5.969   6.876 +0.10 +0.00    +0.164 HD
ATOM     28  O1  UNL     1       7.005   5.090   4.159 -0.13 -0.00    -0.268 OA
BRANCH  26  29
ATOM     29  C2  UNL     1       6.568   5.029   6.947 -0.40 +0.00    +0.182 C 
ATOM     30  C1  UNL     1       5.479   6.093   6.850 -0.37 +0.00    +0.055 C 
BRANCH  29  31
ATOM     31  N9  UNL     1       6.151   3.835   6.230 -0.16 -0.00    -0.351 N 
ATOM     32  C30 UNL     1       5.012   3.314   6.485 -0.05 +0.00    +0.123 C 
ATOM     33  N10 UNL     1       4.615   2.216   5.802 -0.40 -0.00    -0.279 NA
ATOM     34  N11 UNL     1       4.043   3.674   7.356 -0.74 -0.00    -0.279 NA
ATOM     35  H28 UNL     1       5.252   2.038   5.032 -0.45 +0.00    +0.126 HD
ATOM     36  H29 UNL     1       3.664   2.300   5.461 +0.03 +0.00    +0.126 HD
ATOM     37  H30 UNL     1       3.576   2.872   7.764 +0.02 +0.00    +0.126 HD
ATOM     38  H31 UNL     1       4.321   4.328   8.077 +0.03 +0.00    +0.126 HD
ATOM     39  H9  UNL     1       6.763   3.415   5.530 -0.28 +0.00    +0.163 HD
ENDBRANCH  29  31
ENDBRANCH  26  29
ENDBRANCH  20  25
ENDBRANCH  12  15
ENDBRANCH   1  11
BRANCH   8  40
ATOM     40  C21 UNL     1      22.479   9.680   3.189 -0.33 +0.00    +0.268 C 
ATOM     41  N5  UNL     1      23.039   8.443   3.000 -0.11 -0.00    -0.354 N 
ATOM     42  H25 UNL     1      22.559   7.806   2.382 +0.11 +0.00    +0.162 HD
ATOM     43  O3  UNL     1      23.122  10.645   3.593 -0.24 -0.00    -0.266 OA
BRANCH  41  44
ATOM     44  C22 UNL     1      24.464   8.209   3.160 -0.25 +0.00    +0.142 C 
BRANCH  44  45
ATOM     45  C23 UNL     1      25.286   8.508   1.900 -0.44 +0.00    +0.140 C 
BRANCH  45  46
ATOM     46  N6  UNL     1      25.392   7.304   1.070 -0.11 -0.00    -0.378 N 
ATOM     47  C24 UNL     1      26.445   7.115   0.347 -0.36 +0.00    +0.100 C 
ATOM     48  H6  UNL     1      24.636   6.619   1.063 +0.12 +0.00    +0.160 HD
BRANCH  47  49
ATOM     49  C25 UNL     1      26.516   5.857  -0.493 -0.32 +0.00    +0.070 A 
ATOM     50  C26 UNL     1      25.370   5.155  -0.841 -0.47 +0.00    +0.033 A 
ATOM     51  C27 UNL     1      25.514   4.019  -1.631 -0.44 +0.00    +0.004 A 
ATOM     52  C28 UNL     1      26.784   3.631  -2.045 -0.35 +0.00    +0.017 A 
ATOM     53  C29 UNL     1      27.872   4.397  -1.650 -0.21 +0.00    +0.088 A 
ATOM     54  N7  UNL     1      27.775   5.504  -0.884 -0.08 -0.00    -0.363 N 
ATOM     55  H7  UNL     1      28.596   6.046  -0.613 +0.08 +0.00    +0.165 HD
ENDBRANCH  47  49
BRANCH  47  56
ATOM     56  N8  UNL     1      27.522   7.968   0.233 -0.19 -0.00    -0.287 NA
ATOM     57  H26 UNL     1      27.400   8.899   0.617 +0.06 +0.00    +0.125 HD
ATOM     58  H27 UNL     1      27.900   7.985  -0.715 +0.06 +0.00    +0.125 HD
ENDBRANCH  47  56
ENDBRANCH  45  46
ENDBRANCH  44  45
ENDBRANCH  41  44
ENDBRANCH   8  40
TORSDOF 11
TER
