USER    Run = 1
USER    DPF = ligand_386_receptor.dpf
USER  
USER    Estimated Free Energy of Binding    =  +6.33e+004 kcal/mol  [=(1)+(2)+(3)-(4)]
USER    
USER    (1) Final Intermolecular Energy     =  +6.33e+004 kcal/mol
USER        vdW + Hbond + desolv Energy     =  +6.33e+004 kcal/mol
USER        Electrostatic Energy            =   +0.00 kcal/mol
USER    (2) Final Total Internal Energy     =   +0.00 kcal/mol
USER    (3) Torsional Free Energy           =   +1.19 kcal/mol
USER    (4) Unbound System's Energy  [=(2)] =   +0.00 kcal/mol
USER    
USER    
USER    NEWDPF move ligand_386.pdbqt
USER    NEWDPF about 0.000000 0.000000 0.000000
USER    NEWDPF tran0 18.275475 7.755114 4.945448
USER    NEWDPF quaternion0 0.076021 -0.715040 -0.684753 -0.118540
USER    NEWDPF axisangle0 0.076561 -0.720117 -0.689615 -166.384315
USER    NEWDPF quat0 0.076561 -0.720117 -0.689615 -166.384315
USER  keepresnum = 1 
USER  
REMARK  0 active torsions:
REMARK  status: ('A' for Active; 'I' for Inactive)
REMARK       I    between atoms: C2_2  and  C3_3 
REMARK       I    between atoms: C3_3  and  C5_5 
REMARK       I    between atoms: C5_5  and  C42_42 
REMARK       I    between atoms: C5_5  and  N1_73 
REMARK       I    between atoms: C6_6  and  C7_7 
REMARK       I    between atoms: C6_6  and  N1_73 
REMARK       I    between atoms: C14_14  and  C15_15 
REMARK       I    between atoms: C14_14  and  N2_74 
REMARK       I    between atoms: C15_15  and  C16_16 
REMARK       I    between atoms: C15_15  and  N3_75 
REMARK       I    between atoms: C16_16  and  C17_17 
REMARK       I    between atoms: C17_17  and  C18_18 
REMARK       I    between atoms: C18_18  and  O4_91 
REMARK       I    between atoms: C19_19  and  C20_20 
REMARK       I    between atoms: C19_19  and  N3_75 
REMARK       I    between atoms: C20_20  and  C21_21 
REMARK       I    between atoms: C20_20  and  N4_76 
REMARK       I    between atoms: C21_21  and  C22_22 
REMARK       I    between atoms: C28_28  and  C29_29 
REMARK       I    between atoms: C28_28  and  N4_76 
REMARK       I    between atoms: C29_29  and  C30_30 
REMARK       I    between atoms: C29_29  and  N5_77 
REMARK       I    between atoms: C30_30  and  C31_31 
REMARK       I    between atoms: C31_31  and  O8_95 
REMARK       I    between atoms: C32_32  and  C33_33 
REMARK       I    between atoms: C32_32  and  N5_77 
REMARK       I    between atoms: C33_33  and  N6_78 
REMARK       I    between atoms: C34_34  and  C35_35 
REMARK       I    between atoms: C34_34  and  N6_78 
REMARK       I    between atoms: C38_38  and  N7_79 
REMARK       I    between atoms: C39_39  and  N7_79 
REMARK       I    between atoms: C39_39  and  N9_82 
REMARK       I    between atoms: C42_42  and  N10_83 
REMARK       I    between atoms: C46_46  and  C47_47 
REMARK       I    between atoms: C47_47  and  N11_84 
REMARK       I    between atoms: C48_48  and  C49_49 
REMARK       I    between atoms: C48_48  and  C52_52 
REMARK       I    between atoms: C48_48  and  N11_84 
REMARK       I    between atoms: C49_49  and  C50_50 
REMARK       I    between atoms: C50_50  and  C51_51 
REMARK       I    between atoms: C51_51  and  O14_101 
REMARK       I    between atoms: C52_52  and  N12_85 
REMARK       I    between atoms: C53_53  and  C54_54 
REMARK       I    between atoms: C53_53  and  C57_57 
REMARK       I    between atoms: C53_53  and  N12_85 
REMARK       I    between atoms: C54_54  and  C55_55 
REMARK       I    between atoms: C55_55  and  C56_56 
REMARK       I    between atoms: C56_56  and  O17_104 
REMARK       I    between atoms: C57_57  and  N13_86 
REMARK       I    between atoms: C58_58  and  C59_59 
REMARK       I    between atoms: C58_58  and  C66_66 
REMARK       I    between atoms: C58_58  and  N13_86 
REMARK       I    between atoms: C59_59  and  C60_60 
REMARK       I    between atoms: C63_63  and  O19_106 
REMARK       I    between atoms: C66_66  and  N14_87 
REMARK       I    between atoms: C67_67  and  C68_68 
REMARK       I    between atoms: C67_67  and  C72_72 
REMARK       I    between atoms: C67_67  and  N14_87 
REMARK       I    between atoms: C68_68  and  C69_69 
REMARK       I    between atoms: C72_72  and  O22_109 
USER                              x       y       z     vdW  Elec       q    Type
USER                           _______ _______ _______ _____ _____    ______ ____
ROOT
ATOM      1  C1  UNL     1      19.761  11.117   2.592 -0.09 +0.00    +0.005 C 
ATOM      2  C2  UNL     1      20.493  10.133   3.493 +5.56 +0.00    +0.002 C 
ATOM      3  C3  UNL     1      20.185   8.630   3.299 +0.00 +0.00    +0.013 C 
ATOM      4  C4  UNL     1      20.354   8.190   1.842+99.99 +0.00    +0.012 C 
ATOM      5  C5  UNL     1      18.837   8.137   3.881 -0.38 +0.00    +0.180 C 
ATOM      6  C6  UNL     1      16.828   8.243   2.414 -0.40 +0.00    +0.241 C 
ATOM      7  C7  UNL     1      15.568   9.081   2.063 +0.05 +0.00    +0.183 C 
ATOM      8  C8  UNL     1      15.937  10.340   1.236 -0.44 +0.00    +0.018 C 
ATOM      9  C9  UNL     1      14.628  11.056   0.840+11.29 +0.00    +0.009 C 
ATOM     10  C10 UNL     1      13.762  10.119  -0.024+99.99 +0.00    +0.026 C 
ATOM     11  C11 UNL     1      14.422   8.729  -0.104+58.08 +0.00    +0.088 C 
ATOM     12  C12 UNL     1      15.793   8.863  -0.790 +1.64 +0.00    +0.026 C 
ATOM     13  C13 UNL     1      16.641   9.919  -0.069 -0.08 +0.00    +0.009 C 
ATOM     14  C14 UNL     1      13.872   7.306   1.952 +7.23 +0.00    +0.243 C 
ATOM     15  C15 UNL     1      13.024   6.312   1.116 +1.76 +0.00    +0.177 C 
ATOM     16  C16 UNL     1      11.648   6.898   0.751 -0.21 +0.00    +0.045 C 
ATOM     17  C17 UNL     1      10.762   5.949  -0.060 -0.29 +0.00    +0.112 C 
ATOM     18  C18 UNL     1      11.307   5.702  -1.439 -0.26 +0.00    +0.139 C 
ATOM     19  C19 UNL     1      12.158   4.725   2.875+99.99 +0.00    +0.241 C 
ATOM     20  C20 UNL     1      12.564   3.467   3.670+99.99 +0.00    +0.180 C 
ATOM     21  C21 UNL     1      11.409   2.458   3.814 +4.68 +0.00    +0.073 C 
ATOM     22  C22 UNL     1      10.532   2.506   5.047 +0.32 -0.00    -0.056 A 
ATOM     23  C23 UNL     1       9.666   3.576   5.300 -0.42 +0.00    +0.007 A 
ATOM     24  C24 UNL     1       8.818   3.563   6.411 -0.43 +0.00    +0.001 A 
ATOM     25  C25 UNL     1       8.809   2.470   7.274 +2.75 +0.00    +0.000 A 
ATOM     26  C26 UNL     1       9.662   1.397   7.036+99.99 +0.00    +0.001 A 
ATOM     27  C27 UNL     1      10.521   1.417   5.934+99.99 +0.00    +0.007 A 
ATOM     28  C28 UNL     1      14.213   3.214   5.503+95.53 +0.00    +0.241 C 
ATOM     29  C29 UNL     1      14.769   3.823   6.811 +9.08 +0.00    +0.186 C 
ATOM     30  C30 UNL     1      14.078   3.187   8.017+18.05 +0.00    +0.144 C 
ATOM     31  C31 UNL     1      12.638   3.601   8.112 -0.31 +0.00    +0.141 C 
ATOM     32  C32 UNL     1      15.590   6.112   6.244+16.51 +0.00    +0.236 C 
ATOM     33  C33 UNL     1      15.178   7.589   6.190+27.65 +0.00    +0.225 C 
ATOM     34  C34 UNL     1      12.824   7.944   6.892 -0.33 +0.00    +0.252 C 
ATOM     35  C35 UNL     1      11.390   7.869   6.496 -0.34 +0.00    +0.032 A 
ATOM     36  C36 UNL     1      10.954   8.059   5.184 -0.39 +0.00    +0.019 A 
ATOM     37  C37 UNL     1       9.599   7.899   4.866 +3.21 +0.00    +0.030 A 
ATOM     38  C38 UNL     1       8.644   7.572   5.844+99.99 +0.00    +0.034 A 
ATOM     39  C39 UNL     1       6.224   6.997   6.156+17.06 +0.00    +0.148 C 
ATOM     40  C40 UNL     1       9.096   7.399   7.154+85.34 +0.00    +0.030 A 
ATOM     41  C41 UNL     1      10.449   7.557   7.481+59.62 +0.00    +0.019 A 
ATOM     42  C42 UNL     1      18.773   8.310   5.419+71.20 +0.00    +0.243 C 
ATOM     43  C43 UNL     1      20.023   6.147   5.773+74.46 +0.00    +0.127 C 
ATOM     44  C44 UNL     1      20.535   5.484   7.041 +5.72 +0.00    +0.022 C 
ATOM     45  C45 UNL     1      19.526   5.942   8.086 +3.38 +0.00    +0.037 C 
ATOM     46  C46 UNL     1      19.243   7.390   7.679+99.99 +0.00    +0.179 C 
ATOM     47  C47 UNL     1      20.177   8.396   8.388+45.15 +0.00    +0.241 C 
ATOM     48  C48 UNL     1      20.770  10.819   8.536 -0.44 +0.00    +0.177 C 
ATOM     49  C49 UNL     1      20.591  10.988  10.055 +1.15 +0.00    +0.045 C 
ATOM     50  C50 UNL     1      20.657  12.450  10.519 +0.46 +0.00    +0.112 C 
ATOM     51  C51 UNL     1      21.829  13.200   9.953 +1.80 +0.00    +0.139 C 
ATOM     52  C52 UNL     1      22.255  10.693   8.112 +0.16 +0.00    +0.241 C 
ATOM     53  C53 UNL     1      23.708  10.372   6.092 +4.53 +0.00    +0.177 C 
ATOM     54  C54 UNL     1      24.925  11.074   6.719+99.99 +0.00    +0.045 C 
ATOM     55  C55 UNL     1      24.741  12.578   6.926+99.99 +0.00    +0.112 C 
ATOM     56  C56 UNL     1      25.761  13.084   7.906+99.99 +0.00    +0.139 C 
ATOM     57  C57 UNL     1      23.837   8.831   5.963+37.87 +0.00    +0.241 C 
ATOM     58  C58 UNL     1      25.341   6.922   5.448 +6.07 +0.00    +0.180 C 
ATOM     59  C59 UNL     1      24.956   6.532   4.008+91.97 +0.00    +0.073 C 
ATOM     60  C60 UNL     1      25.467   7.495   2.954 -0.32 -0.00    -0.056 A 
ATOM     61  C61 UNL     1      24.620   8.486   2.434 -0.49 +0.00    +0.010 A 
ATOM     62  C62 UNL     1      25.091   9.405   1.495 -0.31 +0.00    +0.037 A 
ATOM     63  C63 UNL     1      26.414   9.333   1.074 +0.19 +0.00    +0.065 A 
ATOM     64  C64 UNL     1      27.266   8.355   1.572 -0.42 +0.00    +0.037 A 
ATOM     65  C65 UNL     1      26.793   7.433   2.506 -0.14 +0.00    +0.010 A 
ATOM     66  C66 UNL     1      26.809   6.573   5.770 +4.91 +0.00    +0.241 C 
ATOM     67  C67 UNL     1      28.752   7.238   7.186+99.99 +0.00    +0.182 C 
ATOM     68  C68 UNL     1      29.748   7.763   6.136+99.99 +0.00    +0.040 C 
ATOM     69  C69 UNL     1      29.398   9.103   5.447+99.99 -0.00    -0.020 C 
ATOM     70  C70 UNL     1      30.446   9.412   4.372+61.82 +0.00    +0.009 C 
ATOM     71  C71 UNL     1      29.297  10.279   6.417+99.99 +0.00    +0.009 C 
ATOM     72  C72 UNL     1      28.907   7.912   8.548+67.79 +0.00    +0.163 C 
ATOM     73  N1  UNL     1      17.677   8.841   3.322 -0.25 -0.00    -0.346 N 
ATOM     74  N2  UNL     1      14.614   8.268   1.283+15.30 -0.00    -0.332 N 
ATOM     75  N3  UNL     1      13.006   5.019   1.820+75.22 -0.00    -0.346 N 
ATOM     76  N4  UNL     1      13.175   3.900   4.916+16.72 -0.00    -0.346 N 
ATOM     77  N5  UNL     1      14.662   5.280   6.825 +0.27 -0.00    -0.346 N 
ATOM     78  N6  UNL     1      13.759   7.740   5.903 -0.14 -0.00    -0.348 N 
ATOM     79  N7  UNL     1       7.321   7.329   5.424+99.99 -0.00    -0.333 N 
ATOM     80  N8  UNL     1       6.137   6.815   7.424 +0.36 -0.00    -0.376 N 
ATOM     81  H8  UNL     1       6.920   6.873   8.075 +0.08 +0.00    +0.158 HD
ATOM     82  N9  UNL     1       5.134   6.844   5.360 +6.65 -0.00    -0.274 NA
ATOM     83  N10 UNL     1      19.428   7.402   6.219+99.99 -0.00    -0.337 N 
ATOM     84  N11 UNL     1      20.026   9.701   7.962 +4.99 -0.00    -0.346 N 
ATOM     85  N12 UNL     1      22.419  10.626   6.738 +3.33 -0.00    -0.346 N 
ATOM     86  N13 UNL     1      25.101   8.344   5.738+99.99 -0.00    -0.346 N 
ATOM     87  N14 UNL     1      27.366   7.369   6.746+77.01 -0.00    -0.345 N 
ATOM     88  O1  UNL     1      17.080   7.159   1.889 -0.11 -0.00    -0.271 OA
ATOM     89  O2  UNL     1      13.909   7.227   3.186 -0.30 -0.00    -0.271 OA
ATOM     90  O3  UNL     1      12.220   6.298  -1.984 -0.05 -0.00    -0.650 OA
ATOM     91  O4  UNL     1      10.644   4.720  -2.078 +0.13 -0.00    -0.776 OA
ATOM     92  O5  UNL     1      11.210   5.438   3.189 -0.12 -0.00    -0.271 OA
ATOM     93  O6  UNL     1      14.600   2.127   5.074+99.99 -0.00    -0.271 OA
ATOM     94  O7  UNL     1      12.123   4.549   7.540 -0.00 -0.00    -0.650 OA
ATOM     95  O8  UNL     1      11.929   2.824   8.948+14.07 -0.00    -0.776 OA
ATOM     96  O9  UNL     1      16.704   5.725   5.899+99.99 -0.00    -0.272 OA
ATOM     97  O10 UNL     1      13.139   8.099   8.068 -0.38 -0.00    -0.268 OA
ATOM     98  O11 UNL     1      18.185   9.285   5.909+48.85 -0.00    -0.271 OA
ATOM     99  O12 UNL     1      20.934   8.089   9.305 +3.44 -0.00    -0.271 OA
ATOM    100  O13 UNL     1      21.824  13.794   8.884+19.49 -0.00    -0.650 OA
ATOM    101  O14 UNL     1      22.944  13.085  10.693 +0.81 -0.00    -0.776 OA
ATOM    102  O15 UNL     1      23.195  10.776   8.894 -0.01 -0.00    -0.271 OA
ATOM    103  O16 UNL     1      26.967  13.117   7.723+99.99 -0.00    -0.650 OA
ATOM    104  O17 UNL     1      25.232  13.504   9.076+99.99 -0.00    -0.776 OA
ATOM    105  O18 UNL     1      22.848   8.096   5.951+99.99 -0.00    -0.271 OA
ATOM    106  O19 UNL     1      26.920  10.211   0.162+18.99 -0.00    -0.361 OA
ATOM    107  O20 UNL     1      27.408   5.623   5.274+99.99 -0.00    -0.271 OA
ATOM    108  O21 UNL     1      28.031   8.516   9.152 +4.20 -0.00    -0.648 OA
ATOM    109  O22 UNL     1      30.132   7.767   9.090 +4.09 -0.00    -0.775 OA
ATOM    110  H78 UNL     1      17.316   9.597   3.897 +0.12 +0.00    +0.163 HD
ATOM    111  H79 UNL     1      13.920   4.583   1.882+33.94 +0.00    +0.163 HD
ATOM    112  H80 UNL     1      12.673   4.591   5.471 +0.10 +0.00    +0.163 HD
ATOM    113  H81 UNL     1      13.747   5.685   7.015 +0.12 +0.00    +0.163 HD
ATOM    114  H82 UNL     1      13.481   7.466   4.960 +0.12 +0.00    +0.163 HD
ATOM    115  H83 UNL     1       7.113   7.737   4.524 +2.43 +0.00    +0.168 HD
ATOM    116  H84 UNL     1       5.177   6.603   7.689 +0.05 +0.00    +0.158 HD
ATOM    117  H85 UNL     1       5.340   6.356   4.496 +0.06 +0.00    +0.127 HD
ATOM    118  H86 UNL     1       4.342   6.410   5.818 +0.05 +0.00    +0.127 HD
ATOM    119  H87 UNL     1      19.258   9.891   7.318 +1.56 +0.00    +0.163 HD
ATOM    120  H88 UNL     1      21.629  10.168   6.291 +0.88 +0.00    +0.163 HD
ATOM    121  H89 UNL     1      25.815   8.978   5.403 +1.23 +0.00    +0.163 HD
ATOM    122  H90 UNL     1      26.751   7.976   7.286+99.99 +0.00    +0.163 HD
ATOM    123  H91 UNL     1      11.075   4.657  -2.956 +0.09 +0.00    +0.167 HD
ATOM    124  H92 UNL     1      11.012   3.164   8.858 +0.47 +0.00    +0.167 HD
ATOM    125  H93 UNL     1      23.676  13.330  10.077 +0.58 +0.00    +0.167 HD
ATOM    126  H94 UNL     1      26.035  13.749   9.589 +5.19 +0.00    +0.167 HD
ATOM    127  H95 UNL     1      26.203  10.791  -0.142+99.99 +0.00    +0.217 HD
ATOM    128  H96 UNL     1      30.068   8.226   9.955 +0.29 +0.00    +0.167 HD
ENDROOT
TORSDOF 47
TER
