USER    Run = 1
USER    DPF = ligand_169_receptor.dpf
USER  
USER    Estimated Free Energy of Binding    =  +1.65e+004 kcal/mol  [=(1)+(2)+(3)-(4)]
USER    
USER    (1) Final Intermolecular Energy     =  +1.65e+004 kcal/mol
USER        vdW + Hbond + desolv Energy     =  +1.65e+004 kcal/mol
USER        Electrostatic Energy            =   +0.00 kcal/mol
USER    (2) Final Total Internal Energy     =   +0.00 kcal/mol
USER    (3) Torsional Free Energy           =   +1.19 kcal/mol
USER    (4) Unbound System's Energy  [=(2)] =   +0.00 kcal/mol
USER    
USER    
USER    NEWDPF move ligand_169.pdbqt
USER    NEWDPF about 0.000000 0.000000 0.000000
USER    NEWDPF tran0 16.638103 8.196800 1.477660
USER    NEWDPF quaternion0 -0.003767 0.208905 0.055790 -0.976336
USER    NEWDPF axisangle0 -0.017419 0.965994 0.257975 -24.978842
USER    NEWDPF quat0 -0.017419 0.965994 0.257975 -24.978842
USER  keepresnum = 1 
USER  
REMARK  0 active torsions:
REMARK  status: ('A' for Active; 'I' for Inactive)
REMARK       I    between atoms: C2_2  and  C3_3 
REMARK       I    between atoms: C3_3  and  C5_5 
REMARK       I    between atoms: C5_5  and  C6_6 
REMARK       I    between atoms: C5_5  and  N8_81 
REMARK       I    between atoms: C6_6  and  N1_73 
REMARK       I    between atoms: C7_7  and  C8_8 
REMARK       I    between atoms: C7_7  and  C10_10 
REMARK       I    between atoms: C7_7  and  N1_73 
REMARK       I    between atoms: C8_8  and  C9_9 
REMARK       I    between atoms: C9_9  and  O3_59 
REMARK       I    between atoms: C10_10  and  N2_74 
REMARK       I    between atoms: C11_11  and  C12_12 
REMARK       I    between atoms: C11_11  and  C16_16 
REMARK       I    between atoms: C11_11  and  N2_74 
REMARK       I    between atoms: C12_12  and  C13_13 
REMARK       I    between atoms: C13_13  and  C14_14 
REMARK       I    between atoms: C14_14  and  N3_75 
REMARK       I    between atoms: C15_15  and  N4_77 
REMARK       I    between atoms: C15_15  and  N5_78 
REMARK       I    between atoms: C16_16  and  N6_79 
REMARK       I    between atoms: C17_17  and  C18_18 
REMARK       I    between atoms: C17_17  and  C22_22 
REMARK       I    between atoms: C17_17  and  N6_79 
REMARK       I    between atoms: C18_18  and  C20_20 
REMARK       I    between atoms: C22_22  and  N7_80 
REMARK       I    between atoms: C23_23  and  C24_24 
REMARK       I    between atoms: C23_23  and  C25_25 
REMARK       I    between atoms: C23_23  and  N7_80 
REMARK       I    between atoms: C24_24  and  S1_93 
REMARK       I    between atoms: C26_26  and  C27_27 
REMARK       I    between atoms: C26_26  and  N8_81 
REMARK       I    between atoms: C27_27  and  C28_28 
REMARK       I    between atoms: C27_27  and  N12_86 
REMARK       I    between atoms: C28_28  and  C29_29 
REMARK       I    between atoms: C29_29  and  C30_30 
REMARK       I    between atoms: C30_30  and  N9_82 
REMARK       I    between atoms: C31_31  and  N10_84 
REMARK       I    between atoms: C31_31  and  N11_85 
REMARK       I    between atoms: C32_32  and  C33_33 
REMARK       I    between atoms: C32_32  and  N12_86 
REMARK       I    between atoms: C37_37  and  C38_38 
REMARK       I    between atoms: C37_37  and  N13_87 
REMARK       I    between atoms: C38_38  and  N14_88 
REMARK       I    between atoms: C39_39  and  C40_40 
REMARK       I    between atoms: C39_39  and  N14_88 
REMARK       I    between atoms: C40_40  and  C41_41 
REMARK       I    between atoms: C40_40  and  N15_89 
REMARK       I    between atoms: C41_41  and  C42_42 
REMARK       I    between atoms: C48_48  and  C49_49 
REMARK       I    between atoms: C48_48  and  N15_89 
REMARK       I    between atoms: C49_49  and  C50_50 
REMARK       I    between atoms: C49_49  and  N16_90 
REMARK       I    between atoms: C50_50  and  S2_94 
REMARK       I    between atoms: C51_51  and  C52_52 
REMARK       I    between atoms: C51_51  and  N16_90 
REMARK       I    between atoms: C52_52  and  C53_53 
REMARK       I    between atoms: C52_52  and  N17_91 
REMARK       I    between atoms: C53_53  and  O14_70 
REMARK       I    between atoms: C54_54  and  C55_55 
REMARK       I    between atoms: C54_54  and  N17_91 
REMARK       I    between atoms: C55_55  and  C56_56 
REMARK       I    between atoms: C55_55  and  N18_92 
REMARK       I    between atoms: C56_56  and  O16_72 
USER                              x       y       z     vdW  Elec       q    Type
USER                           _______ _______ _______ _____ _____    ______ ____
ROOT
ATOM      1  C1  UNL     1      12.218  13.662  -2.756+99.99 +0.00    +0.005 C 
ATOM      2  C2  UNL     1      12.926  12.388  -3.202+99.99 +0.00    +0.002 C 
ATOM      3  C3  UNL     1      12.073  11.098  -3.121 +3.13 +0.00    +0.013 C 
ATOM      4  C4  UNL     1      10.894  11.203  -4.103 +4.58 +0.00    +0.012 C 
ATOM      5  C5  UNL     1      11.586  10.767  -1.687+99.99 +0.00    +0.180 C 
ATOM      6  C6  UNL     1      10.996   9.336  -1.515+99.99 +0.00    +0.241 C 
ATOM      7  C7  UNL     1      10.477   7.598   0.187 +0.66 +0.00    +0.186 C 
ATOM      8  C8  UNL     1      11.733   6.718   0.166 -0.28 +0.00    +0.144 C 
ATOM      9  C9  UNL     1      11.403   5.321   0.585 +1.31 +0.00    +0.141 C 
ATOM     10  C10 UNL     1       9.823   7.654   1.595 +0.19 +0.00    +0.241 C 
ATOM     11  C11 UNL     1       8.757   6.286   3.343 -0.20 +0.00    +0.176 C 
ATOM     12  C12 UNL     1       7.456   5.502   3.541 -0.22 +0.00    +0.036 C 
ATOM     13  C13 UNL     1       7.439   4.099   2.921 -0.20 +0.00    +0.022 C 
ATOM     14  C14 UNL     1       6.080   3.415   3.079 -0.16 +0.00    +0.121 C 
ATOM     15  C15 UNL     1       4.766   2.547   4.824 -0.20 +0.00    +0.121 C 
ATOM     16  C16 UNL     1       9.977   5.555   3.959 -0.17 +0.00    +0.241 C 
ATOM     17  C17 UNL     1      11.718   5.855   5.726 -0.28 +0.00    +0.180 C 
ATOM     18  C18 UNL     1      12.268   4.403   5.740 -0.45 +0.00    +0.013 C 
ATOM     19  C19 UNL     1      13.644   4.334   6.421 -0.38 +0.00    +0.012 C 
ATOM     20  C20 UNL     1      11.269   3.453   6.444 -0.43 +0.00    +0.002 C 
ATOM     21  C21 UNL     1      11.644   1.979   6.344+99.99 +0.00    +0.005 C 
ATOM     22  C22 UNL     1      12.609   6.868   4.956 -0.29 +0.00    +0.241 C 
ATOM     23  C23 UNL     1      14.507   8.440   5.098 -0.03 +0.00    +0.155 C 
ATOM     24  C24 UNL     1      13.883   9.835   4.960+54.04 +0.00    +0.103 C 
ATOM     25  C25 UNL     1      15.794   8.500   5.905+99.99 +0.00    +0.257 C 
ATOM     26  C26 UNL     1      13.799  10.332  -0.595+99.99 +0.00    +0.241 C 
ATOM     27  C27 UNL     1      14.670  10.630   0.651+51.89 +0.00    +0.176 C 
ATOM     28  C28 UNL     1      15.236  12.056   0.685 +1.04 +0.00    +0.036 C 
ATOM     29  C29 UNL     1      14.264  13.212   0.951+99.99 +0.00    +0.022 C 
ATOM     30  C30 UNL     1      13.331  13.015   2.149+99.99 +0.00    +0.121 C 
ATOM     31  C31 UNL     1      11.271  11.958   2.579+24.63 +0.00    +0.121 C 
ATOM     32  C32 UNL     1      16.493   9.266   1.711 -0.36 +0.00    +0.241 C 
ATOM     33  C33 UNL     1      17.664   8.308   1.376 +0.58 +0.00    +0.179 C 
ATOM     34  C34 UNL     1      18.147   7.555   2.619 +0.58 +0.00    +0.037 C 
ATOM     35  C35 UNL     1      19.207   8.483   3.203 -0.27 +0.00    +0.022 C 
ATOM     36  C36 UNL     1      19.883   9.044   1.962 +3.08 +0.00    +0.127 C 
ATOM     37  C37 UNL     1      18.925   9.583  -0.331 +1.14 +0.00    +0.238 C 
ATOM     38  C38 UNL     1      20.181  10.367  -0.746+17.54 +0.00    +0.225 C 
ATOM     39  C39 UNL     1      21.996   8.823  -1.400+36.23 +0.00    +0.241 C 
ATOM     40  C40 UNL     1      23.319   8.149  -0.979 -0.18 +0.00    +0.180 C 
ATOM     41  C41 UNL     1      23.019   6.907  -0.122 -0.42 +0.00    +0.073 C 
ATOM     42  C42 UNL     1      24.244   6.061   0.142 -0.46 -0.00    -0.056 A 
ATOM     43  C43 UNL     1      24.820   5.302  -0.886 -0.51 +0.00    +0.007 A 
ATOM     44  C44 UNL     1      25.961   4.536  -0.645 -0.44 +0.00    +0.001 A 
ATOM     45  C45 UNL     1      26.533   4.517   0.625 +0.20 +0.00    +0.000 A 
ATOM     46  C46 UNL     1      25.964   5.262   1.655 +1.60 +0.00    +0.001 A 
ATOM     47  C47 UNL     1      24.826   6.033   1.416 -0.36 +0.00    +0.007 A 
ATOM     48  C48 UNL     1      24.263   9.591   0.873 +0.24 +0.00    +0.241 C 
ATOM     49  C49 UNL     1      25.518  10.362   1.338 +2.21 +0.00    +0.185 C 
ATOM     50  C50 UNL     1      25.296  11.846   1.022+15.55 +0.00    +0.105 C 
ATOM     51  C51 UNL     1      27.475   8.832   1.218 -0.02 +0.00    +0.243 C 
ATOM     52  C52 UNL     1      28.445   8.125   0.239 -0.26 +0.00    +0.200 C 
ATOM     53  C53 UNL     1      29.630   7.557   1.038 -0.27 +0.00    +0.199 C 
ATOM     54  C54 UNL     1      28.152   9.203  -1.997+99.99 +0.00    +0.253 C 
ATOM     55  C55 UNL     1      28.901   9.955  -3.114+99.99 +0.00    +0.332 C 
ATOM     56  C56 UNL     1      27.965  10.239  -4.299+99.99 +0.00    +0.209 C 
ATOM     57  O1  UNL     1      10.568   8.642  -2.432 -0.28 -0.00    -0.271 OA
ATOM     58  O2  UNL     1      10.358   4.739   0.333 +0.24 -0.00    -0.650 OA
ATOM     59  O3  UNL     1      12.333   4.791   1.397+34.25 -0.00    -0.776 OA
ATOM     60  O4  UNL     1       9.976   8.611   2.359 +2.54 -0.00    -0.271 OA
ATOM     61  O5  UNL     1      10.565   4.645   3.371 +0.01 -0.00    -0.271 OA
ATOM     62  O6  UNL     1      12.429   7.171   3.777 -0.28 -0.00    -0.271 OA
ATOM     63  O7  UNL     1      16.029   7.755   6.857+99.99 -0.00    -0.305 OA
ATOM     64  O8  UNL     1      14.145   9.541  -1.470+99.99 -0.00    -0.271 OA
ATOM     65  O9  UNL     1      16.251   9.666   2.849 -0.30 -0.00    -0.271 OA
ATOM     66  O10 UNL     1      17.943   9.542  -1.080 +0.14 -0.00    -0.272 OA
ATOM     67  O11 UNL     1      21.407   8.480  -2.424+99.99 -0.00    -0.271 OA
ATOM     68  O12 UNL     1      23.214   9.612   1.519 -0.27 -0.00    -0.271 OA
ATOM     69  O13 UNL     1      27.309   8.434   2.372 -0.40 -0.00    -0.271 OA
ATOM     70  O14 UNL     1      29.256   6.450   1.852 +0.15 -0.00    -0.398 OA
ATOM     71  O15 UNL     1      26.964   8.888  -2.043+99.99 -0.00    -0.271 OA
ATOM     72  O16 UNL     1      26.908  11.117  -3.916+84.57 -0.00    -0.398 OA
ATOM     73  N1  UNL     1      10.836   8.967  -0.190+99.99 -0.00    -0.345 N 
ATOM     74  N2  UNL     1       9.057   6.552   1.940 -0.09 -0.00    -0.346 N 
ATOM     75  N3  UNL     1       5.818   3.196   4.499 -0.06 -0.00    -0.372 N 
ATOM     76  H3  UNL     1       6.457   3.550   5.211 -0.11 +0.00    +0.161 HD
ATOM     77  N4  UNL     1       4.502   2.302   6.125 -0.46 -0.00    -0.279 NA
ATOM     78  N5  UNL     1       3.799   2.009   4.048 -0.11 -0.00    -0.279 NA
ATOM     79  N6  UNL     1      10.354   6.034   5.203 -0.08 -0.00    -0.346 N 
ATOM     80  N7  UNL     1      13.601   7.461   5.700 -0.18 -0.00    -0.348 N 
ATOM     81  N8  UNL     1      12.586  10.978  -0.633+99.99 -0.00    -0.346 N 
ATOM     82  N9  UNL     1      12.125  12.317   1.693 +8.84 -0.00    -0.372 N 
ATOM     83  H9  UNL     1      11.970  12.125   0.704 +1.12 +0.00    +0.161 HD
ATOM     84  N10 UNL     1      11.305  12.099   3.918+60.69 -0.00    -0.279 NA
ATOM     85  N11 UNL     1      10.125  11.346   2.213+99.99 -0.00    -0.279 NA
ATOM     86  N12 UNL     1      15.775   9.669   0.614 +0.06 -0.00    -0.346 N 
ATOM     87  N13 UNL     1      18.843   9.068   0.946 +1.90 -0.00    -0.337 N 
ATOM     88  N14 UNL     1      21.453   9.714  -0.509 +0.40 -0.00    -0.351 N 
ATOM     89  N15 UNL     1      24.331   9.048  -0.394 +0.68 -0.00    -0.346 N 
ATOM     90  N16 UNL     1      26.708   9.834   0.673 +2.58 -0.00    -0.345 N 
ATOM     91  N17 UNL     1      28.916   8.968  -0.869 +4.27 -0.00    -0.344 N 
ATOM     92  N18 UNL     1      30.073   9.159  -3.535 -0.34 +0.00    +0.094 N 
ATOM     93  S1  UNL     1      13.283  10.526   6.545+64.06 -0.00    -0.180 SA
ATOM     94  S2  UNL     1      26.693  12.892   1.552+99.99 -0.00    -0.180 SA
ATOM     95  H68 UNL     1      11.823   4.180   1.982+99.99 +0.00    +0.167 HD
ATOM     96  H69 UNL     1      28.568   6.778   2.469 +0.18 +0.00    +0.209 HD
ATOM     97  H70 UNL     1      26.215  10.557  -3.519+99.99 +0.00    +0.209 HD
ATOM     98  H71 UNL     1      11.368   9.494   0.495+99.99 +0.00    +0.163 HD
ATOM     99  H72 UNL     1       9.155   5.725   1.348 +0.08 +0.00    +0.163 HD
ATOM    100  H73 UNL     1       5.309   2.553   6.686 -0.41 +0.00    +0.126 HD
ATOM    101  H74 UNL     1       4.253   1.333   6.285 -0.09 +0.00    +0.126 HD
ATOM    102  H75 UNL     1       3.797   2.345   3.093 +0.04 +0.00    +0.126 HD
ATOM    103  H76 UNL     1       2.880   2.102   4.464 +0.05 +0.00    +0.126 HD
ATOM    104  H77 UNL     1       9.929   6.917   5.459 +0.10 +0.00    +0.163 HD
ATOM    105  H78 UNL     1      13.871   7.094   6.609 +0.13 +0.00    +0.163 HD
ATOM    106  H79 UNL     1      12.335  11.588   0.151 +1.41 +0.00    +0.163 HD
ATOM    107  H80 UNL     1      10.382  12.214   4.321 +1.47 +0.00    +0.126 HD
ATOM    108  H81 UNL     1      11.957  12.783   4.278+10.05 +0.00    +0.126 HD
ATOM    109  H82 UNL     1      10.071  11.182   1.215+99.99 +0.00    +0.126 HD
ATOM    110  H83 UNL     1      10.003  10.435   2.670 +3.55 +0.00    +0.126 HD
ATOM    111  H84 UNL     1      16.160   9.454  -0.313 +0.08 +0.00    +0.163 HD
ATOM    112  H85 UNL     1      21.922   9.842   0.386 +0.12 +0.00    +0.163 HD
ATOM    113  H86 UNL     1      25.267   8.875  -0.750 +0.17 +0.00    +0.163 HD
ATOM    114  H87 UNL     1      26.817  10.031  -0.314 +1.99 +0.00    +0.163 HD
ATOM    115  H88 UNL     1      29.765   9.508  -0.741 +0.09 +0.00    +0.163 HD
ATOM    116  H89 UNL     1      29.755   8.302  -3.994 +0.13 +0.00    +0.314 HD
ATOM    117  H90 UNL     1      30.606   8.855  -2.722 +0.13 +0.00    +0.314 HD
ATOM    118  H91 UNL     1      12.370   9.570   6.773 +0.16 +0.00    +0.101 HD
ATOM    119  H92 UNL     1      26.630  12.591   2.858+99.99 +0.00    +0.101 HD
ENDROOT
TORSDOF 48
TER
