USER    Run = 1
USER    DPF = ligand_396_receptor.dpf
USER  
USER    Estimated Free Energy of Binding    =  +1.91e+004 kcal/mol  [=(1)+(2)+(3)-(4)]
USER    
USER    (1) Final Intermolecular Energy     =  +1.91e+004 kcal/mol
USER        vdW + Hbond + desolv Energy     =  +1.91e+004 kcal/mol
USER        Electrostatic Energy            =   +0.00 kcal/mol
USER    (2) Final Total Internal Energy     =   +0.00 kcal/mol
USER    (3) Torsional Free Energy           =   +1.19 kcal/mol
USER    (4) Unbound System's Energy  [=(2)] =   +0.00 kcal/mol
USER    
USER    
USER    NEWDPF move ligand_396.pdbqt
USER    NEWDPF about 0.000000 0.000000 0.000000
USER    NEWDPF tran0 17.412962 8.634632 2.290497
USER    NEWDPF quaternion0 -0.851433 -0.046286 0.285033 0.437807
USER    NEWDPF axisangle0 -0.947017 -0.051482 0.317031 128.071852
USER    NEWDPF quat0 -0.947017 -0.051482 0.317031 128.071852
USER  keepresnum = 1 
USER  
REMARK  0 active torsions:
REMARK  status: ('A' for Active; 'I' for Inactive)
REMARK       I    between atoms: C2_2  and  C3_3 
REMARK       I    between atoms: C3_3  and  C5_5 
REMARK       I    between atoms: C5_5  and  C6_6 
REMARK       I    between atoms: C5_5  and  N3_83 
REMARK       I    between atoms: C6_6  and  C7_7 
REMARK       I    between atoms: C6_6  and  O5_71 
REMARK       I    between atoms: C7_7  and  C8_8 
REMARK       I    between atoms: C8_8  and  N1_81 
REMARK       I    between atoms: C12_12  and  C13_13 
REMARK       I    between atoms: C13_13  and  C14_14 
REMARK       I    between atoms: C13_13  and  O4_70 
REMARK       I    between atoms: C14_14  and  C16_16 
REMARK       I    between atoms: C16_16  and  N2_82 
REMARK       I    between atoms: C17_17  and  C19_19 
REMARK       I    between atoms: C17_17  and  N2_82 
REMARK       I    between atoms: C19_19  and  C20_20 
REMARK       I    between atoms: C19_19  and  O3_69 
REMARK       I    between atoms: C29_29  and  C30_30 
REMARK       I    between atoms: C29_29  and  N3_83 
REMARK       I    between atoms: C30_30  and  C31_31 
REMARK       I    between atoms: C30_30  and  N4_84 
REMARK       I    between atoms: C34_34  and  C35_35 
REMARK       I    between atoms: C34_34  and  N4_84 
REMARK       I    between atoms: C35_35  and  C36_36 
REMARK       I    between atoms: C35_35  and  N5_85 
REMARK       I    between atoms: C40_40  and  C41_41 
REMARK       I    between atoms: C40_40  and  N5_85 
REMARK       I    between atoms: C41_41  and  N6_86 
REMARK       I    between atoms: C42_42  and  C43_43 
REMARK       I    between atoms: C42_42  and  N6_86 
REMARK       I    between atoms: C43_43  and  C44_44 
REMARK       I    between atoms: C43_43  and  C48_48 
REMARK       I    between atoms: C44_44  and  C45_45 
REMARK       I    between atoms: C45_45  and  C46_46 
REMARK       I    between atoms: C46_46  and  N7_87 
REMARK       I    between atoms: C47_47  and  N7_87 
REMARK       I    between atoms: C47_47  and  N8_88 
REMARK       I    between atoms: C48_48  and  C49_49 
REMARK       I    between atoms: C49_49  and  C50_50 
REMARK       I    between atoms: C50_50  and  C51_51 
REMARK       I    between atoms: C50_50  and  N9_89 
REMARK       I    between atoms: C54_54  and  C55_55 
REMARK       I    between atoms: C54_54  and  N9_89 
REMARK       I    between atoms: C55_55  and  C56_56 
REMARK       I    between atoms: C56_56  and  N10_90 
REMARK       I    between atoms: C57_57  and  C58_58 
REMARK       I    between atoms: C57_57  and  N10_90 
REMARK       I    between atoms: C58_58  and  N11_91 
REMARK       I    between atoms: C60_60  and  C61_61 
REMARK       I    between atoms: C60_60  and  N11_91 
REMARK       I    between atoms: C61_61  and  C62_62 
REMARK       I    between atoms: C62_62  and  N12_92 
USER                              x       y       z     vdW  Elec       q    Type
USER                           _______ _______ _______ _____ _____    ______ ____
ROOT
ATOM      1  C1  UNL     1      22.362  13.637  -2.365+99.99 +0.00    +0.005 C 
ATOM      2  C2  UNL     1      22.577  12.401  -1.496 +1.87 +0.00    +0.002 C 
ATOM      3  C3  UNL     1      21.671  12.332  -0.254 +2.05 +0.00    +0.006 C 
ATOM      4  C4  UNL     1      21.642  13.656   0.532+99.99 +0.00    +0.012 C 
ATOM      5  C5  UNL     1      21.876  11.105   0.712 +4.07 +0.00    +0.119 C 
ATOM      6  C6  UNL     1      21.674   9.677   0.080 -0.31 +0.00    +0.152 C 
ATOM      7  C7  UNL     1      22.739   9.054  -0.833 +0.84 +0.00    +0.137 C 
ATOM      8  C8  UNL     1      23.910   8.329  -0.181 -0.35 +0.00    +0.222 C 
ATOM      9  C9  UNL     1      25.872   6.909  -0.558 -0.37 +0.00    +0.126 C 
ATOM     10  C10 UNL     1      26.527   6.440  -1.853 -0.19 +0.00    +0.022 C 
ATOM     11  C11 UNL     1      25.495   6.726  -2.946+11.92 +0.00    +0.029 C 
ATOM     12  C12 UNL     1      24.142   6.753  -2.217 -0.47 +0.00    +0.117 C 
ATOM     13  C13 UNL     1      23.512   5.311  -2.152+26.09 +0.00    +0.156 C 
ATOM     14  C14 UNL     1      22.182   5.153  -1.369+99.99 +0.00    +0.105 C 
ATOM     15  C15 UNL     1      22.316   5.348   0.139 +4.51 +0.00    +0.022 C 
ATOM     16  C16 UNL     1      21.050   5.926  -2.050+38.89 +0.00    +0.224 C 
ATOM     17  C17 UNL     1      18.669   6.682  -1.828+99.99 +0.00    +0.113 C 
ATOM     18  C18 UNL     1      18.832   8.188  -2.038+15.15 +0.00    +0.035 C 
ATOM     19  C19 UNL     1      17.507   6.322  -0.856+99.99 +0.00    +0.173 C 
ATOM     20  C20 UNL     1      16.133   6.818  -1.259+19.49 -0.00    -0.028 A 
ATOM     21  C21 UNL     1      15.273   5.978  -1.984+99.99 +0.00    +0.010 A 
ATOM     22  C22 UNL     1      14.003   6.418  -2.369 +9.16 +0.00    +0.001 A 
ATOM     23  C23 UNL     1      13.581   7.705  -2.043+99.99 +0.00    +0.000 A 
ATOM     24  C24 UNL     1      14.427   8.552  -1.332+99.99 +0.00    +0.001 A 
ATOM     25  C25 UNL     1      15.690   8.111  -0.937 +1.13 +0.00    +0.010 A 
ATOM     26  C26 UNL     1      24.387   3.075  -2.206+99.99 +0.00    +0.202 C 
ATOM     27  C27 UNL     1      20.143   8.869   1.782 +9.49 +0.00    +0.202 C 
ATOM     28  C28 UNL     1      24.323  11.516   1.217+63.97 +0.00    +0.153 C 
ATOM     29  C29 UNL     1      22.639  11.361   3.042+99.99 +0.00    +0.243 C 
ATOM     30  C30 UNL     1      23.704  11.134   4.162 +0.05 +0.00    +0.180 C 
ATOM     31  C31 UNL     1      24.426   9.763   4.203 +0.10 +0.00    +0.009 C 
ATOM     32  C32 UNL     1      25.340   9.633   5.424+99.99 +0.00    +0.012 C 
ATOM     33  C33 UNL     1      23.557   8.513   4.045 +0.23 +0.00    +0.012 C 
ATOM     34  C34 UNL     1      22.117  10.943   6.114+31.59 +0.00    +0.241 C 
ATOM     35  C35 UNL     1      21.161  11.853   6.946+52.63 +0.00    +0.182 C 
ATOM     36  C36 UNL     1      21.909  12.787   7.942+30.66 +0.00    +0.009 C 
ATOM     37  C37 UNL     1      22.848  12.090   8.929 +1.83 +0.00    +0.012 C 
ATOM     38  C38 UNL     1      20.943  13.718   8.682+73.04 +0.00    +0.012 C 
ATOM     39  C39 UNL     1      20.274  10.206   8.653 +0.37 +0.00    +0.153 C 
ATOM     40  C40 UNL     1      18.766  10.980   6.918+92.37 +0.00    +0.237 C 
ATOM     41  C41 UNL     1      18.530  11.684   5.570+99.99 +0.00    +0.225 C 
ATOM     42  C42 UNL     1      16.955  10.458   4.125 -0.07 +0.00    +0.222 C 
ATOM     43  C43 UNL     1      15.503  10.054   3.903 +3.40 +0.00    +0.085 C 
ATOM     44  C44 UNL     1      14.874   9.413   5.147 +4.69 +0.00    +0.016 C 
ATOM     45  C45 UNL     1      15.590   8.138   5.609+34.16 +0.00    +0.020 C 
ATOM     46  C46 UNL     1      14.904   7.498   6.817+48.41 +0.00    +0.124 C 
ATOM     47  C47 UNL     1      12.447   7.705   6.783 -0.27 +0.00    +0.291 C 
ATOM     48  C48 UNL     1      14.675  11.253   3.412+99.99 +0.00    +0.094 C 
ATOM     49  C49 UNL     1      14.033  10.946   2.074+17.60 +0.00    +0.150 C 
ATOM     50  C50 UNL     1      12.649  10.272   1.984+99.99 +0.00    +0.157 C 
ATOM     51  C51 UNL     1      11.482  10.845   2.825+99.99 +0.00    +0.007 C 
ATOM     52  C52 UNL     1      11.416  12.375   2.761 +7.98 +0.00    +0.012 C 
ATOM     53  C53 UNL     1      11.385  10.354   4.267+99.99 +0.00    +0.012 C 
ATOM     54  C54 UNL     1      11.889   7.919   1.698 +9.66 +0.00    +0.220 C 
ATOM     55  C55 UNL     1      12.390   6.500   1.508 -0.28 +0.00    +0.132 C 
ATOM     56  C56 UNL     1      12.723   5.766   2.808+10.94 +0.00    +0.278 C 
ATOM     57  C57 UNL     1      10.452   4.910   3.169 +0.45 +0.00    +0.299 C 
ATOM     58  C58 UNL     1       9.332   4.717   4.216 -0.15 +0.00    +0.301 C 
ATOM     59  C59 UNL     1       7.604   3.071   4.563 +0.28 +0.00    +0.309 C 
ATOM     60  C60 UNL     1       7.069   5.033   3.294 -0.10 +0.00    +0.273 C 
ATOM     61  C61 UNL     1       7.439   6.044   2.201 -0.23 +0.00    +0.050 C 
ATOM     62  C62 UNL     1       6.275   6.961   1.816 -0.32 +0.00    +0.137 C 
ATOM     63  C63 UNL     1       4.058   5.835   1.735 +0.38 +0.00    +0.250 A 
ATOM     64  C64 UNL     1       3.250   5.179   0.701+99.99 +0.00    +0.080 A 
ATOM     65  C65 UNL     1       3.933   5.236  -0.443 +0.51 +0.00    +0.080 A 
ATOM     66  C66 UNL     1       5.197   5.932  -0.175 +0.17 +0.00    +0.250 A 
ATOM     67  O1  UNL     1      24.375   8.671   0.906 -0.26 -0.00    -0.273 OA
ATOM     68  O2  UNL     1      21.115   6.259  -3.232+99.99 -0.00    -0.273 OA
ATOM     69  O3  UNL     1      17.843   6.760   0.469+99.99 -0.00    -0.389 OA
ATOM     70  O4  UNL     1      24.482   4.373  -1.635 -0.08 -0.00    -0.388 OA
ATOM     71  O5  UNL     1      21.316   8.641   1.015 +4.04 -0.00    -0.388 OA
ATOM     72  O6  UNL     1      21.505  11.744   3.370 +2.95 -0.00    -0.271 OA
ATOM     73  O7  UNL     1      21.973   9.727   6.071 +1.66 -0.00    -0.271 OA
ATOM     74  O8  UNL     1      17.828  10.390   7.470+99.99 -0.00    -0.272 OA
ATOM     75  O9  UNL     1      17.846   9.966   3.439 -0.31 -0.00    -0.273 OA
ATOM     76  O10 UNL     1      12.393   8.781   7.359 -0.40 -0.00    -0.254 OA
ATOM     77  O11 UNL     1      14.712  11.078   1.046 +1.19 -0.00    -0.296 OA
ATOM     78  O12 UNL     1      10.715   8.221   1.517 +6.97 -0.00    -0.274 OA
ATOM     79  O13 UNL     1       3.718   5.931   2.901 -0.18 -0.00    -0.268 OA
ATOM     80  O14 UNL     1       6.045   6.138  -1.023+13.38 -0.00    -0.268 OA
ATOM     81  N1  UNL     1      24.533   7.342  -0.930 -0.22 -0.00    -0.345 N 
ATOM     82  N2  UNL     1      19.913   6.096  -1.301+99.99 -0.00    -0.354 N 
ATOM     83  N3  UNL     1      22.984  11.208   1.696+99.99 -0.00    -0.347 N 
ATOM     84  N4  UNL     1      23.095  11.637   5.417+79.84 -0.00    -0.346 N 
ATOM     85  N5  UNL     1      20.024  11.078   7.513+33.20 -0.00    -0.341 N 
ATOM     86  N6  UNL     1      17.176  11.399   5.102+19.21 -0.00    -0.352 N 
ATOM     87  N7  UNL     1      13.579   7.012   6.481 -0.18 -0.00    -0.348 N 
ATOM     88  N8  UNL     1      11.329   7.079   6.336 -0.18 -0.00    -0.254 NA
ATOM     89  N9  UNL     1      12.871   8.823   2.054+99.99 -0.00    -0.349 N 
ATOM     90  N10 UNL     1      11.637   5.546   3.778 -0.13 +0.00    +0.085 N 
ATOM     91  N11 UNL     1       8.142   4.069   3.630 -0.21 +0.00    +0.086 N 
ATOM     92  N12 UNL     1       5.197   6.267   1.139 -0.08 -0.00    -0.281 N 
ATOM     93  HA2 UNL     1      17.016   6.831   0.975 -0.23 +0.00    +0.210 HD
ATOM     94  HA3 UNL     1      19.999   6.143  -0.288+99.99 +0.00    +0.163 HD
ATOM     95  HA4 UNL     1      22.914  12.629   5.356 +3.12 +0.00    +0.163 HD
ATOM     96  HA5 UNL     1      16.467  11.491   5.820 +0.48 +0.00    +0.162 HD
ATOM     97  HA6 UNL     1      13.458   6.030   6.292 +0.12 +0.00    +0.163 HD
ATOM     98  HA7 UNL     1      10.506   7.658   6.451 +0.09 +0.00    +0.128 HD
ATOM     99  HA8 UNL     1      11.403   6.717   5.385 +0.09 +0.00    +0.128 HD
ATOM    100  HA9 UNL     1      13.809   8.523   1.807 +4.30 +0.00    +0.163 HD
ATOM    101  HB0 UNL     1      11.987   4.900   4.490 +0.20 +0.00    +0.315 HD
ENDROOT
TORSDOF 43
TER
