USER    Run = 1
USER    DPF = ligand_228_receptor.dpf
USER  
USER    Estimated Free Energy of Binding    =  +52.39 kcal/mol  [=(1)+(2)+(3)-(4)]
USER    
USER    (1) Final Intermolecular Energy     =  +51.20 kcal/mol
USER        vdW + Hbond + desolv Energy     =  +51.20 kcal/mol
USER        Electrostatic Energy            =   +0.00 kcal/mol
USER    (2) Final Total Internal Energy     =   +4.90 kcal/mol
USER    (3) Torsional Free Energy           =   +1.19 kcal/mol
USER    (4) Unbound System's Energy  [=(2)] =   +4.90 kcal/mol
USER    
USER    
USER    NEWDPF move ligand_228.pdbqt
USER    NEWDPF about 0.000000 0.000000 0.000000
USER    NEWDPF tran0 17.062092 9.637433 3.600639
USER    NEWDPF quaternion0 0.091694 -0.975413 0.199243 -0.021538
USER    NEWDPF axisangle0 0.091716 -0.975639 0.199289 -177.531733
USER    NEWDPF quat0 0.091716 -0.975639 0.199289 -177.531733
USER    NEWDPF dihe0 32.09 -94.92 138.46 -143.31 94.33 179.91 -3.31 147.69 -180.00 27.95 14.83 -129.87 28.07 126.12 180.00 177.54 -132.90 180.00 -26.08 168.00 -70.63 -180.00 90.78 180.00 
USER  keepresnum = 1 
USER  
REMARK  24 active torsions:
REMARK  status: ('A' for Active; 'I' for Inactive)
REMARK    1  A    between atoms: C4_4  and  O1_56 
REMARK    2  A    between atoms: C5_5  and  O1_56 
REMARK    3  A    between atoms: C6_6  and  N10_51 
REMARK    4  A    between atoms: C8_8  and  C34_34 
REMARK    5  A    between atoms: C10_10  and  N2_42 
REMARK       I    between atoms: C11_11  and  N2_42 
REMARK       I    between atoms: C11_11  and  N3_43 
REMARK    6  A    between atoms: C12_12  and  N3_43 
REMARK    7  A    between atoms: C18_18  and  N5_46 
REMARK       I    between atoms: C19_19  and  N5_46 
REMARK       I    between atoms: C19_19  and  N6_47 
REMARK    8  A    between atoms: C20_20  and  N6_47 
REMARK    9  A    between atoms: C22_22  and  C33_33 
REMARK   10  A    between atoms: C24_24  and  N8_49 
REMARK   11  A    between atoms: C25_25  and  S2_62 
REMARK   12  A    between atoms: C26_26  and  C27_27 
REMARK   13  A    between atoms: C26_26  and  S2_62 
REMARK   14  A    between atoms: C27_27  and  N7_48 
REMARK   15  A    between atoms: C28_28  and  C29_29 
REMARK       I    between atoms: C28_28  and  N8_49 
REMARK   16  A    between atoms: C29_29  and  C30_30 
REMARK   17  A    between atoms: C30_30  and  C31_31 
REMARK   18  A    between atoms: C31_31  and  C32_32 
REMARK   19  A    between atoms: C32_32  and  N9_50 
REMARK   20  A    between atoms: C35_35  and  C36_36 
REMARK       I    between atoms: C35_35  and  N10_51 
REMARK   21  A    between atoms: C36_36  and  C37_37 
REMARK   22  A    between atoms: C37_37  and  C38_38 
REMARK   23  A    between atoms: C38_38  and  C39_39 
REMARK   24  A    between atoms: C39_39  and  N11_52 
REMARK       I    between atoms: C40_40  and  N11_52 
REMARK       I    between atoms: C40_40  and  N13_55 
USER                              x       y       z     vdW  Elec       q    Type
USER                           _______ _______ _______ _____ _____    ______ ____
ROOT
ATOM      1  C12 UNL     1      18.991   8.979   3.251 -0.39 +0.00    +0.037 A 
ATOM      2  C13 UNL     1      18.044   9.242   4.246 -0.18 +0.00    +0.051 A 
ATOM      3  C14 UNL     1      16.698   8.905   4.004 -0.47 +0.00    +0.037 A 
ATOM      4  C15 UNL     1      16.284   8.323   2.805 -0.47 +0.00    +0.051 A 
ATOM      5  C16 UNL     1      17.246   8.070   1.810 -0.34 +0.00    +0.033 A 
ATOM      6  C17 UNL     1      18.586   8.403   2.043 +3.48 +0.00    +0.032 A 
ATOM      7  C18 UNL     1      14.331   8.428   3.820 -0.33 +0.00    +0.153 A 
ATOM      8  N4  UNL     1      14.930   8.047   2.717 -0.04 -0.00    -0.335 N 
ATOM      9  H4  UNL     1      14.469   7.613   1.918 -0.45 +0.00    +0.168 HD
ATOM     10  S1  UNL     1      15.324   9.100   5.022 +2.04 -0.00    -0.052 SA
ENDROOT
BRANCH   1  11
ATOM     11  N3  UNL     1      20.361   9.281   3.381 -0.01 -0.00    -0.309 N 
ATOM     12  C11 UNL     1      21.347   9.199   2.409 -0.11 +0.00    +0.325 C 
ATOM     13  N2  UNL     1      22.572   9.500   2.966 -0.24 -0.00    -0.306 N 
ATOM     14  O2  UNL     1      21.167   8.923   1.231 +0.84 -0.00    -0.247 OA
ATOM     15  H36 UNL     1      22.600   9.600   3.977 +0.13 +0.00    +0.171 HD
ATOM     16  H37 UNL     1      20.648   9.732   4.241 +0.66 +0.00    +0.170 HD
BRANCH  13  17
ATOM     17  C10 UNL     1      23.811   9.737   2.340 -0.33 +0.00    +0.072 A 
ATOM     18  C5  UNL     1      24.655   8.613   2.181 -0.39 +0.00    +0.122 A 
ATOM     19  C6  UNL     1      25.903   8.730   1.553 -0.41 +0.00    +0.071 A 
ATOM     20  C7  UNL     1      26.341  10.014   1.193 +2.69 +0.00    +0.048 A 
ATOM     21  C8  UNL     1      25.529  11.149   1.380 +5.12 +0.00    +0.052 A 
ATOM     22  C9  UNL     1      24.252  10.996   1.938+19.48 +0.00    +0.048 A 
BRANCH  18  23
ATOM     23  O1  UNL     1      24.151   7.429   2.660 +0.53 -0.00    -0.339 OA
BRANCH  23  24
ATOM     24  C4  UNL     1      24.146   6.362   1.696 +0.35 +0.00    +0.159 C 
ATOM     25  C1  UNL     1      24.895   6.872   0.474 -0.44 +0.00    +0.064 C 
ATOM     26  C2  UNL     1      23.861   7.724  -0.255 -0.34 +0.00    +0.272 C 
ATOM     27  N1  UNL     1      22.526   7.286   0.203 +0.43 +0.00    +0.086 N 
ATOM     28  C3  UNL     1      22.769   6.112   1.071 +4.66 +0.00    +0.301 C 
ATOM     29  H35 UNL     1      21.973   6.988  -0.603 +0.26 +0.00    +0.315 HD
ENDBRANCH  23  24
ENDBRANCH  18  23
BRANCH  19  30
ATOM     30  N10 UNL     1      26.793   7.670   1.256 -0.19 -0.00    -0.325 N 
ATOM     31  C35 UNL     1      28.125   7.775   0.894 -0.29 +0.00    +0.222 C 
ATOM     32  O5  UNL     1      28.801   8.795   0.879 -0.05 -0.00    -0.273 OA
ATOM     33  H45 UNL     1      26.496   6.745   1.547 +0.12 +0.00    +0.169 HD
BRANCH  31  34
ATOM     34  C36 UNL     1      28.725   6.418   0.547 -0.24 +0.00    +0.103 C 
BRANCH  34  35
ATOM     35  C37 UNL     1      29.699   6.499  -0.631 -0.19 +0.00    +0.011 C 
BRANCH  35  36
ATOM     36  C38 UNL     1      29.109   5.950  -1.942 -0.22 +0.00    +0.020 C 
BRANCH  36  37
ATOM     37  C39 UNL     1      27.655   6.382  -2.155 +0.21 +0.00    +0.122 C 
BRANCH  37  38
ATOM     38  N11 UNL     1      26.756   5.278  -1.890 -0.10 -0.00    -0.367 N 
ATOM     39  C40 UNL     1      26.904   4.024  -2.358 -0.19 +0.00    +0.143 C 
ATOM     40  N12 UNL     1      27.701   3.614  -3.274 +0.06 -0.00    -0.376 N 
ATOM     41  N13 UNL     1      26.067   3.156  -1.763 -0.40 -0.00    -0.274 NA
ATOM     42  H47 UNL     1      28.238   4.407  -3.622 +0.06 +0.00    +0.158 HD
ATOM     43  H12 UNL     1      27.785   2.651  -3.601 +0.07 +0.00    +0.158 HD
ATOM     44  H48 UNL     1      26.028   2.295  -2.297 +0.04 +0.00    +0.127 HD
ATOM     45  H49 UNL     1      25.143   3.539  -1.600 +0.06 +0.00    +0.127 HD
ATOM     46  H46 UNL     1      26.244   5.341  -1.004 +0.10 +0.00    +0.162 HD
ENDBRANCH  37  38
ENDBRANCH  36  37
ENDBRANCH  35  36
ENDBRANCH  34  35
ENDBRANCH  31  34
ENDBRANCH  19  30
BRANCH  21  47
ATOM     47  C34 UNL     1      26.004  12.514   0.942 +9.37 +0.00    +0.417 C 
ATOM     48  F4  UNL     1      25.227  13.049  -0.044 +1.84 -0.00    -0.166 F 
ATOM     49  F5  UNL     1      27.271  12.509   0.448 +7.02 -0.00    -0.166 F 
ATOM     50  F6  UNL     1      25.989  13.419   1.957 +3.71 -0.00    -0.166 F 
ENDBRANCH  21  47
ENDBRANCH  13  17
ENDBRANCH   1  11
BRANCH   7  51
ATOM     51  N5  UNL     1      12.981   8.243   3.974 -0.23 -0.00    -0.288 N 
ATOM     52  C19 UNL     1      12.133   7.544   3.139 -0.22 +0.00    +0.326 C 
ATOM     53  N6  UNL     1      10.825   7.646   3.592 -0.22 -0.00    -0.307 N 
ATOM     54  O3  UNL     1      12.468   6.918   2.144 -0.35 -0.00    -0.247 OA
ATOM     55  H39 UNL     1      10.646   8.347   4.300 +0.09 +0.00    +0.170 HD
ATOM     56  H38 UNL     1      12.650   8.538   4.877 +0.12 +0.00    +0.172 HD
BRANCH  53  57
ATOM     57  C20 UNL     1       9.657   7.039   3.066 -0.31 +0.00    +0.056 A 
ATOM     58  C21 UNL     1       9.160   7.323   1.793 -0.30 +0.00    +0.047 A 
ATOM     59  C22 UNL     1       7.986   6.713   1.321 -0.27 +0.00    +0.052 A 
ATOM     60  C23 UNL     1       7.308   5.795   2.139 -0.17 +0.00    +0.047 A 
ATOM     61  C24 UNL     1       7.782   5.485   3.415 -0.18 +0.00    +0.054 A 
ATOM     62  C25 UNL     1       8.979   6.093   3.870 -0.22 +0.00    +0.054 A 
BRANCH  59  63
ATOM     63  C33 UNL     1       7.470   7.012  -0.068 -0.15 +0.00    +0.417 C 
ATOM     64  F1  UNL     1       7.426   8.349  -0.321 -0.22 -0.00    -0.166 F 
ATOM     65  F2  UNL     1       6.211   6.545  -0.290 -0.04 -0.00    -0.166 F 
ATOM     66  F3  UNL     1       8.242   6.470  -1.050 -0.05 -0.00    -0.166 F 
ENDBRANCH  59  63
BRANCH  61  67
ATOM     67  N8  UNL     1       7.111   4.594   4.288 -0.08 -0.00    -0.326 N 
ATOM     68  C28 UNL     1       6.728   4.802   5.598 -0.25 +0.00    +0.222 C 
ATOM     69  O4  UNL     1       6.896   5.826   6.251 -0.17 -0.00    -0.273 OA
ATOM     70  H42 UNL     1       6.893   3.694   3.870 +0.07 +0.00    +0.169 HD
BRANCH  68  71
ATOM     71  C29 UNL     1       6.008   3.605   6.198 +0.05 +0.00    +0.103 C 
BRANCH  71  72
ATOM     72  C30 UNL     1       4.488   3.731   6.076 -0.39 +0.00    +0.011 C 
BRANCH  72  73
ATOM     73  C31 UNL     1       3.899   3.221   4.755 -0.23 +0.00    +0.030 C 
BRANCH  73  74
ATOM     74  C32 UNL     1       4.238   1.760   4.459 -0.22 +0.00    +0.267 C 
BRANCH  74  75
ATOM     75  N9  UNL     1       5.543   1.644   3.814 -0.30 +0.00    +0.078 N 
ATOM     76  H43 UNL     1       6.280   1.754   4.511 -0.32 +0.00    +0.312 HD
ATOM     77  H44 UNL     1       5.669   2.434   3.177 +0.13 +0.00    +0.312 HD
ENDBRANCH  74  75
ENDBRANCH  73  74
ENDBRANCH  72  73
ENDBRANCH  71  72
ENDBRANCH  68  71
ENDBRANCH  61  67
BRANCH  62  78
ATOM     78  S2  UNL     1       9.654   5.651   5.498 -0.34 -0.00    -0.124 SA
BRANCH  78  79
ATOM     79  C26 UNL     1      10.832   4.341   4.991 -0.36 +0.00    +0.109 C 
BRANCH  79  80
ATOM     80  C27 UNL     1      10.656   3.059   5.809 -0.21 +0.00    +0.277 C 
BRANCH  80  81
ATOM     81  N7  UNL     1       9.668   3.215   6.876 -0.44 +0.00    +0.079 N 
ATOM     82  H40 UNL     1       9.892   2.596   7.657 +0.24 +0.00    +0.312 HD
ATOM     83  H41 UNL     1       9.711   4.160   7.259 +0.23 +0.00    +0.312 HD
ENDBRANCH  80  81
ENDBRANCH  79  80
ENDBRANCH  78  79
ENDBRANCH  62  78
ENDBRANCH  53  57
ENDBRANCH   7  51
TORSDOF 24
TER
