USER    Run = 1
USER    DPF = ligand_427_receptor.dpf
USER  
USER    Estimated Free Energy of Binding    =   +7.13 kcal/mol  [=(1)+(2)+(3)-(4)]
USER    
USER    (1) Final Intermolecular Energy     =   +5.94 kcal/mol
USER        vdW + Hbond + desolv Energy     =   +5.94 kcal/mol
USER        Electrostatic Energy            =   +0.00 kcal/mol
USER    (2) Final Total Internal Energy     =   -0.77 kcal/mol
USER    (3) Torsional Free Energy           =   +1.19 kcal/mol
USER    (4) Unbound System's Energy  [=(2)] =   -0.77 kcal/mol
USER    
USER    
USER    NEWDPF move ligand_427.pdbqt
USER    NEWDPF about 0.000000 0.000000 0.000000
USER    NEWDPF tran0 17.693805 9.845692 2.820567
USER    NEWDPF quaternion0 -0.903466 0.013596 -0.082653 -0.420395
USER    NEWDPF axisangle0 -0.995730 0.014984 -0.091094 -130.280946
USER    NEWDPF quat0 -0.995730 0.014984 -0.091094 -130.280946
USER    NEWDPF dihe0 106.02 85.03 70.72 98.43 26.66 121.08 8.34 93.35 -32.22 165.68 -39.45 
USER  keepresnum = 1 
USER  
REMARK  11 active torsions:
REMARK  status: ('A' for Active; 'I' for Inactive)
REMARK    1  A    between atoms: C2_2  and  O1_37 
REMARK    2  A    between atoms: C5_5  and  O1_37 
REMARK       I    between atoms: C5_5  and  N1_43 
REMARK    3  A    between atoms: C8_8  and  N2_44 
REMARK       I    between atoms: C10_10  and  N2_44 
REMARK       I    between atoms: C10_10  and  N3_45 
REMARK    4  A    between atoms: C15_15  and  N4_46 
REMARK    5  A    between atoms: C16_16  and  C17_17 
REMARK       I    between atoms: C16_16  and  N4_46 
REMARK    6  A    between atoms: C20_20  and  N5_47 
REMARK    7  A    between atoms: C23_23  and  C24_24 
REMARK       I    between atoms: C23_23  and  N5_47 
REMARK    8  A    between atoms: C26_26  and  C28_28 
REMARK    9  A    between atoms: C30_30  and  C31_31 
REMARK   10  A    between atoms: C32_32  and  N8_51 
REMARK   11  A    between atoms: C34_34  and  N11_56 
USER                              x       y       z     vdW  Elec       q    Type
USER                           _______ _______ _______ _____ _____    ______ ____
ROOT
ATOM      1  C17 UNL     1      18.211   9.333   2.216 -0.39 +0.00    +0.053 A 
ATOM      2  C18 UNL     1      18.899   9.301   3.437 -0.21 +0.00    +0.051 A 
ATOM      3  C19 UNL     1      20.303   9.237   3.459 +0.27 +0.00    +0.054 A 
ATOM      4  C20 UNL     1      21.039   9.217   2.273 -0.09 +0.00    +0.036 A 
ATOM      5  C21 UNL     1      20.356   9.264   1.056 +3.34 +0.00    +0.030 A 
ATOM      6  C22 UNL     1      18.960   9.325   1.028 +1.10 +0.00    +0.021 A 
ATOM      7 CL1  UNL     1      18.115   9.373   4.979 +4.61 -0.00    -0.083 Cl
ENDROOT
BRANCH   4   8
ATOM      8  N5  UNL     1      22.441   9.154   2.216 -0.21 -0.00    -0.320 N 
ATOM      9  C23 UNL     1      23.373   9.789   3.016 -0.28 +0.00    +0.290 C 
ATOM     10  O5  UNL     1      23.114  10.546   3.945 -0.45 -0.00    -0.264 OA
ATOM     11  H37 UNL     1      22.865   8.579   1.489 +0.13 +0.00    +0.169 HD
BRANCH   9  12
ATOM     12  C24 UNL     1      24.737   9.454   2.610 -0.48 +0.00    +0.177 C 
ATOM     13  N6  UNL     1      25.785  10.108   3.089 -0.21 -0.00    -0.345 N 
ATOM     14  C25 UNL     1      26.883   9.480   2.564 +0.90 +0.00    +0.120 C 
ATOM     15  H6  UNL     1      25.775  10.912   3.717 +0.12 +0.00    +0.167 HD
ATOM     16  C26 UNL     1      26.523   8.419   1.759 -0.51 +0.00    +0.065 C 
ATOM     17  N7  UNL     1      25.144   8.475   1.726 -0.18 -0.00    -0.331 N 
ATOM     18  C27 UNL     1      24.262   7.725   0.865 -0.38 +0.00    +0.158 C 
BRANCH  16  19
ATOM     19  C28 UNL     1      27.491   7.398   1.069 -0.36 +0.00    +0.043 A 
ATOM     20  C29 UNL     1      27.095   6.344   0.276 -0.24 +0.00    +0.134 A 
ATOM     21  N8  UNL     1      28.232   5.673  -0.128 -0.12 -0.00    -0.250 N 
ATOM     22  N9  UNL     1      29.342   6.253   0.388 -0.09 -0.00    -0.288 N 
ATOM     23  C30 UNL     1      28.911   7.297   1.121 -0.26 +0.00    +0.146 A 
ATOM     24  H9  UNL     1      30.309   5.958   0.249 +0.08 +0.00    +0.187 HD
BRANCH  21  25
ATOM     25  C32 UNL     1      28.330   4.510  -0.965 -0.17 +0.00    +0.126 A 
ATOM     26  C36 UNL     1      27.330   4.219  -1.891 -0.26 +0.00    +0.053 A 
ATOM     27  C35 UNL     1      27.461   3.080  -2.688 -0.27 +0.00    +0.051 A 
ATOM     28  C34 UNL     1      28.584   2.266  -2.562 -0.09 +0.00    +0.208 A 
ATOM     29  C33 UNL     1      29.535   2.629  -1.620 -0.12 +0.00    +0.136 A 
ATOM     30  N10 UNL     1      29.427   3.713  -0.821 -0.04 -0.00    -0.348 N 
ATOM     31  H10 UNL     1      30.145   3.929  -0.130 +0.07 +0.00    +0.167 HD
BRANCH  28  32
ATOM     32  N11 UNL     1      28.741   1.039  -3.366 -0.12 +0.00    +0.041 N 
ATOM     33  O6  UNL     1      30.056   0.785  -3.589 -0.15 -0.00    -0.062 OA
ATOM     34  H38 UNL     1      28.276   0.242  -2.892 -0.21 +0.00    +0.366 HD
ATOM     35  H39 UNL     1      28.207   1.156  -4.250 +0.13 +0.00    +0.366 HD
ENDBRANCH  28  32
ENDBRANCH  21  25
BRANCH  23  36
ATOM     36  C31 UNL     1      29.884   8.184   1.848 +0.22 +0.00    +0.434 C 
ATOM     37  F1  UNL     1      29.337   8.715   2.977 +0.83 -0.00    -0.165 F 
ATOM     38  F2  UNL     1      30.330   9.235   1.111 +0.90 -0.00    -0.165 F 
ATOM     39  F3  UNL     1      30.990   7.497   2.245 -0.14 -0.00    -0.165 F 
ENDBRANCH  23  36
ENDBRANCH  16  19
ENDBRANCH   9  12
ENDBRANCH   4   8
BRANCH   1  40
ATOM     40  C16 UNL     1      16.729   9.390   2.053 -0.35 +0.00    +0.253 C 
ATOM     41  O4  UNL     1      16.225  10.334   1.449 -0.32 -0.00    -0.268 OA
ATOM     42  N4  UNL     1      15.989   8.337   2.549 -0.21 -0.00    -0.351 N 
ATOM     43  H36 UNL     1      16.450   7.626   3.106 -0.01 +0.00    +0.163 HD
BRANCH  42  44
ATOM     44  C15 UNL     1      14.562   8.319   2.482 +1.60 +0.00    +0.097 A 
ATOM     45  C12 UNL     1      13.798   7.099   2.928 +0.73 +0.00    +0.035 A 
ATOM     46  C11 UNL     1      12.440   6.808   2.383 -0.32 +0.00    +0.134 C 
ATOM     47  C13 UNL     1      13.731   8.344   3.741 -0.36 +0.00    +0.035 A 
ATOM     48  N3  UNL     1      11.622   7.936   2.814 -0.01 -0.00    -0.333 N 
ATOM     49  C10 UNL     1      10.272   8.089   2.621 +0.67 +0.00    +0.318 C 
ATOM     50  C14 UNL     1      12.316   8.830   3.730 +0.29 +0.00    +0.134 C 
ATOM     51  O3  UNL     1       9.616   8.967   3.174 -0.00 -0.00    -0.247 OA
ATOM     52  N2  UNL     1       9.705   7.177   1.769 -0.13 -0.00    -0.337 N 
ATOM     53  H35 UNL     1      10.313   6.871   1.024 +0.09 +0.00    +0.164 HD
BRANCH  52  54
ATOM     54  C8  UNL     1       8.295   7.282   1.444 -0.34 +0.00    +0.105 C 
ATOM     55  C7  UNL     1       7.422   7.439   2.690 -0.28 +0.00    +0.047 C 
ATOM     56  C6  UNL     1       6.046   7.016   2.199 -0.29 +0.00    +0.130 C 
ATOM     57  N1  UNL     1       6.323   6.002   1.201 -0.11 -0.00    -0.326 N 
ATOM     58  C5  UNL     1       5.401   5.157   0.643 -0.12 +0.00    +0.363 C 
ATOM     59  C9  UNL     1       7.707   6.035   0.766 -0.18 +0.00    +0.153 C 
ATOM     60  O2  UNL     1       5.678   4.326  -0.211 -0.12 -0.00    -0.238 OA
BRANCH  58  61
ATOM     61  O1  UNL     1       4.163   5.362   1.159 -0.42 -0.00    -0.294 OA
BRANCH  61  62
ATOM     62  C2  UNL     1       3.777   4.772   2.428 -0.14 +0.00    +0.061 C 
ATOM     63  C1  UNL     1       4.972   4.112   3.123 -0.14 +0.00    +0.046 C 
ATOM     64  C3  UNL     1       3.082   5.797   3.330 -0.16 +0.00    +0.046 C 
ATOM     65  C4  UNL     1       2.763   3.681   2.055 -0.09 +0.00    +0.046 C 
ENDBRANCH  61  62
ENDBRANCH  58  61
ENDBRANCH  52  54
ENDBRANCH  42  44
ENDBRANCH   1  40
TORSDOF 11
TER
