USER    Run = 1
USER    DPF = ligand_398_receptor.dpf
USER  
USER    Estimated Free Energy of Binding    =  +6.09e+005 kcal/mol  [=(1)+(2)+(3)-(4)]
USER    
USER    (1) Final Intermolecular Energy     =  +6.09e+005 kcal/mol
USER        vdW + Hbond + desolv Energy     =  +3.17e+005 kcal/mol
USER        Electrostatic Energy            =  +2.92e+005 kcal/mol
USER    (2) Final Total Internal Energy     =   +0.00 kcal/mol
USER    (3) Torsional Free Energy           =   +1.19 kcal/mol
USER    (4) Unbound System's Energy  [=(2)] =   +0.00 kcal/mol
USER    
USER    
USER    NEWDPF move ligand_398.pdbqt
USER    NEWDPF about 0.000000 0.000000 0.000000
USER    NEWDPF tran0 14.226626 6.607538 1.776575
USER    NEWDPF quaternion0 0.312712 0.184685 0.065704 -0.929401
USER    NEWDPF axisangle0 0.847292 0.500403 0.178026 -43.316778
USER    NEWDPF quat0 0.847292 0.500403 0.178026 -43.316778
USER  keepresnum = 1 
USER  
REMARK  0 active torsions:
REMARK  status: ('A' for Active; 'I' for Inactive)
REMARK       I    between atoms: C3_3  and  N1_44 
REMARK       I    between atoms: C4_4  and  C5_5 
REMARK       I    between atoms: C4_4  and  N1_44 
REMARK       I    between atoms: C11_11  and  N4_48 
REMARK       I    between atoms: C13_13  and  N1_44 
REMARK       I    between atoms: C16_16  and  C19_19 
REMARK       I    between atoms: C19_19  and  N5_49 
REMARK       I    between atoms: C20_20  and  C21_21 
REMARK       I    between atoms: C20_20  and  N5_49 
REMARK       I    between atoms: C21_21  and  C22_22 
REMARK       I    between atoms: C22_22  and  C23_23 
REMARK       I    between atoms: C23_23  and  O4_58 
REMARK       I    between atoms: C24_24  and  C25_25 
REMARK       I    between atoms: C24_24  and  O4_58 
REMARK       I    between atoms: C25_25  and  S1_71 
REMARK       I    between atoms: C26_26  and  C27_27 
REMARK       I    between atoms: C26_26  and  S2_72 
REMARK       I    between atoms: C27_27  and  C28_28 
REMARK       I    between atoms: C28_28  and  N6_50 
REMARK       I    between atoms: C29_29  and  C30_30 
REMARK       I    between atoms: C29_29  and  C32_32 
REMARK       I    between atoms: C29_29  and  N6_50 
REMARK       I    between atoms: C30_30  and  C31_31 
REMARK       I    between atoms: C31_31  and  O7_61 
REMARK       I    between atoms: C32_32  and  N7_51 
REMARK       I    between atoms: C33_33  and  C34_34 
REMARK       I    between atoms: C33_33  and  C36_36 
REMARK       I    between atoms: C33_33  and  N7_51 
REMARK       I    between atoms: C34_34  and  C35_35 
REMARK       I    between atoms: C35_35  and  O10_64 
REMARK       I    between atoms: C36_36  and  N8_52 
REMARK       I    between atoms: C37_37  and  C38_38 
REMARK       I    between atoms: C37_37  and  C40_40 
REMARK       I    between atoms: C37_37  and  N8_52 
REMARK       I    between atoms: C38_38  and  C39_39 
REMARK       I    between atoms: C39_39  and  O13_67 
REMARK       I    between atoms: C40_40  and  N9_53 
REMARK       I    between atoms: C41_41  and  C42_42 
REMARK       I    between atoms: C41_41  and  C43_43 
REMARK       I    between atoms: C41_41  and  N9_53 
REMARK       I    between atoms: C42_42  and  N10_54 
REMARK       I    between atoms: C43_43  and  O16_70 
REMARK       I    between atoms: S1_71  and  S2_72 
USER                              x       y       z     vdW  Elec       q    Type
USER                           _______ _______ _______ _____ _____    ______ ____
ROOT
ATOM      1  C1  UNL     1      25.570   5.079   0.605 -0.50 +0.00    +0.014 C 
ATOM      2  C2  UNL     1      25.784   6.252   0.747 -0.38 -0.00    -0.098 C 
ATOM      3  C3  UNL     1      26.050   7.690   0.919 -0.31 +0.00    +0.216 C 
ATOM      4  C4  UNL     1      26.066   8.589  -1.397+99.99 +0.00    +0.162 C 
ATOM      5  C5  UNL     1      27.183   9.617  -1.378+99.99 -0.00    -0.039 A 
ATOM      6  C6  UNL     1      28.349   9.381  -2.120+99.99 +0.00    +0.028 A 
ATOM      7  C7  UNL     1      29.374  10.335  -2.137+99.99 +0.00    +0.059 A 
ATOM      8  C8  UNL     1      29.268  11.537  -1.437+99.99 +0.00    +0.050 A 
ATOM      9  C9  UNL     1      28.104  11.777  -0.709+99.99 +0.00    +0.031 A 
ATOM     10  C10 UNL     1      27.071  10.832  -0.682+99.99 +0.00    +0.011 A 
ATOM     11  C11 UNL     1      31.357  12.265  -2.124+99.99 +0.00    +0.158 A 
ATOM     12  C12 UNL     1      30.611  10.111  -2.905+13.91 +0.00    +0.260 A 
ATOM     13  C13 UNL     1      24.040   8.881   0.026 -0.25 +0.00    +0.031 A 
ATOM     14  C14 UNL     1      23.460   9.845  -0.821 +1.57 +0.00    +0.030 A 
ATOM     15  C15 UNL     1      22.125  10.253  -0.693 +2.44 +0.00    +0.019 A 
ATOM     16  C16 UNL     1      21.312   9.702   0.296 -0.30 +0.00    +0.032 A 
ATOM     17  C17 UNL     1      21.860   8.767   1.172 +0.80 +0.00    +0.019 A 
ATOM     18  C18 UNL     1      23.200   8.371   1.034 -0.42 +0.00    +0.030 A 
ATOM     19  C19 UNL     1      19.899  10.158   0.397 -0.22 +0.00    +0.251 C 
ATOM     20  C20 UNL     1      17.587   9.556   1.015 -0.44 +0.00    +0.123 C 
ATOM     21  C21 UNL     1      16.877   9.379  -0.329 -0.32 +0.00    +0.029 C 
ATOM     22  C22 UNL     1      15.398   9.736  -0.256 +6.13 +0.00    +0.113 C 
ATOM     23  C23 UNL     1      14.624   8.698   0.514+99.99 +0.00    +0.258 C 
ATOM     24  C24 UNL     1      13.390   6.682   0.300 +1.08 +0.00    +0.189 C 
ATOM     25  C25 UNL     1      14.332   5.634   0.885+99.99 +0.00    +0.113 C 
ATOM     26  C26 UNL     1      10.673   4.914   2.071+11.74 +0.00    +0.095 C 
ATOM     27  C27 UNL     1      10.034   3.645   1.520+64.33 +0.00    +0.114 C 
ATOM     28  C28 UNL     1       8.703   3.957   0.873 -0.07 +0.00    +0.219 C 
ATOM     29  C29 UNL     1       6.658   2.928  -0.103 -0.06 +0.00    +0.186 C 
ATOM     30  C30 UNL     1       6.387   1.785  -1.072 -0.08 +0.00    +0.144 C 
ATOM     31  C31 UNL     1       7.111   2.019  -2.359 -0.09 +0.00    +0.141 C 
ATOM     32  C32 UNL     1       5.615   2.935   1.036 -0.05 +0.00    +0.241 C 
ATOM     33  C33 UNL     1       4.948   4.107   3.133 -0.10 +0.00    +0.186 C 
ATOM     34  C34 UNL     1       3.758   4.998   2.795 -0.13 +0.00    +0.144 C 
ATOM     35  C35 UNL     1       4.140   6.447   2.760 -0.13 +0.00    +0.141 C 
ATOM     36  C36 UNL     1       5.794   4.663   4.296 -0.14 +0.00    +0.241 C 
ATOM     37  C37 UNL     1       5.773   5.269   6.715 -0.37 +0.00    +0.186 C 
ATOM     38  C38 UNL     1       5.769   6.793   6.703 +1.61 +0.00    +0.144 C 
ATOM     39  C39 UNL     1       6.637   7.317   7.810+11.73 +0.00    +0.141 C 
ATOM     40  C40 UNL     1       4.945   4.710   7.886 +2.15 +0.00    +0.241 C 
ATOM     41  C41 UNL     1       3.645   2.706   8.431+11.77 +0.00    +0.210 C 
ATOM     42  C42 UNL     1       2.378   3.048   7.611 -0.28 +0.00    +0.302 C 
ATOM     43  C43 UNL     1       3.837   1.197   8.455+99.99 +0.00    +0.165 C 
ATOM     44  N1  UNL     1      25.369   8.494  -0.105 +0.06 -0.00    -0.366 N 
ATOM     45  N2  UNL     1      30.283  12.508  -1.443+48.53 -0.00    -0.332 N 
ATOM     46  H2  UNL     1      30.177  13.380  -0.926+99.99 +0.00    +0.168 HD
ATOM     47  N3  UNL     1      31.545  11.112  -2.824+99.99 -0.00    -0.299 N 
ATOM     48  N4  UNL     1      32.365  13.169  -2.158+99.99 -0.00    -0.274 NA
ATOM     49  N5  UNL     1      19.000   9.249   0.917 +0.89 -0.00    -0.357 N 
ATOM     50  N6  UNL     1       8.011   2.837   0.467 -0.01 -0.00    -0.347 N 
ATOM     51  N7  UNL     1       5.823   3.905   1.986 -0.00 -0.00    -0.345 N 
ATOM     52  N8  UNL     1       5.143   4.714   5.504 -0.11 -0.00    -0.345 N 
ATOM     53  N9  UNL     1       4.826   3.332   7.844 +4.88 -0.00    -0.343 N 
ATOM     54  N10 UNL     1       2.589   3.049   6.138 -0.21 +0.00    +0.080 N 
ATOM     55  O1  UNL     1      30.789   9.099  -3.572 -0.25 -0.00    -0.267 OA
ATOM     56  O2  UNL     1      19.580  11.273  -0.001 -0.43 -0.00    -0.268 OA
ATOM     57  O3  UNL     1      14.495   8.700   1.730+30.28 -0.00    -0.265 OA
ATOM     58  O4  UNL     1      14.144   7.741  -0.325 -0.06 -0.00    -0.321 OA
ATOM     59  O5  UNL     1       8.260   5.090   0.725 -0.07 -0.00    -0.274 OA
ATOM     60  O6  UNL     1       8.151   1.483  -2.707 -0.33 -0.00    -0.650 OA
ATOM     61  O7  UNL     1       6.500   2.920  -3.150 +0.04 -0.00    -0.776 OA
ATOM     62  O8  UNL     1       4.645   2.182   1.075 -0.08 -0.00    -0.271 OA
ATOM     63  O9  UNL     1       3.944   7.255   3.654 +0.07 -0.00    -0.650 OA
ATOM     64  O10 UNL     1       4.757   6.803   1.622 +0.53 -0.00    -0.776 OA
ATOM     65  O11 UNL     1       6.957   5.036   4.154 -0.13 -0.00    -0.271 OA
ATOM     66  O12 UNL     1       7.459   6.696   8.460 +0.47 -0.00    -0.650 OA
ATOM     67  O13 UNL     1       6.453   8.635   8.020 +5.22 -0.00    -0.776 OA
ATOM     68  O14 UNL     1       4.416   5.397   8.754+82.54 -0.00    -0.271 OA
ATOM     69  O15 UNL     1       4.464   0.536   7.639+99.99 -0.00    -0.648 OA
ATOM     70  O16 UNL     1       3.188   0.592   9.470 +4.00 -0.00    -0.775 OA
ATOM     71  S1  UNL     1      13.513   4.061   1.320+99.99 -0.00    -0.096 SA
ATOM     72  S2  UNL     1      12.274   4.570   2.883+99.99 -0.00    -0.097 SA
ATOM     73  H39 UNL     1      32.373  10.991  -3.384 +0.10 +0.00    +0.171 HD
ATOM     74  H40 UNL     1      32.235  13.894  -1.459 +0.08 +0.00    +0.127 HD
ATOM     75  H41 UNL     1      33.303  12.790  -2.148+99.99+99.99    +0.127 HD
ATOM     76  H42 UNL     1      19.286   8.290   1.050 +8.46 +0.00    +0.162 HD
ATOM     77  H43 UNL     1       8.309   1.940   0.835 +0.07 +0.00    +0.163 HD
ATOM     78  H44 UNL     1       6.556   4.600   1.829 +0.07 +0.00    +0.163 HD
ATOM     79  H45 UNL     1       4.177   4.383   5.582 +0.07 +0.00    +0.163 HD
ATOM     80  H46 UNL     1       5.180   2.881   7.006 -0.10 +0.00    +0.163 HD
ATOM     81  H47 UNL     1       1.689   3.269   5.702+99.99+99.99    +0.312 HD
ATOM     82  H48 UNL     1       2.790   2.086   5.846 +0.12 +0.00    +0.312 HD
ATOM     83  H49 UNL     1       7.074   2.979  -3.943 +0.03 +0.00    +0.167 HD
ATOM     84  H50 UNL     1       4.996   7.746   1.745 +0.09 +0.00    +0.167 HD
ATOM     85  H51 UNL     1       7.064   8.846   8.757 -0.13 +0.00    +0.167 HD
ATOM     86  H52 UNL     1       3.418  -0.358   9.380 +6.59 +0.00    +0.167 HD
ENDROOT
TORSDOF 38
TER
