USER    Run = 1
USER    DPF = ligand_248_receptor.dpf
USER  
USER    Estimated Free Energy of Binding    =  +2.09e+003 kcal/mol  [=(1)+(2)+(3)-(4)]
USER    
USER    (1) Final Intermolecular Energy     =  +2.09e+003 kcal/mol
USER        vdW + Hbond + desolv Energy     =  +2.09e+003 kcal/mol
USER        Electrostatic Energy            =   +0.00 kcal/mol
USER    (2) Final Total Internal Energy     =  +7.35e+003 kcal/mol
USER    (3) Torsional Free Energy           =   +1.19 kcal/mol
USER    (4) Unbound System's Energy  [=(2)] =  +7.35e+003 kcal/mol
USER    
USER    
USER    NEWDPF move ligand_248.pdbqt
USER    NEWDPF about 0.000000 0.000000 0.000000
USER    NEWDPF tran0 28.194793 9.980799 -0.134807
USER    NEWDPF quaternion0 0.103019 0.909857 0.393091 0.083819
USER    NEWDPF axisangle0 0.103383 0.913070 0.394480 170.383772
USER    NEWDPF quat0 0.103383 0.913070 0.394480 170.383772
USER    NEWDPF dihe0 -13.62 176.11 111.39 78.88 -59.03 179.89 -146.11 33.59 -180.00 179.10 177.31 177.31 120.29 -171.41 -171.41 111.50 -33.37 102.27 -41.69 92.84 40.42 111.18 -96.69 57.43 -85.95 -81.40 142.19 -108.42 -51.84 59.51 
USER  keepresnum = 1 
USER  
REMARK  30 active torsions:
REMARK  status: ('A' for Active; 'I' for Inactive)
REMARK    1  A    between atoms: C4_4  and  C5_5 
REMARK       I    between atoms: C5_5  and  N3_74 
REMARK    2  A    between atoms: C6_6  and  N3_74 
REMARK    3  A    between atoms: C8_8  and  C10_10 
REMARK       I    between atoms: C10_10  and  N5_76 
REMARK    4  A    between atoms: C11_11  and  N5_76 
REMARK    5  A    between atoms: C13_13  and  C15_15 
REMARK       I    between atoms: C15_15  and  N7_78 
REMARK    6  A    between atoms: C16_16  and  N7_78 
REMARK    7  A    between atoms: C18_18  and  C20_20 
REMARK       I    between atoms: C20_20  and  N9_80 
REMARK    8  A    between atoms: C21_21  and  N9_80 
REMARK    9  A    between atoms: C23_23  and  C25_25 
REMARK       I    between atoms: C25_25  and  N11_82 
REMARK   10  A    between atoms: C26_26  and  C27_27 
REMARK   11  A    between atoms: C26_26  and  N11_82 
REMARK   12  A    between atoms: C27_27  and  C28_28 
REMARK   13  A    between atoms: C28_28  and  C29_29 
REMARK       I    between atoms: C29_29  and  N12_83 
REMARK   14  A    between atoms: C30_30  and  N12_83 
REMARK   15  A    between atoms: C32_32  and  C33_33 
REMARK       I    between atoms: C33_33  and  N15_87 
REMARK   16  A    between atoms: C34_34  and  N15_87 
REMARK   17  A    between atoms: C36_36  and  C38_38 
REMARK       I    between atoms: C38_38  and  N17_89 
REMARK   18  A    between atoms: C39_39  and  N17_89 
REMARK   19  A    between atoms: C41_41  and  C43_43 
REMARK       I    between atoms: C43_43  and  N19_91 
REMARK   20  A    between atoms: C44_44  and  N19_91 
REMARK   21  A    between atoms: C46_46  and  C48_48 
REMARK       I    between atoms: C48_48  and  N21_93 
REMARK   22  A    between atoms: C49_49  and  N21_93 
REMARK   23  A    between atoms: C51_51  and  C53_53 
REMARK       I    between atoms: C53_53  and  N23_95 
REMARK   24  A    between atoms: C54_54  and  C55_55 
REMARK   25  A    between atoms: C54_54  and  N23_95 
REMARK   26  A    between atoms: C55_55  and  C56_56 
REMARK       I    between atoms: C56_56  and  N24_96 
REMARK   27  A    between atoms: C57_57  and  C58_58 
REMARK   28  A    between atoms: C57_57  and  N24_96 
REMARK   29  A    between atoms: C58_58  and  C59_59 
REMARK   30  A    between atoms: C59_59  and  N25_97 
USER                              x       y       z     vdW  Elec       q    Type
USER                           _______ _______ _______ _____ _____    ______ ____
ROOT
ATOM      1  C30 UNL     1      28.829   6.876  -1.572 -0.20 +0.00    +0.125 A 
ATOM      2  C31 UNL     1      28.712   5.519  -1.756 -0.14 +0.00    +0.140 A 
ATOM      3  C32 UNL     1      26.940   6.337  -0.706 -0.23 +0.00    +0.178 A 
ATOM      4  C66 UNL     1      26.938   3.863  -1.141 -0.16 +0.00    +0.157 C 
ATOM      5  N13 UNL     1      27.506   5.187  -1.199 -0.10 -0.00    -0.339 N 
ATOM      6  N14 UNL     1      27.738   7.371  -0.929 -0.16 -0.00    -0.323 N 
ATOM      7  H14 UNL     1      27.567   8.344  -0.672 +0.09 +0.00    +0.169 HD
ENDROOT
BRANCH   1   8
ATOM      8  N12 UNL     1      29.896   7.632  -1.981 -0.12 -0.00    -0.312 N 
ATOM      9  C29 UNL     1      30.722   8.338  -1.134 -0.16 +0.00    +0.223 C 
ATOM     10  O6  UNL     1      30.659   8.389   0.092 -0.15 -0.00    -0.273 OA
ATOM     11  H77 UNL     1      30.105   7.610  -2.980 +0.06 +0.00    +0.170 HD
BRANCH   9  12
ATOM     12  C28 UNL     1      31.828   9.076  -1.867 -0.19 +0.00    +0.105 C 
BRANCH  12  13
ATOM     13  C27 UNL     1      32.372  10.248  -1.051 -0.26 +0.00    +0.029 C 
BRANCH  13  14
ATOM     14  C26 UNL     1      31.579  10.583   0.213 -0.10 +0.00    +0.123 C 
BRANCH  14  15
ATOM     15  N11 UNL     1      30.270   9.961   0.233 +1.10 -0.00    -0.356 N 
ATOM     16  C25 UNL     1      29.483   9.808  -0.885+31.32 +0.00    +0.268 C 
ATOM     17  O5  UNL     1      29.879  10.163  -1.994+10.08 -0.00    -0.266 OA
ATOM     18  H76 UNL     1      29.950   9.574   1.110 +0.60 +0.00    +0.162 HD
BRANCH  16  19
ATOM     19  C23 UNL     1      28.192   9.179  -0.656+39.35 +0.00    +0.104 A 
ATOM     20  C24 UNL     1      26.910   9.638  -0.945+99.99 +0.00    +0.066 A 
ATOM     21  C21 UNL     1      25.966   8.662  -0.537 +4.16 +0.00    +0.053 A 
ATOM     22  C22 UNL     1      26.685   7.622  -0.007 -0.28 +0.00    +0.120 A 
ATOM     23  N10 UNL     1      28.019   7.928  -0.089 -0.14 -0.00    -0.354 N 
ATOM     24  C67 UNL     1      29.072   7.050   0.378 -0.23 +0.00    +0.156 C 
BRANCH  21  25
ATOM     25  N9  UNL     1      24.595   8.783  -0.669 +0.59 -0.00    -0.320 N 
ATOM     26  C20 UNL     1      23.735   9.365   0.248 -0.02 +0.00    +0.273 C 
ATOM     27  O4  UNL     1      24.088   9.840   1.324 -0.26 -0.00    -0.266 OA
ATOM     28  H75 UNL     1      24.198   8.385  -1.506 +0.12 +0.00    +0.169 HD
BRANCH  26  29
ATOM     29  C18 UNL     1      22.331   9.361  -0.168 -0.33 +0.00    +0.105 A 
ATOM     30  C19 UNL     1      21.322   8.437   0.090+25.66 +0.00    +0.066 A 
ATOM     31  C16 UNL     1      20.127   8.871  -0.527+10.28 +0.00    +0.053 A 
ATOM     32  C17 UNL     1      20.418  10.051  -1.165+99.99 +0.00    +0.120 A 
ATOM     33  N8  UNL     1      21.743  10.339  -0.955 +7.02 -0.00    -0.354 N 
ATOM     34  C68 UNL     1      22.403  11.518  -1.481+10.08 +0.00    +0.156 C 
BRANCH  31  35
ATOM     35  N7  UNL     1      18.869   8.299  -0.547+34.80 -0.00    -0.320 N 
ATOM     36  C15 UNL     1      17.746   8.806   0.080 +0.48 +0.00    +0.273 C 
ATOM     37  O3  UNL     1      17.742   9.836   0.750 -0.31 -0.00    -0.266 OA
ATOM     38  H74 UNL     1      18.790   7.430  -1.054+32.81 +0.00    +0.169 HD
BRANCH  36  39
ATOM     39  C13 UNL     1      16.538   8.003  -0.109 -0.26 +0.00    +0.105 A 
ATOM     40  C14 UNL     1      15.246   8.202   0.373 +0.86 +0.00    +0.066 A 
ATOM     41  C11 UNL     1      14.416   7.151  -0.080 +2.91 +0.00    +0.053 A 
ATOM     42  C12 UNL     1      15.208   6.317  -0.829+67.11 +0.00    +0.120 A 
ATOM     43  N6  UNL     1      16.482   6.827  -0.841+11.32 -0.00    -0.354 N 
ATOM     44  C69 UNL     1      17.589   6.209  -1.542+99.99 +0.00    +0.156 C 
BRANCH  41  45
ATOM     45  N5  UNL     1      13.071   6.917   0.131 -0.21 -0.00    -0.320 N 
ATOM     46  C10 UNL     1      12.342   5.875  -0.415 -0.29 +0.00    +0.273 C 
ATOM     47  O2  UNL     1      12.819   5.031  -1.170 +7.64 -0.00    -0.266 OA
ATOM     48  H73 UNL     1      12.596   7.581   0.724 +0.09 +0.00    +0.169 HD
BRANCH  46  49
ATOM     49  C8  UNL     1      10.933   5.856  -0.022 -0.26 +0.00    +0.105 A 
ATOM     50  C9  UNL     1       9.883   5.064  -0.485 -0.16 +0.00    +0.066 A 
ATOM     51  C6  UNL     1       8.701   5.418   0.204 -0.14 +0.00    +0.053 A 
ATOM     52  C7  UNL     1       9.034   6.425   1.075 -0.19 +0.00    +0.120 A 
ATOM     53  N4  UNL     1      10.374   6.688   0.936 -0.13 -0.00    -0.354 N 
ATOM     54  C70 UNL     1      11.077   7.696   1.703 +1.52 +0.00    +0.156 C 
BRANCH  51  55
ATOM     55  N3  UNL     1       7.423   4.917   0.093 -0.03 -0.00    -0.319 N 
ATOM     56  C5  UNL     1       6.318   5.332   0.811 -0.11 +0.00    +0.290 C 
ATOM     57  O1  UNL     1       6.315   6.221   1.658 -0.17 -0.00    -0.264 OA
ATOM     58  H72 UNL     1       7.254   4.169  -0.575 +0.05 +0.00    +0.169 HD
BRANCH  56  59
ATOM     59  C4  UNL     1       5.127   4.578   0.438 -0.13 +0.00    +0.176 A 
ATOM     60  N1  UNL     1       4.113   4.992  -0.394 -0.08 -0.00    -0.342 N 
ATOM     61  C1  UNL     1       4.025   6.264  -1.068 +8.31 +0.00    +0.157 C 
ATOM     62  C2  UNL     1       3.192   3.983  -0.473 +0.06 +0.00    +0.109 A 
ATOM     63  C3  UNL     1       3.688   2.981   0.325 -0.07 +0.00    +0.107 A 
ATOM     64  N2  UNL     1       4.881   3.352   0.885 -0.01 -0.00    -0.346 N 
ATOM     65  H2  UNL     1       5.462   2.800   1.517 +0.06 +0.00    +0.167 HD
ENDBRANCH  56  59
ENDBRANCH  51  55
ENDBRANCH  46  49
ENDBRANCH  41  45
ENDBRANCH  36  39
ENDBRANCH  31  35
ENDBRANCH  26  29
ENDBRANCH  21  25
ENDBRANCH  16  19
ENDBRANCH  14  15
ENDBRANCH  13  14
ENDBRANCH  12  13
ENDBRANCH   9  12
ENDBRANCH   1   8
BRANCH   3  66
ATOM     66  C33 UNL     1      25.660   6.481  -0.025 -0.25 +0.00    +0.290 C 
ATOM     67  N15 UNL     1      25.817   7.155   1.171 -0.16 -0.00    -0.319 N 
ATOM     68  H78 UNL     1      26.774   7.437   1.378 +0.12 +0.00    +0.169 HD
ATOM     69  O7  UNL     1      24.606   6.048  -0.481 -0.31 -0.00    -0.264 OA
BRANCH  67  70
ATOM     70  C34 UNL     1      24.832   7.469   2.081 -0.32 +0.00    +0.053 A 
ATOM     71  C35 UNL     1      24.905   7.464   3.449 +1.96 +0.00    +0.120 A 
ATOM     72  N16 UNL     1      23.684   7.839   3.948 +4.54 -0.00    -0.354 N 
ATOM     73  C36 UNL     1      22.802   8.109   2.915 +0.35 +0.00    +0.105 A 
ATOM     74  C65 UNL     1      23.396   7.947   5.364+45.53 +0.00    +0.156 C 
ATOM     75  C37 UNL     1      23.516   7.868   1.744 -0.33 +0.00    +0.066 A 
BRANCH  73  76
ATOM     76  C38 UNL     1      21.416   8.536   3.099 +0.41 +0.00    +0.273 C 
ATOM     77  N17 UNL     1      21.283   9.820   3.597 +0.35 -0.00    -0.320 N 
ATOM     78  H79 UNL     1      22.116  10.330   3.845 +0.12 +0.00    +0.169 HD
ATOM     79  O8  UNL     1      20.467   7.797   2.843+10.92 -0.00    -0.266 OA
BRANCH  77  80
ATOM     80  C39 UNL     1      20.086  10.465   3.839+83.17 +0.00    +0.053 A 
ATOM     81  C40 UNL     1      19.895  11.801   3.589+99.99 +0.00    +0.120 A 
ATOM     82  N18 UNL     1      18.606  12.125   3.931+19.09 -0.00    -0.354 N 
ATOM     83  C41 UNL     1      17.940  11.009   4.412 +6.18 +0.00    +0.105 A 
ATOM     84  C64 UNL     1      18.052  13.458   3.804+99.99 +0.00    +0.156 C 
ATOM     85  C42 UNL     1      18.863   9.968   4.346+28.41 +0.00    +0.066 A 
BRANCH  83  86
ATOM     86  C43 UNL     1      16.547  11.005   4.863+14.07 +0.00    +0.273 C 
ATOM     87  N19 UNL     1      15.874   9.823   4.602 +1.04 -0.00    -0.320 N 
ATOM     88  H80 UNL     1      16.387   9.073   4.167 +0.12 +0.00    +0.169 HD
ATOM     89  O9  UNL     1      16.047  11.974   5.427+99.99 -0.00    -0.266 OA
BRANCH  87  90
ATOM     90  C44 UNL     1      14.552   9.553   4.904 +7.63 +0.00    +0.053 A 
ATOM     91  C45 UNL     1      13.810   9.997   5.967+22.85 +0.00    +0.120 A 
ATOM     92  N20 UNL     1      12.548   9.467   5.870+25.84 -0.00    -0.354 N 
ATOM     93  C46 UNL     1      12.437   8.692   4.726 +0.88 +0.00    +0.105 A 
ATOM     94  C63 UNL     1      11.497   9.719   6.835+23.88 +0.00    +0.156 C 
ATOM     95  C47 UNL     1      13.696   8.730   4.129 +0.03 +0.00    +0.066 A 
BRANCH  93  96
ATOM     96  C48 UNL     1      11.220   7.995   4.316 -0.30 +0.00    +0.273 C 
ATOM     97  N21 UNL     1      10.191   8.075   5.240 +0.19 -0.00    -0.320 N 
ATOM     98  H81 UNL     1      10.376   8.534   6.119 +0.10 +0.00    +0.169 HD
ATOM     99  O10 UNL     1      11.146   7.384   3.254 -0.26 -0.00    -0.266 OA
BRANCH  97 100
ATOM    100  C49 UNL     1       8.930   7.527   5.103+38.79 +0.00    +0.053 A 
ATOM    101  C50 UNL     1       8.327   6.566   5.875+17.45 +0.00    +0.120 A 
ATOM    102  N22 UNL     1       7.063   6.340   5.389 +1.04 -0.00    -0.354 N 
ATOM    103  C51 UNL     1       6.852   7.105   4.259+19.68 +0.00    +0.104 A 
ATOM    104  C62 UNL     1       6.102   5.489   6.057 -0.30 +0.00    +0.156 C 
ATOM    105  C52 UNL     1       7.997   7.877   4.098+13.09 +0.00    +0.066 A 
BRANCH 103 106
ATOM    106  C53 UNL     1       5.668   7.161   3.429 +7.30 +0.00    +0.268 C 
ATOM    107  N23 UNL     1       5.302   8.426   3.024+10.77 -0.00    -0.355 N 
ATOM    108  H82 UNL     1       5.713   9.178   3.563 +6.90 +0.00    +0.162 HD
ATOM    109  O11 UNL     1       5.037   6.159   3.107 -0.16 -0.00    -0.266 OA
BRANCH 107 110
ATOM    110  C54 UNL     1       4.037   8.750   2.381+99.99 +0.00    +0.132 C 
BRANCH 110 111
ATOM    111  C55 UNL     1       3.295   9.999   2.841 +7.22 +0.00    +0.122 C 
BRANCH 111 112
ATOM    112  C56 UNL     1       3.746  10.474   4.202 +0.25 +0.00    +0.219 C 
ATOM    113  N24 UNL     1       3.884   9.468   5.137 +6.95 -0.00    -0.361 N 
ATOM    114  H83 UNL     1       3.425   8.584   4.895 +0.07 +0.00    +0.162 HD
ATOM    115  O12 UNL     1       3.994  11.650   4.452 +2.12 -0.00    -0.274 OA
BRANCH 113 116
ATOM    116  C57 UNL     1       4.074   9.751   6.542 +1.79 +0.00    +0.124 C 
BRANCH 116 117
ATOM    117  C58 UNL     1       4.911   8.694   7.264 +2.70 +0.00    +0.047 C 
BRANCH 117 118
ATOM    118  C59 UNL     1       5.121   9.024   8.740 +2.54 +0.00    +0.235 C 
BRANCH 118 119
ATOM    119  N25 UNL     1       4.601  10.418   9.066 +1.03 -0.00    -0.079 N 
ATOM    120  C60 UNL     1       4.066  10.467  10.475+31.00 +0.00    +0.269 C 
ATOM    121  C61 UNL     1       5.615  11.505   8.842+31.37 +0.00    +0.269 C 
ATOM    122  H84 UNL     1       3.802  10.601   8.446 +0.15 +0.00    +0.278 HD
ENDBRANCH 118 119
ENDBRANCH 117 118
ENDBRANCH 116 117
ENDBRANCH 113 116
ENDBRANCH 111 112
ENDBRANCH 110 111
ENDBRANCH 107 110
ENDBRANCH 103 106
ENDBRANCH  97 100
ENDBRANCH  93  96
ENDBRANCH  87  90
ENDBRANCH  83  86
ENDBRANCH  77  80
ENDBRANCH  73  76
ENDBRANCH  67  70
ENDBRANCH   3  66
TORSDOF 30
TER
