USER    Run = 1
USER    DPF = ligand_463_receptor.dpf
USER  
USER    Estimated Free Energy of Binding    =  +3.73e+005 kcal/mol  [=(1)+(2)+(3)-(4)]
USER    
USER    (1) Final Intermolecular Energy     =  +3.73e+005 kcal/mol
USER        vdW + Hbond + desolv Energy     =  +2.98e+005 kcal/mol
USER        Electrostatic Energy            =  +7.49e+004 kcal/mol
USER    (2) Final Total Internal Energy     =   +0.00 kcal/mol
USER    (3) Torsional Free Energy           =   +1.19 kcal/mol
USER    (4) Unbound System's Energy  [=(2)] =   +0.00 kcal/mol
USER    
USER    
USER    NEWDPF move ligand_463.pdbqt
USER    NEWDPF about 0.000000 0.000000 0.000000
USER    NEWDPF tran0 16.461161 7.596773 4.381157
USER    NEWDPF quaternion0 -0.409298 0.647012 -0.601058 0.229304
USER    NEWDPF axisangle0 -0.420503 0.664723 -0.617512 153.487772
USER    NEWDPF quat0 -0.420503 0.664723 -0.617512 153.487772
USER  keepresnum = 1 
USER  
REMARK  0 active torsions:
REMARK  status: ('A' for Active; 'I' for Inactive)
REMARK       I    between atoms: C6_6  and  O2_77 
REMARK       I    between atoms: C10_10  and  O12_87 
REMARK       I    between atoms: C11_11  and  O11_86 
REMARK       I    between atoms: C12_12  and  O10_85 
REMARK       I    between atoms: C15_15  and  O9_84 
REMARK       I    between atoms: C16_16  and  O8_83 
REMARK       I    between atoms: C17_17  and  O7_82 
REMARK       I    between atoms: C24_24  and  O48_123 
REMARK       I    between atoms: C25_25  and  O47_122 
REMARK       I    between atoms: C26_26  and  O46_121 
REMARK       I    between atoms: C29_29  and  O45_120 
REMARK       I    between atoms: C30_30  and  O44_119 
REMARK       I    between atoms: C31_31  and  O17_92 
REMARK       I    between atoms: C35_35  and  O17_92 
REMARK       I    between atoms: C36_36  and  O43_118 
REMARK       I    between atoms: C37_37  and  O42_117 
REMARK       I    between atoms: C38_38  and  O41_116 
REMARK       I    between atoms: C40_40  and  C41_41 
REMARK       I    between atoms: C41_41  and  O19_94 
REMARK       I    between atoms: C42_42  and  O19_94 
REMARK       I    between atoms: C43_43  and  O36_111 
REMARK       I    between atoms: C44_44  and  O31_106 
REMARK       I    between atoms: C51_51  and  O30_105 
REMARK       I    between atoms: C52_52  and  O29_104 
REMARK       I    between atoms: C53_53  and  O28_103 
REMARK       I    between atoms: C56_56  and  O27_102 
REMARK       I    between atoms: C57_57  and  O26_101 
REMARK       I    between atoms: C58_58  and  O25_100 
REMARK       I    between atoms: C62_62  and  C63_63 
REMARK       I    between atoms: C62_62  and  O31_106 
REMARK       I    between atoms: C65_65  and  O35_110 
REMARK       I    between atoms: C66_66  and  O34_109 
REMARK       I    between atoms: C67_67  and  O33_108 
REMARK       I    between atoms: C69_69  and  C70_70 
REMARK       I    between atoms: C69_69  and  O36_111 
REMARK       I    between atoms: C72_72  and  O40_115 
REMARK       I    between atoms: C73_73  and  O39_114 
REMARK       I    between atoms: C74_74  and  O38_113 
USER                              x       y       z     vdW  Elec       q    Type
USER                           _______ _______ _______ _____ _____    ______ ____
ROOT
ATOM      1  C1  UNL     1      16.649   6.769   9.953+99.99 +0.00    +0.213 C 
ATOM      2  C2  UNL     1      15.483   7.363   9.135+28.02 +0.00    +0.181 C 
ATOM      3  C3  UNL     1      15.075   6.527   7.909 +0.76 +0.00    +0.195 C 
ATOM      4  C4  UNL     1      13.817   7.142   7.273 -0.17 +0.00    +0.198 C 
ATOM      5  C5  UNL     1      14.091   8.634   6.976+14.44 +0.00    +0.219 C 
ATOM      6  C6  UNL     1      14.704   9.392   8.171+99.99 +0.00    +0.289 C 
ATOM      7  C7  UNL     1      11.743   9.168   6.890 +1.87 +0.00    +0.295 C 
ATOM      8  C8  UNL     1      10.783   9.249   5.773 +5.56 +0.00    +0.056 A 
ATOM      9  C9  UNL     1      10.792  10.405   4.970+99.99 +0.00    +0.058 A 
ATOM     10  C10 UNL     1       9.897  10.499   3.918+99.99 +0.00    +0.102 A 
ATOM     11  C11 UNL     1       8.987   9.477   3.691 +7.04 +0.00    +0.133 A 
ATOM     12  C12 UNL     1       8.988   8.330   4.485+12.95 +0.00    +0.114 A 
ATOM     13  C13 UNL     1       9.909   8.158   5.527 +5.69 +0.00    +0.030 A 
ATOM     14  C14 UNL     1      10.002   6.876   6.284 +0.60 +0.00    +0.030 A 
ATOM     15  C15 UNL     1       8.935   6.391   7.063 +3.09 +0.00    +0.114 A 
ATOM     16  C16 UNL     1       9.072   5.250   7.858 -0.28 +0.00    +0.133 A 
ATOM     17  C17 UNL     1      10.251   4.523   7.860 -0.37 +0.00    +0.102 A 
ATOM     18  C18 UNL     1      11.307   4.920   7.065 -0.37 +0.00    +0.058 A 
ATOM     19  C19 UNL     1      11.191   6.096   6.302 -0.29 +0.00    +0.056 A 
ATOM     20  C20 UNL     1      12.337   6.422   5.426 -0.23 +0.00    +0.294 C 
ATOM     21  C21 UNL     1      15.400   4.215   7.554+21.59 +0.00    +0.294 C 
ATOM     22  C22 UNL     1      15.419   2.959   8.327+99.99 +0.00    +0.056 A 
ATOM     23  C23 UNL     1      14.187   2.467   8.797+99.99 +0.00    +0.058 A 
ATOM     24  C24 UNL     1      14.148   1.274   9.504+99.99 +0.00    +0.102 A 
ATOM     25  C25 UNL     1      15.328   0.589   9.758+99.99 +0.00    +0.133 A 
ATOM     26  C26 UNL     1      16.559   1.093   9.311+99.99 +0.00    +0.114 A 
ATOM     27  C27 UNL     1      16.643   2.285   8.567+99.99 +0.00    +0.030 A 
ATOM     28  C28 UNL     1      17.952   2.797   8.072+99.99 +0.00    +0.030 A 
ATOM     29  C29 UNL     1      18.700   2.099   7.106+99.99 +0.00    +0.114 A 
ATOM     30  C30 UNL     1      19.956   2.552   6.668+74.73 +0.00    +0.134 A 
ATOM     31  C31 UNL     1      20.495   3.740   7.155+82.22 +0.00    +0.113 A 
ATOM     32  C32 UNL     1      19.776   4.462   8.106+99.99 +0.00    +0.058 A 
ATOM     33  C33 UNL     1      18.528   3.999   8.554+99.99 +0.00    +0.056 A 
ATOM     34  C34 UNL     1      17.861   4.774   9.613+99.99 +0.00    +0.294 C 
ATOM     35  C35 UNL     1      22.170   4.170   5.547+99.99 +0.00    +0.128 A 
ATOM     36  C36 UNL     1      23.325   3.419   5.294+99.99 +0.00    +0.137 A 
ATOM     37  C37 UNL     1      23.860   3.360   4.014+18.12 +0.00    +0.135 A 
ATOM     38  C38 UNL     1      23.251   4.041   2.971+29.36 +0.00    +0.102 A 
ATOM     39  C39 UNL     1      22.094   4.776   3.192+86.31 +0.00    +0.060 A 
ATOM     40  C40 UNL     1      21.569   4.873   4.492+99.99 +0.00    +0.079 A 
ATOM     41  C41 UNL     1      20.486   5.845   4.742+99.23 +0.00    +0.298 C 
ATOM     42  C42 UNL     1      18.617   6.842   3.740 +8.51 +0.00    +0.302 C 
ATOM     43  C43 UNL     1      19.122   8.080   2.931 +1.99 +0.00    +0.220 C 
ATOM     44  C44 UNL     1      18.487   8.036   1.530+29.79 +0.00    +0.198 C 
ATOM     45  C45 UNL     1      16.961   8.158   1.682 -0.37 +0.00    +0.195 C 
ATOM     46  C46 UNL     1      16.454   7.302   2.860 +1.49 +0.00    +0.181 C 
ATOM     47  C47 UNL     1      15.095   6.656   2.568+99.99 +0.00    +0.213 C 
ATOM     48  C48 UNL     1      13.726   8.628   2.590+19.75 +0.00    +0.294 C 
ATOM     49  C49 UNL     1      12.822   9.377   1.685+99.99 +0.00    +0.056 A 
ATOM     50  C50 UNL     1      11.806   8.627   1.055+99.99 +0.00    +0.058 A 
ATOM     51  C51 UNL     1      10.957   9.243   0.155+99.99 +0.00    +0.102 A 
ATOM     52  C52 UNL     1      11.103  10.590  -0.121+99.99 +0.00    +0.133 A 
ATOM     53  C53 UNL     1      12.088  11.349   0.516+99.99 +0.00    +0.114 A 
ATOM     54  C54 UNL     1      12.982  10.772   1.447+99.99 +0.00    +0.030 A 
ATOM     55  C55 UNL     1      14.019  11.605   2.123 +9.02 +0.00    +0.030 A 
ATOM     56  C56 UNL     1      13.644  12.664   2.973+99.99 +0.00    +0.114 A 
ATOM     57  C57 UNL     1      14.590  13.462   3.619+99.99 +0.00    +0.133 A 
ATOM     58  C58 UNL     1      15.947  13.239   3.451+14.03 +0.00    +0.102 A 
ATOM     59  C59 UNL     1      16.373  12.214   2.627 +0.25 +0.00    +0.058 A 
ATOM     60  C60 UNL     1      15.415  11.405   1.973 -0.08 +0.00    +0.056 A 
ATOM     61  C61 UNL     1      15.944  10.284   1.174 -0.19 +0.00    +0.294 C 
ATOM     62  C62 UNL     1      19.986   8.904  -0.110+19.46 +0.00    +0.294 C 
ATOM     63  C63 UNL     1      20.170  10.075  -0.996+88.91 +0.00    +0.045 A 
ATOM     64  C64 UNL     1      19.060  10.790  -1.480+99.99 +0.00    +0.057 A 
ATOM     65  C65 UNL     1      19.267  11.881  -2.316+29.05 +0.00    +0.102 A 
ATOM     66  C66 UNL     1      20.560  12.256  -2.666+99.99 +0.00    +0.132 A 
ATOM     67  C67 UNL     1      21.653  11.538  -2.194+99.99 +0.00    +0.102 A 
ATOM     68  C68 UNL     1      21.473  10.441  -1.364+99.99 +0.00    +0.057 A 
ATOM     69  C69 UNL     1      21.178   9.292   2.961 -0.23 +0.00    +0.294 C 
ATOM     70  C70 UNL     1      22.649   9.103   2.880 -0.44 +0.00    +0.045 A 
ATOM     71  C71 UNL     1      23.208   8.002   2.216 -0.18 +0.00    +0.057 A 
ATOM     72  C72 UNL     1      24.587   7.835   2.212 -0.30 +0.00    +0.102 A 
ATOM     73  C73 UNL     1      25.413   8.775   2.825 -0.48 +0.00    +0.132 A 
ATOM     74  C74 UNL     1      24.862   9.887   3.457 -0.40 +0.00    +0.102 A 
ATOM     75  C75 UNL     1      23.478  10.055   3.491 -0.48 +0.00    +0.057 A 
ATOM     76  O1  UNL     1      15.830   8.694   8.702+99.99 -0.00    -0.349 OA
ATOM     77  O2  UNL     1      13.785   9.616   9.219 +1.74 -0.00    -0.368 OA
ATOM     78  O3  UNL     1      12.974   9.316   6.361 +0.95 -0.00    -0.304 OA
ATOM     79  O4  UNL     1      11.446   8.819   8.015 +3.86 -0.00    -0.259 OA
ATOM     80  O5  UNL     1      12.175   6.558   4.221 -0.24 -0.00    -0.259 OA
ATOM     81  O6  UNL     1      13.563   6.446   6.010 -0.28 -0.00    -0.306 OA
ATOM     82  O7  UNL     1      10.370   3.399   8.628 +1.01 -0.00    -0.358 OA
ATOM     83  O8  UNL     1       8.029   4.815   8.634 -0.18 -0.00    -0.356 OA
ATOM     84  O9  UNL     1       7.693   6.982   7.083+59.35 -0.00    -0.357 OA
ATOM     85  O10 UNL     1       8.040   7.369   4.229 +0.88 -0.00    -0.357 OA
ATOM     86  O11 UNL     1       8.079   9.568   2.670+50.31 -0.00    -0.356 OA
ATOM     87  O12 UNL     1       9.875  11.578   3.082+99.99 -0.00    -0.358 OA
ATOM     88  O13 UNL     1      14.816   5.171   8.319 -0.26 -0.00    -0.307 OA
ATOM     89  O14 UNL     1      15.943   4.353   6.474+99.99 -0.00    -0.259 OA
ATOM     90  O15 UNL     1      17.580   4.300  10.699+99.99 -0.00    -0.259 OA
ATOM     91  O16 UNL     1      17.544   6.001   9.131+99.99 -0.00    -0.315 OA
ATOM     92  O17 UNL     1      21.745   4.236   6.853+83.83 -0.00    -0.304 OA
ATOM     93  O18 UNL     1      20.456   6.605   5.696+99.99 -0.00    -0.259 OA
ATOM     94  O19 UNL     1      19.597   5.798   3.722+10.72 -0.00    -0.283 OA
ATOM     95  O20 UNL     1      17.408   6.291   3.184 +0.05 -0.00    -0.348 OA
ATOM     96  O21 UNL     1      14.155   7.529   1.921 +1.77 -0.00    -0.315 OA
ATOM     97  O22 UNL     1      14.111   9.026   3.674 -0.16 -0.00    -0.259 OA
ATOM     98  O23 UNL     1      15.712  10.072   0.001 +0.38 -0.00    -0.259 OA
ATOM     99  O24 UNL     1      16.635   9.522   2.048 -0.26 -0.00    -0.307 OA
ATOM    100  O25 UNL     1      16.815  14.053   4.117+12.42 -0.00    -0.358 OA
ATOM    101  O26 UNL     1      14.143  14.479   4.421+99.99+99.99    -0.356 OA
ATOM    102  O27 UNL     1      12.318  12.978   3.179+17.20 -0.00    -0.357 OA
ATOM    103  O28 UNL     1      12.102  12.679   0.160+99.99 -0.00    -0.357 OA
ATOM    104  O29 UNL     1      10.250  11.176  -1.019+52.80 -0.00    -0.356 OA
ATOM    105  O30 UNL     1       9.981   8.517  -0.459 +2.12 -0.00    -0.358 OA
ATOM    106  O31 UNL     1      18.912   9.124   0.682 +1.17 -0.00    -0.306 OA
ATOM    107  O32 UNL     1      20.715   7.928  -0.095+99.99 -0.00    -0.259 OA
ATOM    108  O33 UNL     1      22.917  11.909  -2.546+72.94 -0.00    -0.358 OA
ATOM    109  O34 UNL     1      20.773  13.331  -3.485+99.99 -0.00    -0.356 OA
ATOM    110  O35 UNL     1      18.227  12.610  -2.821+99.99 -0.00    -0.358 OA
ATOM    111  O36 UNL     1      20.562   8.092   2.854 +3.13 -0.00    -0.304 OA
ATOM    112  O37 UNL     1      20.635  10.371   3.135 +0.03 -0.00    -0.259 OA
ATOM    113  O38 UNL     1      25.686  10.801   4.051+25.44 -0.00    -0.358 OA
ATOM    114  O39 UNL     1      26.768   8.585   2.795 -0.39 -0.00    -0.356 OA
ATOM    115  O40 UNL     1      25.177   6.751   1.620 -0.19 -0.00    -0.358 OA
ATOM    116  O41 UNL     1      23.816   4.041   1.727 -0.22 -0.00    -0.358 OA
ATOM    117  O42 UNL     1      25.000   2.646   3.763+99.99 -0.00    -0.356 OA
ATOM    118  O43 UNL     1      23.971   2.726   6.285+99.99 -0.00    -0.356 OA
ATOM    119  O44 UNL     1      20.646   1.769   5.783+99.99 -0.00    -0.356 OA
ATOM    120  O45 UNL     1      18.285   0.914   6.541+24.37 -0.00    -0.357 OA
ATOM    121  O46 UNL     1      17.659   0.336   9.643+99.99 -0.00    -0.357 OA
ATOM    122  O47 UNL     1      15.310  -0.589  10.454 +1.78 -0.00    -0.356 OA
ATOM    123  O48 UNL     1      12.958   0.775   9.947 +4.89 -0.00    -0.358 OA
ATOM    124  H26 UNL     1      14.116  10.382   9.716 +3.35 +0.00    +0.212 HD
ATOM    125  H27 UNL     1       9.495   3.321   9.066 +0.19 +0.00    +0.217 HD
ATOM    126  H28 UNL     1       7.328   5.484   8.483 +0.14 +0.00    +0.218 HD
ATOM    127  H29 UNL     1       7.550   7.343   6.183+52.97 +0.00    +0.217 HD
ATOM    128  H30 UNL     1       7.631   7.648   3.381 +0.12 +0.00    +0.217 HD
ATOM    129  H31 UNL     1       8.313  10.401   2.208+99.99 +0.00    +0.218 HD
ATOM    130  H32 UNL     1      10.728  12.053   3.167 +0.39 +0.00    +0.217 HD
ATOM    131  H33 UNL     1      17.728  13.757   3.939 +1.16 +0.00    +0.217 HD
ATOM    132  H34 UNL     1      14.961  14.896   4.767+99.99+99.99    +0.218 HD
ATOM    133  H35 UNL     1      12.352  13.750   3.791 +0.09 +0.00    +0.217 HD
ATOM    134  H36 UNL     1      12.577  13.179   0.845+99.99 +0.00    +0.217 HD
ATOM    135  H37 UNL     1      10.558  12.104  -1.072 -0.15 +0.00    +0.218 HD
ATOM    136  H38 UNL     1       9.537   9.149  -1.061 +0.16 +0.00    +0.217 HD
ATOM    137  H39 UNL     1      22.798  12.684  -3.133+99.99 +0.00    +0.217 HD
ATOM    138  H40 UNL     1      19.875  13.657  -3.699+31.54 +0.00    +0.218 HD
ATOM    139  H41 UNL     1      17.393  12.175  -2.564+99.99 +0.00    +0.217 HD
ATOM    140  H42 UNL     1      25.159  11.532   4.406 +0.97 +0.00    +0.217 HD
ATOM    141  H43 UNL     1      26.891   7.760   2.286 +0.14 +0.00    +0.218 HD
ATOM    142  H44 UNL     1      24.490   6.083   1.418 +0.17 +0.00    +0.217 HD
ATOM    143  H45 UNL     1      24.567   3.414   1.804 +0.74 +0.00    +0.217 HD
ATOM    144  H46 UNL     1      25.246   2.270   4.634+34.17 +0.00    +0.218 HD
ATOM    145  H47 UNL     1      23.406   2.803   7.079+99.99 +0.00    +0.218 HD
ATOM    146  H48 UNL     1      20.044   1.024   5.575+99.99 +0.00    +0.218 HD
ATOM    147  H49 UNL     1      17.362   0.730   6.790 +0.04 +0.00    +0.217 HD
ATOM    148  H50 UNL     1      18.461   0.882   9.570 +1.84 +0.00    +0.217 HD
ATOM    149  H51 UNL     1      16.245  -0.860  10.531 +0.35 +0.00    +0.218 HD
ATOM    150  H52 UNL     1      12.233   1.374   9.696 +2.39 +0.00    +0.217 HD
ENDROOT
TORSDOF 38
TER
