USER    Run = 1
USER    DPF = ligand_268_receptor.dpf
USER  
USER    Estimated Free Energy of Binding    = +277.54 kcal/mol  [=(1)+(2)+(3)-(4)]
USER    
USER    (1) Final Intermolecular Energy     = +276.35 kcal/mol
USER        vdW + Hbond + desolv Energy     = +276.35 kcal/mol
USER        Electrostatic Energy            =   +0.00 kcal/mol
USER    (2) Final Total Internal Energy     =   +7.12 kcal/mol
USER    (3) Torsional Free Energy           =   +1.19 kcal/mol
USER    (4) Unbound System's Energy  [=(2)] =   +7.12 kcal/mol
USER    
USER    
USER    NEWDPF move ligand_268.pdbqt
USER    NEWDPF about 0.000000 0.000000 0.000000
USER    NEWDPF tran0 16.879494 7.457428 3.101820
USER    NEWDPF quaternion0 0.145513 0.118254 0.128531 -0.973818
USER    NEWDPF axisangle0 0.640099 0.520191 0.565397 -26.279691
USER    NEWDPF quat0 0.640099 0.520191 0.565397 -26.279691
USER    NEWDPF dihe0 166.60 39.93 180.00 21.99 -158.15 -64.53 -153.49 41.41 180.00 -23.22 -80.63 151.35 -119.25 -28.62 162.97 -176.51 -10.92 -131.81 
USER  keepresnum = 1 
USER  
REMARK  18 active torsions:
REMARK  status: ('A' for Active; 'I' for Inactive)
REMARK    1  A    between atoms: C3_3  and  N1_55 
REMARK    2  A    between atoms: C4_4  and  O2_43 
REMARK    3  A    between atoms: C5_5  and  O1_42 
REMARK    4  A    between atoms: C7_7  and  C8_8 
REMARK       I    between atoms: C7_7  and  N1_55 
REMARK    5  A    between atoms: C10_10  and  C35_35 
REMARK    6  A    between atoms: C12_12  and  N2_56 
REMARK       I    between atoms: C14_14  and  N2_56 
REMARK       I    between atoms: C14_14  and  N3_57 
REMARK    7  A    between atoms: C15_15  and  N3_57 
REMARK    8  A    between atoms: C17_17  and  C28_28 
REMARK    9  A    between atoms: C19_19  and  C21_21 
REMARK       I    between atoms: C21_21  and  N4_58 
REMARK   10  A    between atoms: C22_22  and  N4_58 
REMARK   11  A    between atoms: C23_23  and  O7_48 
REMARK   12  A    between atoms: C24_24  and  O6_47 
REMARK       I    between atoms: C28_28  and  N5_59 
REMARK   13  A    between atoms: C29_29  and  N5_59 
REMARK   14  A    between atoms: C30_30  and  O10_51 
REMARK   15  A    between atoms: C31_31  and  O9_50 
REMARK       I    between atoms: C35_35  and  N6_60 
REMARK   16  A    between atoms: C36_36  and  N6_60 
REMARK   17  A    between atoms: C37_37  and  O13_54 
REMARK   18  A    between atoms: C38_38  and  O12_53 
USER                              x       y       z     vdW  Elec       q    Type
USER                           _______ _______ _______ _____ _____    ______ ____
ROOT
ATOM      1  C14 UNL     1      16.598   8.415   1.663 -0.31 +0.00    +0.281 C 
ATOM      2  O4  UNL     1      17.017   7.644   2.519 -0.63 -0.00    -0.260 OA
ATOM      3  N2  UNL     1      15.268   8.542   1.286 +0.99 -0.00    -0.212 NA
ATOM      4  N3  UNL     1      17.389   9.295   0.933 -0.31 -0.00    -0.212 NA
ATOM      5  H22 UNL     1      15.205   8.567   0.271 -0.43 +0.00    +0.138 HD
ATOM      6  H23 UNL     1      16.946  10.208   0.903 +0.11 +0.00    +0.138 HD
ENDROOT
BRANCH   3   7
ATOM      7  C12 UNL     1      14.277   7.743   1.922 +4.91 +0.00    +0.051 A 
ATOM      8  C11 UNL     1      14.159   7.683   3.328 -0.32 +0.00    +0.046 A 
ATOM      9  C10 UNL     1      13.236   6.793   3.919 -0.33 +0.00    +0.068 A 
ATOM     10  I5  UNL     1      15.224   9.087   4.567 +3.12 -0.00    -0.042 I 
ATOM     11  C9  UNL     1      12.391   6.002   3.118 +1.14 +0.00    +0.040 A 
ATOM     12  C8  UNL     1      12.456   6.125   1.718 +0.18 +0.00    +0.068 A 
ATOM     13  I6  UNL     1      11.024   4.631   4.020 +1.89 -0.00    -0.042 I 
ATOM     14  C13 UNL     1      13.390   6.994   1.121 +2.88 +0.00    +0.046 A 
ATOM     15  I1  UNL     1      13.520   7.167  -1.009+21.06 -0.00    -0.042 I 
BRANCH   9  16
ATOM     16  C35 UNL     1      13.133   6.719   5.390 -0.30 +0.00    +0.258 C 
ATOM     17  O11 UNL     1      14.102   7.061   6.055 -0.31 -0.00    -0.267 OA
ATOM     18  N6  UNL     1      11.921   6.262   5.849 -0.12 -0.00    -0.320 N 
ATOM     19  H26 UNL     1      11.234   6.027   5.142 +0.11 +0.00    +0.169 HD
BRANCH  18  20
ATOM     20  C36 UNL     1      11.488   6.062   7.185 -0.24 +0.00    +0.071 A 
ATOM     21  C37 UNL     1      10.240   5.598   7.619 +0.08 +0.00    +0.126 A 
ATOM     22  C38 UNL     1       9.980   5.465   8.990 +2.67 +0.00    +0.101 A 
ATOM     23  C39 UNL     1      10.928   5.779   9.950 +7.94 +0.00    +0.039 A 
ATOM     24  C40 UNL     1      12.171   6.239   9.536 +0.29 +0.00    +0.005 A 
ATOM     25  C41 UNL     1      12.446   6.378   8.170 -0.34 +0.00    +0.032 A 
BRANCH  21  26
ATOM     26  O13 UNL     1       9.184   5.242   6.823 -0.17 -0.00    -0.356 OA
ATOM     27  H20 UNL     1       8.521   4.771   7.372 +0.15 +0.00    +0.218 HD
ENDBRANCH  21  26
BRANCH  22  28
ATOM     28  O12 UNL     1       8.755   5.013   9.403 +0.34 -0.00    -0.358 OA
ATOM     29  H19 UNL     1       8.541   4.302   8.763 +0.15 +0.00    +0.217 HD
ENDBRANCH  22  28
ENDBRANCH  18  20
ENDBRANCH   9  16
BRANCH  12  30
ATOM     30  C7  UNL     1      11.589   5.290   0.863 +3.89 +0.00    +0.258 C 
ATOM     31  O3  UNL     1      12.137   4.516   0.091 +2.43 -0.00    -0.267 OA
ATOM     32  N1  UNL     1      10.246   5.508   1.057 -0.06 -0.00    -0.320 N 
ATOM     33  H21 UNL     1       9.941   6.186   1.752 +0.08 +0.00    +0.169 HD
BRANCH  32  34
ATOM     34  C3  UNL     1       9.171   4.879   0.401 -0.12 +0.00    +0.071 A 
ATOM     35  C2  UNL     1       9.251   4.276  -0.854 -0.14 +0.00    +0.032 A 
ATOM     36  C1  UNL     1       8.118   3.673  -1.420 -0.12 +0.00    +0.005 A 
ATOM     37  C6  UNL     1       6.897   3.669  -0.741 -0.09 +0.00    +0.039 A 
ATOM     38  C5  UNL     1       6.819   4.272   0.507 -0.08 +0.00    +0.101 A 
ATOM     39  C4  UNL     1       7.944   4.870   1.070 -0.09 +0.00    +0.126 A 
BRANCH  38  40
ATOM     40  O1  UNL     1       5.656   4.303   1.225 -0.04 -0.00    -0.358 OA
ATOM     41  H13 UNL     1       5.826   4.778   2.058 +0.08 +0.00    +0.217 HD
ENDBRANCH  38  40
BRANCH  39  42
ATOM     42  O2  UNL     1       7.842   5.462   2.307 -0.05 -0.00    -0.356 OA
ATOM     43  H14 UNL     1       7.066   5.025   2.714 +0.09 +0.00    +0.218 HD
ENDBRANCH  39  42
ENDBRANCH  32  34
ENDBRANCH  12  30
ENDBRANCH   3   7
BRANCH   4  44
ATOM     44  C15 UNL     1      18.792   9.323   1.170 +0.57 +0.00    +0.051 A 
ATOM     45  C16 UNL     1      19.326   9.780   2.395 -0.38 +0.00    +0.046 A 
ATOM     46  C17 UNL     1      20.721   9.912   2.549 -0.36 +0.00    +0.068 A 
ATOM     47  I4  UNL     1      18.026  10.081   4.086 +5.08 -0.00    -0.042 I 
ATOM     48  C18 UNL     1      21.593   9.538   1.507 -0.33 +0.00    +0.040 A 
ATOM     49  C19 UNL     1      21.059   9.014   0.314 +5.18 +0.00    +0.068 A 
ATOM     50  I3  UNL     1      23.705   9.777   1.715 +0.14 -0.00    -0.042 I 
ATOM     51  C20 UNL     1      19.666   8.897   0.148+26.55 +0.00    +0.046 A 
ATOM     52  I2  UNL     1      18.836   8.144  -1.676+63.14 -0.00    -0.042 I 
BRANCH  46  53
ATOM     53  C28 UNL     1      21.278  10.415   3.823+10.56 +0.00    +0.258 C 
ATOM     54  O8  UNL     1      21.605  11.593   3.861 +7.88 -0.00    -0.267 OA
ATOM     55  N5  UNL     1      21.435   9.431   4.782 +6.46 -0.00    -0.320 N 
ATOM     56  H25 UNL     1      21.470   8.476   4.449 +1.04 +0.00    +0.169 HD
BRANCH  55  57
ATOM     57  C29 UNL     1      21.870   9.638   6.109 +6.21 +0.00    +0.071 A 
ATOM     58  C30 UNL     1      22.983  10.402   6.472 +4.85 +0.00    +0.126 A 
ATOM     59  C31 UNL     1      23.355  10.521   7.816+21.90 +0.00    +0.101 A 
ATOM     60  C32 UNL     1      22.612   9.913   8.820 +3.82 +0.00    +0.039 A 
ATOM     61  C33 UNL     1      21.470   9.192   8.473 -0.49 +0.00    +0.005 A 
ATOM     62  C34 UNL     1      21.097   9.066   7.129 +3.19 +0.00    +0.032 A 
BRANCH  58  63
ATOM     63  O10 UNL     1      23.684  11.137   5.555 +8.14 -0.00    -0.356 OA
ATOM     64  H18 UNL     1      23.040  11.357   4.856 -0.25 +0.00    +0.218 HD
ENDBRANCH  58  63
BRANCH  59  65
ATOM     65  O9  UNL     1      24.460  11.279   8.104 +1.56 -0.00    -0.358 OA
ATOM     66  H17 UNL     1      24.179  12.034   8.647 +0.12 +0.00    +0.217 HD
ENDBRANCH  59  65
ENDBRANCH  55  57
ENDBRANCH  46  53
BRANCH  49  67
ATOM     67  C21 UNL     1      21.956   8.560  -0.768 +1.03 +0.00    +0.258 C 
ATOM     68  O5  UNL     1      22.381   9.398  -1.552+28.45 -0.00    -0.267 OA
ATOM     69  N4  UNL     1      22.232   7.213  -0.754 +0.08 -0.00    -0.320 N 
ATOM     70  H24 UNL     1      21.776   6.667  -0.033 +0.66 +0.00    +0.169 HD
BRANCH  69  71
ATOM     71  C22 UNL     1      23.066   6.464  -1.623 +0.30 +0.00    +0.071 A 
ATOM     72  C23 UNL     1      23.759   5.282  -1.336 +1.37 +0.00    +0.126 A 
ATOM     73  C24 UNL     1      24.537   4.667  -2.327 +1.88 +0.00    +0.101 A 
ATOM     74  C25 UNL     1      24.651   5.194  -3.602 +8.66 +0.00    +0.039 A 
ATOM     75  C26 UNL     1      23.971   6.367  -3.904 +5.17 +0.00    +0.005 A 
ATOM     76  C27 UNL     1      23.188   6.992  -2.925 +4.31 +0.00    +0.032 A 
BRANCH  72  77
ATOM     77  O7  UNL     1      23.769   4.614  -0.140 -0.27 -0.00    -0.356 OA
ATOM     78  H16 UNL     1      24.592   4.083  -0.082 +0.15 +0.00    +0.218 HD
ENDBRANCH  72  77
BRANCH  73  79
ATOM     79  O6  UNL     1      25.209   3.510  -2.034 -0.18 -0.00    -0.358 OA
ATOM     80  H15 UNL     1      24.569   2.998  -1.497 +0.18 +0.00    +0.217 HD
ENDBRANCH  73  79
ENDBRANCH  69  71
ENDBRANCH  49  67
ENDBRANCH   4  44
TORSDOF 18
TER
