USER    Run = 1
USER    DPF = ligand_184_receptor.dpf
USER  
USER    Estimated Free Energy of Binding    =  +1.00e+003 kcal/mol  [=(1)+(2)+(3)-(4)]
USER    
USER    (1) Final Intermolecular Energy     =  +1.00e+003 kcal/mol
USER        vdW + Hbond + desolv Energy     =  +1.00e+003 kcal/mol
USER        Electrostatic Energy            =   +0.00 kcal/mol
USER    (2) Final Total Internal Energy     =   +0.00 kcal/mol
USER    (3) Torsional Free Energy           =   +1.19 kcal/mol
USER    (4) Unbound System's Energy  [=(2)] =   +0.00 kcal/mol
USER    
USER    
USER    NEWDPF move ligand_184.pdbqt
USER    NEWDPF about 0.000000 0.000000 0.000000
USER    NEWDPF tran0 13.023998 7.021868 2.182871
USER    NEWDPF quaternion0 -0.959584 -0.012470 -0.052745 0.276154
USER    NEWDPF axisangle0 -0.998409 -0.012975 -0.054879 147.938436
USER    NEWDPF quat0 -0.998409 -0.012975 -0.054879 147.938436
USER  keepresnum = 1 
USER  
REMARK  0 active torsions:
REMARK  status: ('A' for Active; 'I' for Inactive)
REMARK       I    between atoms: C2_2  and  C3_3 
REMARK       I    between atoms: C2_2  and  O16_62 
REMARK       I    between atoms: C3_3  and  C4_4 
REMARK       I    between atoms: C3_3  and  N11_74 
REMARK       I    between atoms: C4_4  and  N1_63 
REMARK       I    between atoms: C5_5  and  C6_6 
REMARK       I    between atoms: C5_5  and  C7_7 
REMARK       I    between atoms: C5_5  and  N1_63 
REMARK       I    between atoms: C6_6  and  O2_48 
REMARK       I    between atoms: C7_7  and  N2_64 
REMARK       I    between atoms: C8_8  and  C9_9 
REMARK       I    between atoms: C8_8  and  N2_64 
REMARK       I    between atoms: C9_9  and  C10_10 
REMARK       I    between atoms: C9_9  and  N4_66 
REMARK       I    between atoms: C10_10  and  C11_11 
REMARK       I    between atoms: C11_11  and  C12_12 
REMARK       I    between atoms: C12_12  and  N3_65 
REMARK       I    between atoms: C13_13  and  N3_65 
REMARK       I    between atoms: C15_15  and  N4_66 
REMARK       I    between atoms: C20_20  and  C21_21 
REMARK       I    between atoms: C20_20  and  N4_66 
REMARK       I    between atoms: C21_21  and  N6_68 
REMARK       I    between atoms: C23_23  and  C24_24 
REMARK       I    between atoms: C23_23  and  N6_68 
REMARK       I    between atoms: C27_27  and  C28_28 
REMARK       I    between atoms: C28_28  and  C29_29 
REMARK       I    between atoms: C28_28  and  N9_72 
REMARK       I    between atoms: C29_29  and  C30_30 
REMARK       I    between atoms: C33_33  and  O11_57 
REMARK       I    between atoms: C36_36  and  C37_37 
REMARK       I    between atoms: C36_36  and  N9_72 
REMARK       I    between atoms: C37_37  and  C38_38 
REMARK       I    between atoms: C38_38  and  C39_39 
REMARK       I    between atoms: C39_39  and  C40_40 
REMARK       I    between atoms: C39_39  and  N10_73 
REMARK       I    between atoms: C40_40  and  O14_60 
REMARK       I    between atoms: C41_41  and  C42_42 
REMARK       I    between atoms: C41_41  and  N11_74 
REMARK       I    between atoms: C42_42  and  C43_43 
REMARK       I    between atoms: C42_42  and  N13_76 
REMARK       I    between atoms: C43_43  and  C44_44 
REMARK       I    between atoms: C44_44  and  C45_45 
REMARK       I    between atoms: C45_45  and  C46_46 
REMARK       I    between atoms: C46_46  and  N12_75 
REMARK       I    between atoms: O6_52  and  N3_65 
REMARK       I    between atoms: O8_54  and  N5_67 
USER                              x       y       z     vdW  Elec       q    Type
USER                           _______ _______ _______ _____ _____    ______ ____
ROOT
ATOM      1  C1  UNL     1      18.327   8.619  -1.726 +8.96 +0.00    +0.042 C 
ATOM      2  C2  UNL     1      18.398  10.091  -1.330+25.19 +0.00    +0.146 C 
ATOM      3  C3  UNL     1      19.147  10.343  -0.002 -0.08 +0.00    +0.205 C 
ATOM      4  C4  UNL     1      18.524   9.579   1.185 -0.13 +0.00    +0.243 C 
ATOM      5  C5  UNL     1      16.470   9.272   2.560 -0.40 +0.00    +0.200 C 
ATOM      6  C6  UNL     1      16.149   7.791   2.305 +1.12 +0.00    +0.199 C 
ATOM      7  C7  UNL     1      15.203  10.129   2.769 +0.37 +0.00    +0.249 C 
ATOM      8  C8  UNL     1      12.985   9.442   3.228 +7.23 +0.00    +0.247 C 
ATOM      9  C9  UNL     1      12.080   8.478   4.062 -0.21 +0.00    +0.180 C 
ATOM     10  C10 UNL     1      12.811   7.481   4.980 -0.45 +0.00    +0.036 C 
ATOM     11  C11 UNL     1      13.188   8.099   6.333 -0.46 +0.00    +0.020 C 
ATOM     12  C12 UNL     1      14.271   7.294   7.050 +1.64 +0.00    +0.130 C 
ATOM     13  C13 UNL     1      16.572   6.384   6.675+33.15 +0.00    +0.218 C 
ATOM     14  C14 UNL     1      16.234   5.071   7.324+99.99 +0.00    +0.113 C 
ATOM     15  C15 UNL     1      11.619   7.090   1.955 -0.20 +0.00    +0.182 C 
ATOM     16  C16 UNL     1      12.067   5.629   2.142 +2.60 +0.00    +0.037 C 
ATOM     17  C17 UNL     1      12.632   5.023   0.851+18.03 +0.00    +0.025 C 
ATOM     18  C18 UNL     1      12.100   5.687  -0.416 -0.33 +0.00    +0.159 C 
ATOM     19  C19 UNL     1      10.583   7.197   0.796 +0.00 +0.00    +0.266 C 
ATOM     20  C20 UNL     1       9.903   7.254   3.696 -0.27 +0.00    +0.243 C 
ATOM     21  C21 UNL     1       9.269   7.929   4.937+16.04 +0.00    +0.172 C 
ATOM     22  C22 UNL     1       8.619   9.246   4.534+99.99 +0.00    +0.042 C 
ATOM     23  C23 UNL     1       8.656   5.975   6.299 +0.86 +0.00    +0.241 C 
ATOM     24  C24 UNL     1       7.578   4.882   6.520 -0.35 +0.00    +0.176 C 
ATOM     25  C25 UNL     1       8.161   3.584   7.050 -0.43 +0.00    +0.054 C 
ATOM     26  C26 UNL     1       9.053   2.942   5.995 +0.10 +0.00    +0.123 C 
ATOM     27  C27 UNL     1       7.535   3.783   4.349 -0.27 +0.00    +0.097 C 
ATOM     28  C28 UNL     1       7.110   3.912   2.849 -0.14 +0.00    +0.155 C 
ATOM     29  C29 UNL     1       7.223   2.541   2.142 -0.23 +0.00    +0.071 C 
ATOM     30  C30 UNL     1       6.941   2.616   0.654 -0.10 -0.00    -0.056 A 
ATOM     31  C31 UNL     1       5.853   1.929   0.097 -0.13 +0.00    +0.010 A 
ATOM     32  C32 UNL     1       5.570   2.044  -1.265 -0.08 +0.00    +0.037 A 
ATOM     33  C33 UNL     1       6.373   2.839  -2.074 -0.08 +0.00    +0.065 A 
ATOM     34  C34 UNL     1       7.468   3.511  -1.545 -0.09 +0.00    +0.037 A 
ATOM     35  C35 UNL     1       7.754   3.395  -0.183 -0.09 +0.00    +0.010 A 
ATOM     36  C36 UNL     1       5.556   5.854   2.778 -0.16 +0.00    +0.218 C 
ATOM     37  C37 UNL     1       4.363   6.393   2.016 +0.33 +0.00    +0.105 C 
ATOM     38  C38 UNL     1       4.458   6.249   0.492 +5.88 +0.00    +0.056 C 
ATOM     39  C39 UNL     1       5.151   7.429  -0.208+23.53 +0.00    +0.315 C 
ATOM     40  C40 UNL     1       6.674   7.403  -0.014 -0.32 +0.00    +0.173 C 
ATOM     41  C41 UNL     1      21.493  10.697  -0.748 +7.29 +0.00    +0.251 C 
ATOM     42  C42 UNL     1      22.953  10.220  -0.553 +0.14 +0.00    +0.308 C 
ATOM     43  C43 UNL     1      23.435  10.566   0.864 +3.40 +0.00    +0.045 C 
ATOM     44  C44 UNL     1      24.862  10.107   1.198 +1.64 +0.00    +0.004 C 
ATOM     45  C45 UNL     1      25.121   8.602   1.067 -0.45 +0.00    +0.030 C 
ATOM     46  C46 UNL     1      24.192   7.692   1.873 -0.21 +0.00    +0.267 C 
ATOM     47  O1  UNL     1      19.180   8.799   1.879 +1.56 -0.00    -0.271 OA
ATOM     48  O2  UNL     1      15.226   7.628   1.227 +9.74 -0.00    -0.398 OA
ATOM     49  O3  UNL     1      15.104  11.246   2.256 -0.19 -0.00    -0.271 OA
ATOM     50  O4  UNL     1      12.502  10.057   2.277+93.17 -0.00    -0.271 OA
ATOM     51  O5  UNL     1      17.732   6.758   6.494+47.96 -0.00    -0.278 OA
ATOM     52  O6  UNL     1      15.952   8.455   5.818+67.58 -0.00    -0.306 OA
ATOM     53  O7  UNL     1       9.688   8.044   0.747 +0.55 -0.00    -0.269 OA
ATOM     54  O8  UNL     1      10.075   6.454  -1.396 -0.15 -0.00    -0.285 OA
ATOM     55  O9  UNL     1       9.301   6.345   3.115 -0.16 -0.00    -0.271 OA
ATOM     56  O10 UNL     1       9.747   5.975   6.869 -0.19 -0.00    -0.271 OA
ATOM     57  O11 UNL     1       6.052   2.938  -3.394 -0.08 -0.00    -0.361 OA
ATOM     58  O12 UNL     1       6.208   6.553   3.551 +0.01 -0.00    -0.274 OA
ATOM     59  O13 UNL     1       7.464   6.733  -0.666 +0.17 -0.00    -0.648 OA
ATOM     60  O14 UNL     1       7.084   8.216   0.976 +0.06 -0.00    -0.775 OA
ATOM     61  O15 UNL     1      21.188  11.638  -1.478+15.76 -0.00    -0.271 OA
ATOM     62  O16 UNL     1      17.061  10.601  -1.244 +7.34 -0.00    -0.393 OA
ATOM     63  N1  UNL     1      17.202   9.840   1.428 -0.19 -0.00    -0.344 N 
ATOM     64  N2  UNL     1      14.283   9.628   3.662 +2.15 -0.00    -0.294 N 
ATOM     65  N3  UNL     1      15.501   7.173   6.263 +6.88 -0.00    -0.133 NA
ATOM     66  N4  UNL     1      11.119   7.732   3.202 -0.20 -0.00    -0.323 N 
ATOM     67  N5  UNL     1      10.780   6.237  -0.190 -0.21 -0.00    -0.227 N 
ATOM     68  N6  UNL     1       8.264   7.013   5.466+28.34 -0.00    -0.346 N 
ATOM     69  N7  UNL     1       8.530   3.009   4.627 -0.10 -0.00    -0.378 N 
ATOM     70  H7  UNL     1       8.953   2.441   3.893 -0.47 +0.00    +0.160 HD
ATOM     71  N8  UNL     1       6.880   4.547   5.289 -0.11 -0.00    -0.365 N 
ATOM     72  N9  UNL     1       5.772   4.502   2.638 -0.01 -0.00    -0.349 N 
ATOM     73  N10 UNL     1       4.869   7.364  -1.663+17.93 +0.00    +0.093 N 
ATOM     74  N11 UNL     1      20.560   9.967  -0.055 -0.01 -0.00    -0.344 N 
ATOM     75  N12 UNL     1      24.283   7.934   3.307 +0.21 +0.00    +0.078 N 
ATOM     76  N13 UNL     1      23.816  10.844  -1.574+19.48 +0.00    +0.092 N 
ATOM     77  H56 UNL     1      15.607   8.107   0.464 -0.11 +0.00    +0.209 HD
ATOM     78  H57 UNL     1      16.919   8.411   6.023 +5.93 +0.00    +0.237 HD
ATOM     79  H58 UNL     1       9.174   6.695  -1.073 +0.13 +0.00    +0.245 HD
ATOM     80  H59 UNL     1       6.726   3.487  -3.830 +0.05 +0.00    +0.217 HD
ATOM     81  H60 UNL     1       8.078   8.167   0.966 +0.09 +0.00    +0.167 HD
ATOM     82  H61 UNL     1      16.740  10.720  -2.157+10.94 +0.00    +0.210 HD
ATOM     83  H62 UNL     1      16.723  10.534   0.846 +0.13 +0.00    +0.163 HD
ATOM     84  H63 UNL     1      14.656   8.950   4.316 +0.09 +0.00    +0.171 HD
ATOM     85  H64 UNL     1       7.548   6.773   4.776 +0.11 +0.00    +0.163 HD
ATOM     86  H65 UNL     1       6.315   5.299   4.900 +0.08 +0.00    +0.161 HD
ATOM     87  H66 UNL     1       5.223   4.041   1.925 +0.05 +0.00    +0.163 HD
ATOM     88  H67 UNL     1       3.878   7.198  -1.822 +0.13 +0.00    +0.314 HD
ATOM     89  H68 UNL     1       5.366   6.560  -2.051+71.05 +0.00    +0.314 HD
ATOM     90  H69 UNL     1      20.860   9.281   0.634 +0.12 +0.00    +0.163 HD
ATOM     91  H70 UNL     1      23.649   7.306   3.799 +2.77 +0.00    +0.312 HD
ATOM     92  H71 UNL     1      23.972   8.878   3.526 +0.26 +0.00    +0.312 HD
ATOM     93  H72 UNL     1      23.402  10.663  -2.491 +0.48 +0.00    +0.313 HD
ATOM     94  H73 UNL     1      23.730  11.859  -1.474 +0.36 +0.00    +0.313 HD
ENDROOT
TORSDOF 38
TER
