USER    Run = 1
USER    DPF = ligand_72_receptor.dpf
USER  
USER    Estimated Free Energy of Binding    =  -11.25 kcal/mol  [=(1)+(2)+(3)-(4)]
USER    Estimated Inhibition Constant, Ki   =    5.70 nM (nanomolar)  [Temperature = 298.15 K]
USER    
USER    (1) Final Intermolecular Energy     =  -12.44 kcal/mol
USER        vdW + Hbond + desolv Energy     =  -12.44 kcal/mol
USER        Electrostatic Energy            =   +0.00 kcal/mol
USER    (2) Final Total Internal Energy     =   -2.73 kcal/mol
USER    (3) Torsional Free Energy           =   +1.19 kcal/mol
USER    (4) Unbound System's Energy  [=(2)] =   -2.73 kcal/mol
USER    
USER    
USER    NEWDPF move ligand_72.pdbqt
USER    NEWDPF about 0.000000 0.000000 0.000000
USER    NEWDPF tran0 15.406513 9.574478 3.196680
USER    NEWDPF quaternion0 0.076396 0.987493 -0.014726 0.137126
USER    NEWDPF axisangle0 0.077125 0.996911 -0.014866 164.236826
USER    NEWDPF quat0 0.077125 0.996911 -0.014866 164.236826
USER    NEWDPF dihe0 -180.00 73.68 -117.04 -129.32 -16.80 -8.68 -55.66 -59.76 76.04 81.73 -78.86 -36.87 -153.41 -77.50 36.15 76.89 
USER  keepresnum = 1 
USER  
REMARK  16 active torsions:
REMARK  status: ('A' for Active; 'I' for Inactive)
REMARK    1  A    between atoms: C5_5  and  C6_6 
REMARK       I    between atoms: C6_6  and  N2_39 
REMARK    2  A    between atoms: C7_7  and  N2_39 
REMARK    3  A    between atoms: C9_9  and  C11_11 
REMARK       I    between atoms: C11_11  and  N4_41 
REMARK    4  A    between atoms: C12_12  and  N4_41 
REMARK    5  A    between atoms: C14_14  and  C16_16 
REMARK       I    between atoms: C16_16  and  N6_43 
REMARK    6  A    between atoms: C17_17  and  N6_43 
REMARK    7  A    between atoms: C19_19  and  C21_21 
REMARK       I    between atoms: C21_21  and  N8_45 
REMARK    8  A    between atoms: C22_22  and  C23_23 
REMARK    9  A    between atoms: C22_22  and  N8_45 
REMARK   10  A    between atoms: C23_23  and  C24_24 
REMARK   11  A    between atoms: C24_24  and  N9_46 
REMARK   12  A    between atoms: C25_25  and  N9_46 
REMARK   13  A    between atoms: C30_30  and  N13_52 
REMARK   14  A    between atoms: C32_32  and  O8_60 
REMARK   15  A    between atoms: C33_33  and  C34_34 
REMARK   16  A    between atoms: C34_34  and  O7_59 
USER                              x       y       z     vdW  Elec       q    Type
USER                           _______ _______ _______ _____ _____    ______ ____
ROOT
ATOM      1  C17 UNL     1      15.602   8.128   4.285 -0.44 +0.00    +0.053 A 
ATOM      2  C18 UNL     1      15.502   7.014   5.084 +0.08 +0.00    +0.120 A 
ATOM      3  C19 UNL     1      13.445   7.957   5.022 -0.35 +0.00    +0.104 A 
ATOM      4  C20 UNL     1      14.317   8.714   4.244 -0.21 +0.00    +0.066 A 
ATOM      5  C35 UNL     1      13.728   5.859   6.394 -0.45 +0.00    +0.156 C 
ATOM      6  N7  UNL     1      14.205   6.913   5.522 -0.22 -0.00    -0.354 N 
ENDROOT
BRANCH   3   7
ATOM      7  C21 UNL     1      12.028   8.149   5.292 -0.20 +0.00    +0.268 C 
ATOM      8  N8  UNL     1      11.191   7.934   4.217 -0.19 -0.00    -0.356 N 
ATOM      9  H37 UNL     1      11.587   7.712   3.315 +0.09 +0.00    +0.162 HD
ATOM     10  O4  UNL     1      11.587   8.478   6.391 -0.32 -0.00    -0.266 OA
BRANCH   8  11
ATOM     11  C22 UNL     1       9.757   8.112   4.315 -0.05 +0.00    +0.124 C 
BRANCH  11  12
ATOM     12  C23 UNL     1       9.016   7.294   3.258 -0.38 +0.00    +0.040 C 
BRANCH  12  13
ATOM     13  C24 UNL     1       9.839   6.103   2.779 -0.23 +0.00    +0.139 C 
BRANCH  13  14
ATOM     14  N9  UNL     1       9.574   5.834   1.376 -0.12 -0.00    -0.226 N 
ATOM     15  H38 UNL     1       9.443   6.662   0.806 +0.10 +0.00    +0.177 HD
BRANCH  14  16
ATOM     16  C25 UNL     1       8.987   4.675   0.953 +0.17 +0.00    +0.682 A 
ATOM     17  N10 UNL     1       7.777   4.338   1.312 -0.07 -0.00    -0.174 N 
ATOM     18  C26 UNL     1       7.360   3.156   0.803 -0.06 +0.00    +0.159 A 
ATOM     19  H10 UNL     1       7.198   4.914   1.922 +0.08 +0.00    +0.186 HD
ATOM     20  C27 UNL     1       8.042   2.303  -0.033 -0.08 +0.00    +0.147 A 
ATOM     21  N13 UNL     1       6.154   2.551   1.020 -0.04 -0.00    -0.299 N 
ATOM     22  C28 UNL     1       9.382   2.676  -0.426 -0.02 +0.00    +0.290 A 
ATOM     23  N12 UNL     1       7.289   1.201  -0.350 -0.05 -0.00    -0.345 N 
ATOM     24  N11 UNL     1       9.772   3.890   0.124 +0.00 -0.00    -0.154 N 
ATOM     25  O5  UNL     1      10.123   2.027  -1.158 -0.18 -0.00    -0.265 OA
ATOM     26  H39 UNL     1      10.709   4.174  -0.103 -0.24 +0.00    +0.187 HD
ATOM     27  C29 UNL     1       6.160   1.378   0.304 -0.08 +0.00    +0.188 A 
ATOM     28  H12 UNL     1       7.545   0.421  -0.956 +0.06 +0.00    +0.167 HD
BRANCH  21  29
ATOM     29  C30 UNL     1       5.062   3.020   1.851 -0.04 +0.00    +0.243 A 
ATOM     30  C31 UNL     1       4.667   4.484   1.626 -0.11 +0.00    +0.121 A 
ATOM     31  C32 UNL     1       4.868   5.040   2.982 -0.14 +0.00    +0.079 A 
ATOM     32  C33 UNL     1       5.299   4.097   3.819 -0.13 +0.00    +0.101 A 
ATOM     33  O6  UNL     1       5.424   2.829   3.245 -0.09 -0.00    -0.325 OA
BRANCH  31  34
ATOM     34  O8  UNL     1       4.666   6.367   3.205 -0.13 -0.00    -0.362 OA
ATOM     35  H41 UNL     1       4.253   6.764   2.418 +0.06 +0.00    +0.217 HD
ENDBRANCH  31  34
BRANCH  32  36
ATOM     36  C34 UNL     1       5.690   4.203   5.253 -0.22 +0.00    +0.231 C 
BRANCH  36  37
ATOM     37  O7  UNL     1       5.133   3.112   5.978 -0.51 -0.00    -0.394 OA
ATOM     38  H40 UNL     1       5.265   2.316   5.424 -0.46 +0.00    +0.209 HD
ENDBRANCH  36  37
ENDBRANCH  32  36
ENDBRANCH  21  29
ENDBRANCH  14  16
ENDBRANCH  13  14
ENDBRANCH  12  13
ENDBRANCH  11  12
ENDBRANCH   8  11
ENDBRANCH   3   7
BRANCH   1  39
ATOM     39  N6  UNL     1      16.785   8.509   3.681 -0.29 -0.00    -0.320 N 
ATOM     40  C16 UNL     1      17.211   9.813   3.506 -0.33 +0.00    +0.273 C 
ATOM     41  O3  UNL     1      16.583  10.798   3.891 -0.05 -0.00    -0.266 OA
ATOM     42  H36 UNL     1      17.380   7.758   3.368 +0.10 +0.00    +0.169 HD
BRANCH  40  43
ATOM     43  C14 UNL     1      18.500   9.937   2.825 -0.36 +0.00    +0.105 A 
ATOM     44  C15 UNL     1      19.582   9.061   2.788 -0.13 +0.00    +0.066 A 
ATOM     45  C12 UNL     1      20.607   9.623   1.994 -0.27 +0.00    +0.053 A 
ATOM     46  C13 UNL     1      20.139  10.834   1.544 -0.42 +0.00    +0.120 A 
ATOM     47  N5  UNL     1      18.872  11.018   2.041 -0.19 -0.00    -0.354 N 
ATOM     48  C36 UNL     1      18.068  12.193   1.774 -0.61 +0.00    +0.156 C 
BRANCH  45  49
ATOM     49  N4  UNL     1      21.859   9.139   1.667 -0.15 -0.00    -0.320 N 
ATOM     50  C11 UNL     1      22.865   8.845   2.570 -0.30 +0.00    +0.273 C 
ATOM     51  O2  UNL     1      22.760   8.998   3.785 -0.27 -0.00    -0.266 OA
ATOM     52  H35 UNL     1      22.037   9.009   0.683 +0.12 +0.00    +0.169 HD
BRANCH  50  53
ATOM     53  C9  UNL     1      24.094   8.335   1.960 -0.36 +0.00    +0.105 A 
ATOM     54  C10 UNL     1      24.304   7.200   1.180 -0.37 +0.00    +0.066 A 
ATOM     55  C7  UNL     1      25.670   7.129   0.822 -0.36 +0.00    +0.053 A 
ATOM     56  C8  UNL     1      26.284   8.219   1.389 -0.36 +0.00    +0.120 A 
ATOM     57  N3  UNL     1      25.336   8.939   2.075 -0.21 -0.00    -0.354 N 
ATOM     58  C37 UNL     1      25.626  10.159   2.801 -0.31 +0.00    +0.156 C 
BRANCH  55  59
ATOM     59  N2  UNL     1      26.350   6.198   0.062 -0.14 -0.00    -0.320 N 
ATOM     60  C6  UNL     1      25.839   4.988  -0.373 -0.32 +0.00    +0.272 C 
ATOM     61  O1  UNL     1      24.709   4.587  -0.106 -0.49 -0.00    -0.266 OA
ATOM     62  H34 UNL     1      27.308   6.422  -0.159 +0.10 +0.00    +0.169 HD
BRANCH  60  63
ATOM     63  C5  UNL     1      26.772   4.200  -1.177 -0.29 +0.00    +0.102 A 
ATOM     64  C4  UNL     1      26.540   3.396  -2.290 -0.34 +0.00    +0.037 A 
ATOM     65  C3  UNL     1      27.768   2.837  -2.713 -0.26 +0.00    +0.020 A 
ATOM     66  C2  UNL     1      28.736   3.296  -1.856 -0.17 +0.00    +0.091 A 
ATOM     67  N1  UNL     1      28.135   4.109  -0.929 -0.09 -0.00    -0.357 N 
ATOM     68  C1  UNL     1      28.850   4.777   0.139 -0.20 +0.00    +0.156 C 
ENDBRANCH  60  63
ENDBRANCH  55  59
ENDBRANCH  50  53
ENDBRANCH  45  49
ENDBRANCH  40  43
ENDBRANCH   1  39
TORSDOF 16
TER
