USER    Run = 1
USER    DPF = ligand_390_receptor.dpf
USER  
USER    Estimated Free Energy of Binding    =  +8.34e+006 kcal/mol  [=(1)+(2)+(3)-(4)]
USER    
USER    (1) Final Intermolecular Energy     =  +8.34e+006 kcal/mol
USER        vdW + Hbond + desolv Energy     =  +4.29e+006 kcal/mol
USER        Electrostatic Energy            =  +4.05e+006 kcal/mol
USER    (2) Final Total Internal Energy     =   +0.00 kcal/mol
USER    (3) Torsional Free Energy           =   +1.19 kcal/mol
USER    (4) Unbound System's Energy  [=(2)] =   +0.00 kcal/mol
USER    
USER    
USER    NEWDPF move ligand_390.pdbqt
USER    NEWDPF about 0.000000 0.000000 0.000000
USER    NEWDPF tran0 16.857193 5.659693 1.941589
USER    NEWDPF quaternion0 -0.042047 -0.981232 0.048089 -0.181943
USER    NEWDPF axisangle0 -0.042761 -0.997888 0.048905 -159.034138
USER    NEWDPF quat0 -0.042761 -0.997888 0.048905 -159.034138
USER  keepresnum = 1 
USER  
REMARK  0 active torsions:
REMARK  status: ('A' for Active; 'I' for Inactive)
REMARK       I    between atoms: C4_4  and  C5_5 
REMARK       I    between atoms: C5_5  and  N3_81 
REMARK       I    between atoms: C6_6  and  N3_81 
REMARK       I    between atoms: C8_8  and  C9_9 
REMARK       I    between atoms: C9_9  and  N6_85 
REMARK       I    between atoms: C10_10  and  N6_85 
REMARK       I    between atoms: C12_12  and  C14_14 
REMARK       I    between atoms: C14_14  and  N8_87 
REMARK       I    between atoms: C15_15  and  N8_87 
REMARK       I    between atoms: C17_17  and  C19_19 
REMARK       I    between atoms: C19_19  and  N10_89 
REMARK       I    between atoms: C20_20  and  C21_21 
REMARK       I    between atoms: C20_20  and  N10_89 
REMARK       I    between atoms: C21_21  and  C22_22 
REMARK       I    between atoms: C22_22  and  C23_23 
REMARK       I    between atoms: C23_23  and  N11_90 
REMARK       I    between atoms: C23_23  and  O14_118 
REMARK       I    between atoms: C24_24  and  N11_90 
REMARK       I    between atoms: C26_26  and  C27_27 
REMARK       I    between atoms: C27_27  and  N14_95 
REMARK       I    between atoms: C28_28  and  N14_95 
REMARK       I    between atoms: C30_30  and  C32_32 
REMARK       I    between atoms: C32_32  and  N16_97 
REMARK       I    between atoms: C33_33  and  N16_97 
REMARK       I    between atoms: C35_35  and  C37_37 
REMARK       I    between atoms: C37_37  and  N18_99 
REMARK       I    between atoms: C38_38  and  N18_99 
REMARK       I    between atoms: C40_40  and  C42_42 
REMARK       I    between atoms: C42_42  and  N20_101 
REMARK       I    between atoms: C43_43  and  C44_44 
REMARK       I    between atoms: C43_43  and  N20_101 
REMARK       I    between atoms: C44_44  and  C45_45 
REMARK       I    between atoms: C45_45  and  C46_46 
REMARK       I    between atoms: C46_46  and  C47_47 
REMARK       I    between atoms: C47_47  and  C48_48 
REMARK       I    between atoms: C48_48  and  C49_49 
REMARK       I    between atoms: C49_49  and  N21_102 
REMARK       I    between atoms: C50_50  and  N21_102 
REMARK       I    between atoms: C50_50  and  N22_104 
REMARK       I    between atoms: C50_50  and  S1_119 
REMARK       I    between atoms: C51_51  and  N22_104 
REMARK       I    between atoms: C53_53  and  C70_70 
REMARK       I    between atoms: C54_54  and  C57_57 
REMARK       I    between atoms: C70_70  and  O13_117 
USER                              x       y       z     vdW  Elec       q    Type
USER                           _______ _______ _______ _____ _____    ______ ____
ROOT
ATOM      1  C1  UNL     1       0.929  12.524  12.812+99.99+99.99    +0.157 C 
ATOM      2  C2  UNL     1       1.838  14.775  13.410+99.99+99.99    +0.109 A 
ATOM      3  C3  UNL     1       2.852  15.546  12.894+99.99+99.99    +0.107 A 
ATOM      4  C4  UNL     1       2.823  13.752  11.704+99.99+99.99    +0.176 A 
ATOM      5  C5  UNL     1       3.175  12.774  10.679+99.99 +0.00    +0.291 C 
ATOM      6  C6  UNL     1       4.802  12.546   8.875+99.99 +0.00    +0.125 A 
ATOM      7  C7  UNL     1       5.854  13.007   8.122+99.99 +0.00    +0.140 A 
ATOM      8  C8  UNL     1       5.197  11.004   7.435+35.85 +0.00    +0.178 A 
ATOM      9  C9  UNL     1       5.077   9.747   6.708+47.15 +0.00    +0.290 C 
ATOM     10  C10 UNL     1       3.685   7.722   6.771 -0.12 +0.00    +0.053 A 
ATOM     11  C11 UNL     1       2.664   6.998   7.343 -0.19 +0.00    +0.120 A 
ATOM     12  C12 UNL     1       3.469   5.762   5.640 -0.16 +0.00    +0.105 A 
ATOM     13  C13 UNL     1       4.204   6.937   5.718 +0.86 +0.00    +0.066 A 
ATOM     14  C14 UNL     1       3.665   4.684   4.688 -0.09 +0.00    +0.273 C 
ATOM     15  C15 UNL     1       2.375   3.260   3.159 -0.07 +0.00    +0.053 A 
ATOM     16  C16 UNL     1       1.184   2.923   2.561+99.99+99.99    +0.120 A 
ATOM     17  C17 UNL     1       2.755   1.530   1.718 -0.10 +0.00    +0.104 A 
ATOM     18  C18 UNL     1       3.354   2.383   2.640 -0.09 +0.00    +0.066 A 
ATOM     19  C19 UNL     1       3.350   0.468   0.920 +0.13 +0.00    +0.268 C 
ATOM     20  C20 UNL     1       5.508  -0.381   0.036+91.31 +0.00    +0.123 C 
ATOM     21  C21 UNL     1       5.522  -0.034  -1.457 +0.73 +0.00    +0.027 C 
ATOM     22  C22 UNL     1       5.740   1.440  -1.794 -0.11 +0.00    +0.085 C 
ATOM     23  C23 UNL     1       6.809   2.084  -0.958 -0.08 +0.00    +0.116 C 
ATOM     24  C24 UNL     1       7.526   3.335   0.835 -0.07 +0.00    +0.124 A 
ATOM     25  C25 UNL     1       7.262   4.080   1.952 -0.07 +0.00    +0.140 A 
ATOM     26  C26 UNL     1       9.446   3.897   1.617 +1.10 +0.00    +0.178 A 
ATOM     27  C27 UNL     1      10.892   4.035   1.772+99.99 +0.00    +0.290 C 
ATOM     28  C28 UNL     1      12.953   3.360   0.613+99.99 +0.00    +0.053 A 
ATOM     29  C29 UNL     1      13.575   2.716  -0.426+99.99 +0.00    +0.120 A 
ATOM     30  C30 UNL     1      15.212   3.602   0.866+99.99 +0.00    +0.105 A 
ATOM     31  C31 UNL     1      13.973   3.916   1.420+99.99 +0.00    +0.066 A 
ATOM     32  C32 UNL     1      16.561   3.944   1.319+99.99 +0.00    +0.273 C 
ATOM     33  C33 UNL     1      17.753   4.990   3.196+22.37 +0.00    +0.053 A 
ATOM     34  C34 UNL     1      17.734   5.592   4.431+99.99 +0.00    +0.120 A 
ATOM     35  C35 UNL     1      19.902   5.505   3.782+39.25 +0.00    +0.105 A 
ATOM     36  C36 UNL     1      19.108   4.931   2.793+99.99 +0.00    +0.066 A 
ATOM     37  C37 UNL     1      21.353   5.683   3.837+99.99 +0.00    +0.273 C 
ATOM     38  C38 UNL     1      23.348   5.587   2.391+99.92 +0.00    +0.053 A 
ATOM     39  C39 UNL     1      24.351   5.887   3.280+99.99 +0.00    +0.120 A 
ATOM     40  C40 UNL     1      25.339   5.554   1.282 -0.32 +0.00    +0.104 A 
ATOM     41  C41 UNL     1      23.968   5.401   1.132 -0.38 +0.00    +0.066 A 
ATOM     42  C42 UNL     1      26.338   5.420   0.242 -0.25 +0.00    +0.268 C 
ATOM     43  C43 UNL     1      28.519   4.458  -0.319 -0.23 +0.00    +0.123 C 
ATOM     44  C44 UNL     1      29.769   3.868   0.329 -0.28 +0.00    +0.020 C 
ATOM     45  C45 UNL     1      29.543   2.435   0.828 -0.48 +0.00    +0.002 C 
ATOM     46  C46 UNL     1      30.808   1.761   1.374 -0.47 +0.00    +0.000 C 
ATOM     47  C47 UNL     1      31.967   1.566   0.389 -0.22 +0.00    +0.002 C 
ATOM     48  C48 UNL     1      31.915   0.299  -0.475 +7.81 +0.00    +0.020 C 
ATOM     49  C49 UNL     1      30.729   0.152  -1.429 +2.17 +0.00    +0.121 C 
ATOM     50  C50 UNL     1      29.645   1.566  -3.059 -0.11 +0.00    +0.137 C 
ATOM     51  C51 UNL     1      30.135   3.930  -3.738 -0.08 +0.00    +0.035 A 
ATOM     52  C52 UNL     1      31.427   4.065  -3.224 -0.02 +0.00    +0.048 A 
ATOM     53  C53 UNL     1      32.041   5.324  -3.135 -0.01 +0.00    +0.051 A 
ATOM     54  C54 UNL     1      31.382   6.481  -3.570 -0.08 -0.00    -0.007 A 
ATOM     55  C55 UNL     1      30.098   6.348  -4.113 -0.17 +0.00    +0.015 A 
ATOM     56  C56 UNL     1      29.485   5.092  -4.188 -0.08 +0.00    +0.030 A 
ATOM     57  C57 UNL     1      32.002   7.831  -3.509 -0.11 +0.00    +0.001 A 
ATOM     58  C58 UNL     1      31.756   8.656  -2.455 -0.17 +0.00    +0.010 A 
ATOM     59  C59 UNL     1      30.886   8.261  -1.337 -0.19 +0.00    +0.019 A 
ATOM     60  C60 UNL     1      30.645   9.081  -0.306 -0.23 +0.00    +0.056 A 
ATOM     61  C61 UNL     1      31.255  10.426  -0.253 -0.17 +0.00    +0.174 A 
ATOM     62  C62 UNL     1      32.139  10.822  -1.366 +0.33 +0.00    +0.092 A 
ATOM     63  C63 UNL     1      32.373   9.993  -2.393 -0.06 +0.00    +0.091 A 
ATOM     64  C64 UNL     1      33.471   9.596  -4.466+99.99+99.99    +0.091 A 
ATOM     65  C65 UNL     1      32.911   8.329  -4.571+99.99+99.99    +0.010 A 
ATOM     66  C66 UNL     1      33.241   7.571  -5.697+99.99+99.99    +0.019 A 
ATOM     67  C67 UNL     1      34.110   8.081  -6.675+99.99+99.99    +0.056 A 
ATOM     68  C68 UNL     1      34.694   9.355  -6.597+99.99+99.99    +0.174 A 
ATOM     69  C69 UNL     1      34.338  10.089  -5.454+99.99+99.99    +0.092 A 
ATOM     70  C70 UNL     1      33.384   5.399  -2.543+99.99+99.99    +0.177 C 
ATOM     71  C71 UNL     1      26.793   6.348   3.190+99.99 +0.00    +0.156 C 
ATOM     72  C72 UNL     1      19.392   6.543   6.026+89.02 +0.00    +0.156 C 
ATOM     73  C73 UNL     1      15.908   2.319  -1.196+18.93 +0.00    +0.156 C 
ATOM     74  C74 UNL     1       8.704   5.209   3.642 -0.18 +0.00    +0.157 C 
ATOM     75  C75 UNL     1       0.393   1.248   0.891+99.99+99.99    +0.156 C 
ATOM     76  C76 UNL     1       1.695   4.718   7.098+99.99+99.99    +0.156 C 
ATOM     77  C77 UNL     1       7.120  12.039   6.190+99.99 +0.00    +0.157 C 
ATOM     78  N1  UNL     1       1.829  13.640  12.648+99.99+99.99    -0.342 N 
ATOM     79  N2  UNL     1       3.458  14.911  11.841+99.99+99.99    -0.346 N 
ATOM     80  H2  UNL     1       4.235  15.257  11.279+99.99+99.99    +0.167 HD
ATOM     81  N3  UNL     1       4.229  13.224   9.914+99.99 -0.00    -0.305 N 
ATOM     82  N4  UNL     1       6.096  12.017   7.208+99.99 -0.00    -0.339 N 
ATOM     83  N5  UNL     1       4.402  11.317   8.449 +1.31 -0.00    -0.323 N 
ATOM     84  H5  UNL     1       3.645  10.752   8.832 +0.08 +0.00    +0.169 HD
ATOM     85  N6  UNL     1       4.059   8.967   7.221 -0.08 -0.00    -0.319 N 
ATOM     86  N7  UNL     1       2.565   5.799   6.681 -0.07 -0.00    -0.354 N 
ATOM     87  N8  UNL     1       2.488   4.277   4.088 -0.03 -0.00    -0.320 N 
ATOM     88  N9  UNL     1       1.416   1.874   1.704+99.99+99.99    -0.354 N 
ATOM     89  N10 UNL     1       4.721   0.526   0.838 +0.54 -0.00    -0.356 N 
ATOM     90  N11 UNL     1       6.498   2.787   0.080 -0.00 -0.00    -0.326 N 
ATOM     91  H11 UNL     1       5.523   2.935   0.340 +0.05 +0.00    +0.169 HD
ATOM     92  N12 UNL     1       8.484   4.427   2.449 -0.03 -0.00    -0.339 N 
ATOM     93  N13 UNL     1       8.876   3.219   0.621 -0.02 -0.00    -0.323 N 
ATOM     94  H13 UNL     1       9.343   2.721  -0.137 +0.04 +0.00    +0.169 HD
ATOM     95  N14 UNL     1      11.583   3.404   0.754+99.99 -0.00    -0.319 N 
ATOM     96  N15 UNL     1      14.932   2.868  -0.276+99.99 -0.00    -0.354 N 
ATOM     97  N16 UNL     1      16.606   4.561   2.556+99.99 -0.00    -0.320 N 
ATOM     98  N17 UNL     1      19.026   5.892   4.783+99.99 -0.00    -0.354 N 
ATOM     99  N18 UNL     1      21.990   5.484   2.626+41.28 -0.00    -0.320 N 
ATOM    100  N19 UNL     1      25.544   5.912   2.600 +0.91 -0.00    -0.354 N 
ATOM    101  N20 UNL     1      27.498   4.794   0.650 +0.06 -0.00    -0.356 N 
ATOM    102  N21 UNL     1      30.604   1.356  -2.232 -0.07 -0.00    -0.371 N 
ATOM    103  H21 UNL     1      31.320   2.076  -2.133 +0.04 +0.00    +0.161 HD
ATOM    104  N22 UNL     1      29.433   2.714  -3.773 -0.03 -0.00    -0.337 N 
ATOM    105  O1  UNL     1       2.584  11.705  10.552 +1.06 -0.00    -0.264 OA
ATOM    106  O2  UNL     1       5.802   9.448   5.764+99.99 -0.00    -0.264 OA
ATOM    107  O3  UNL     1       4.780   4.236   4.445 -0.10 -0.00    -0.266 OA
ATOM    108  O4  UNL     1       2.697  -0.397   0.345 +0.99 -0.00    -0.266 OA
ATOM    109  O5  UNL     1      11.410   4.644   2.704+20.66 -0.00    -0.264 OA
ATOM    110  O6  UNL     1      17.555   3.688   0.646+99.99 -0.00    -0.266 OA
ATOM    111  O7  UNL     1      21.923   5.994   4.880+99.99 -0.00    -0.266 OA
ATOM    112  O8  UNL     1      26.149   5.769  -0.919 -0.24 -0.00    -0.266 OA
ATOM    113  O9  UNL     1      31.030  11.181   0.687 +2.68 -0.00    -0.288 OA
ATOM    114  O10 UNL     1      33.214  10.427  -3.407+99.99+99.99    -0.309 OA
ATOM    115  O11 UNL     1      35.483   9.805  -7.491+99.99+99.99    -0.288 OA
ATOM    116  O12 UNL     1      33.688   5.950  -1.504+99.99+99.99    -0.646 OA
ATOM    117  O13 UNL     1      34.271   4.763  -3.327+99.99+99.99    -0.773 OA
ATOM    118  O14 UNL     1       8.055   1.810  -1.384 -0.03 -0.00    -0.349 OA
ATOM    119  S1  UNL     1      28.375   0.391  -3.401 +1.80 -0.00    -0.107 SA
ATOM    120  H68 UNL     1       4.598  14.135  10.162+99.99 +0.00    +0.170 HD
ATOM    121  H69 UNL     1       3.558   9.370   8.012 +0.08 +0.00    +0.169 HD
ATOM    122  H70 UNL     1       1.653   4.813   4.270+99.99+99.99    +0.169 HD
ATOM    123  H71 UNL     1       5.175   1.382   1.138 +0.05 +0.00    +0.162 HD
ATOM    124  H72 UNL     1      11.022   2.939   0.051 -0.45 +0.00    +0.169 HD
ATOM    125  H73 UNL     1      15.743   4.711   3.056+99.99 +0.00    +0.169 HD
ATOM    126  H74 UNL     1      21.426   5.278   1.815+84.07 +0.00    +0.169 HD
ATOM    127  H75 UNL     1      27.418   4.218   1.476 +0.31 +0.00    +0.162 HD
ATOM    128  H76 UNL     1      28.570   2.732  -4.300 +0.06 +0.00    +0.168 HD
ATOM    129  H77 UNL     1      35.145   4.999  -2.950+99.99+99.99    +0.167 HD
ATOM    130  H78 UNL     1       8.691   2.256  -0.791 +0.10 +0.00    +0.219 HD
ATOM    131  H79 UNL     1      29.109  -0.707  -3.198 -0.10 +0.00    +0.110 HD
ENDROOT
TORSDOF 36
TER
