USER    Run = 1
USER    DPF = ligand_327_receptor.dpf
USER  
USER    Estimated Free Energy of Binding    =  -11.48 kcal/mol  [=(1)+(2)+(3)-(4)]
USER    Estimated Inhibition Constant, Ki   =    3.85 nM (nanomolar)  [Temperature = 298.15 K]
USER    
USER    (1) Final Intermolecular Energy     =  -12.67 kcal/mol
USER        vdW + Hbond + desolv Energy     =  -12.67 kcal/mol
USER        Electrostatic Energy            =   +0.00 kcal/mol
USER    (2) Final Total Internal Energy     =   -2.09 kcal/mol
USER    (3) Torsional Free Energy           =   +1.19 kcal/mol
USER    (4) Unbound System's Energy  [=(2)] =   -2.09 kcal/mol
USER    
USER    
USER    NEWDPF move ligand_327.pdbqt
USER    NEWDPF about 0.000000 0.000000 0.000000
USER    NEWDPF tran0 14.477194 7.606353 4.181719
USER    NEWDPF quaternion0 0.676413 0.308914 0.128280 -0.656187
USER    NEWDPF axisangle0 0.896389 0.409375 0.169998 -97.980557
USER    NEWDPF quat0 0.896389 0.409375 0.169998 -97.980557
USER    NEWDPF dihe0 -180.00 -43.84 -131.83 123.81 -105.30 -54.65 67.03 76.51 
USER  keepresnum = 1 
USER  
REMARK  8 active torsions:
REMARK  status: ('A' for Active; 'I' for Inactive)
REMARK    1  A    between atoms: C6_6  and  C7_7 
REMARK       I    between atoms: C7_7  and  N1_27 
REMARK    2  A    between atoms: C8_8  and  N1_27 
REMARK    3  A    between atoms: C8_8  and  N2_28 
REMARK       I    between atoms: C9_9  and  N3_30 
REMARK       I    between atoms: C9_9  and  N4_31 
REMARK    4  A    between atoms: C11_11  and  C12_12 
REMARK       I    between atoms: C12_12  and  N6_33 
REMARK    5  A    between atoms: C13_13  and  N6_33 
REMARK    6  A    between atoms: C20_20  and  C21_21 
REMARK       I    between atoms: C21_21  and  N8_35 
REMARK    7  A    between atoms: C22_22  and  N8_35 
REMARK    8  A    between atoms: C22_22  and  N9_36 
REMARK       I    between atoms: C23_23  and  N10_38 
REMARK       I    between atoms: C23_23  and  N11_39 
USER                              x       y       z     vdW  Elec       q    Type
USER                           _______ _______ _______ _____ _____    ______ ____
ROOT
ATOM      1  C12 UNL     1      14.186   8.071   4.826 -0.30 +0.00    +0.272 C 
ATOM      2  O2  UNL     1      14.372   9.094   5.472 +0.12 -0.00    -0.266 OA
ATOM      3  N6  UNL     1      14.890   7.699   3.694 -0.27 -0.00    -0.322 N 
ATOM      4  H19 UNL     1      14.487   6.963   3.135 -0.46 +0.00    +0.169 HD
ENDROOT
BRANCH   1   5
ATOM      5  C11 UNL     1      13.138   7.129   5.184 -0.36 +0.00    +0.102 A 
ATOM      6  C10 UNL     1      11.841   7.084   4.701 -0.34 +0.00    +0.049 A 
ATOM      7  C4  UNL     1      11.159   6.009   5.329 -0.31 -0.00    -0.006 A 
ATOM      8  C3  UNL     1      12.054   5.428   6.224 -0.37 +0.00    +0.043 A 
ATOM      9  C5  UNL     1       9.858   5.481   5.228 -0.27 +0.00    +0.030 A 
ATOM     10  C2  UNL     1      11.713   4.343   7.039 -0.45 +0.00    +0.031 A 
ATOM     11  N5  UNL     1      13.231   6.135   6.133 -0.19 -0.00    -0.351 N 
ATOM     12  C1  UNL     1      10.416   3.827   6.922 -0.46 +0.00    +0.019 A 
ATOM     13  C6  UNL     1       9.499   4.378   6.020 -0.36 +0.00    +0.033 A 
ATOM     14  H18 UNL     1      14.034   5.974   6.723 +0.12 +0.00    +0.166 HD
BRANCH  13  15
ATOM     15  C7  UNL     1       8.115   3.844   5.885 -0.22 +0.00    +0.252 C 
ATOM     16  O1  UNL     1       7.434   3.627   6.880 -0.33 -0.00    -0.268 OA
ATOM     17  N1  UNL     1       7.665   3.636   4.602 -0.13 -0.00    -0.341 N 
ATOM     18  H13 UNL     1       8.155   4.035   3.818 +0.09 +0.00    +0.164 HD
BRANCH  17  19
ATOM     19  C8  UNL     1       6.307   3.267   4.344 -0.12 +0.00    +0.248 C 
BRANCH  19  20
ATOM     20  N2  UNL     1       5.447   4.369   4.728 -0.07 -0.00    -0.356 N 
ATOM     21  C9  UNL     1       4.869   4.332   5.867 -0.31 +0.00    +0.123 C 
ATOM     22  N3  UNL     1       4.100   5.370   6.265 -0.16 -0.00    -0.279 NA
ATOM     23  N4  UNL     1       4.851   3.368   6.814 -0.82 -0.00    -0.279 NA
ATOM     24  H14 UNL     1       3.217   5.070   6.659 +0.05 +0.00    +0.126 HD
ATOM     25  H15 UNL     1       3.956   6.017   5.496 +0.05 +0.00    +0.126 HD
ATOM     26  H16 UNL     1       5.505   2.607   6.664 -0.44 +0.00    +0.126 HD
ATOM     27  H17 UNL     1       4.935   3.740   7.753 +0.03 +0.00    +0.126 HD
ATOM     28  H2  UNL     1       5.306   5.161   4.100 +0.07 +0.00    +0.163 HD
ENDBRANCH  19  20
ENDBRANCH  17  19
ENDBRANCH  13  15
ENDBRANCH   1   5
BRANCH   3  29
ATOM     29  C13 UNL     1      16.018   8.340   3.132 -0.48 +0.00    +0.037 A 
ATOM     30  C14 UNL     1      17.331   8.100   3.554 -0.53 +0.00    +0.059 A 
ATOM     31  C15 UNL     1      18.368   8.791   2.908 -0.43 +0.00    +0.045 A 
ATOM     32  C16 UNL     1      18.147   9.691   1.872 -0.44 -0.00    -0.007 A 
ATOM     33  N7  UNL     1      19.724   8.751   3.123 -0.09 -0.00    -0.351 N 
ATOM     34  C17 UNL     1      16.825   9.923   1.452 -0.48 +0.00    +0.016 A 
ATOM     35  C19 UNL     1      19.418  10.190   1.471 -0.41 +0.00    +0.049 A 
ATOM     36  C18 UNL     1      15.777   9.241   2.088 -0.24 +0.00    +0.030 A 
ATOM     37  C20 UNL     1      20.390   9.589   2.252 -0.23 +0.00    +0.102 A 
ATOM     38  H20 UNL     1      20.190   8.190   3.825 +0.11 +0.00    +0.166 HD
BRANCH  37  39
ATOM     39  C21 UNL     1      21.833   9.709   2.293 -0.28 +0.00    +0.269 C 
ATOM     40  O3  UNL     1      22.420  10.035   3.318 -0.33 -0.00    -0.266 OA
ATOM     41  N8  UNL     1      22.465   9.401   1.109 -0.19 -0.00    -0.340 N 
ATOM     42  H21 UNL     1      21.950   8.816   0.471 +0.12 +0.00    +0.164 HD
BRANCH  41  43
ATOM     43  C22 UNL     1      23.901   9.306   1.040 -0.27 +0.00    +0.248 C 
BRANCH  43  44
ATOM     44  N9  UNL     1      24.494   8.561   2.135 -0.16 -0.00    -0.356 N 
ATOM     45  C23 UNL     1      24.975   9.150   3.157 -0.58 +0.00    +0.123 C 
ATOM     46  N10 UNL     1      24.993  10.465   3.467 -0.88 -0.00    -0.279 NA
ATOM     47  N11 UNL     1      25.572   8.438   4.138 -0.58 -0.00    -0.279 NA
ATOM     48  H22 UNL     1      24.255  10.953   2.969 +0.12 +0.00    +0.126 HD
ATOM     49  H23 UNL     1      24.871  10.600   4.464 +0.12 +0.00    +0.126 HD
ATOM     50  H24 UNL     1      25.669   7.470   3.847 +0.03 +0.00    +0.126 HD
ATOM     51  H25 UNL     1      26.471   8.821   4.402 -0.48 +0.00    +0.126 HD
ATOM     52  H9  UNL     1      24.527   7.543   2.084 +0.13 +0.00    +0.163 HD
ENDBRANCH  43  44
ENDBRANCH  41  43
ENDBRANCH  37  39
ENDBRANCH   3  29
TORSDOF 8
TER
