USER    Run = 1
USER    DPF = ligand_174_receptor.dpf
USER  
USER    Estimated Free Energy of Binding    =  +9.74e+005 kcal/mol  [=(1)+(2)+(3)-(4)]
USER    
USER    (1) Final Intermolecular Energy     =  +9.74e+005 kcal/mol
USER        vdW + Hbond + desolv Energy     =  +5.29e+005 kcal/mol
USER        Electrostatic Energy            =  +4.45e+005 kcal/mol
USER    (2) Final Total Internal Energy     =   +0.00 kcal/mol
USER    (3) Torsional Free Energy           =   +1.19 kcal/mol
USER    (4) Unbound System's Energy  [=(2)] =   +0.00 kcal/mol
USER    
USER    
USER    NEWDPF move ligand_174.pdbqt
USER    NEWDPF about 0.000000 0.000000 0.000000
USER    NEWDPF tran0 16.348971 6.696045 2.841258
USER    NEWDPF quaternion0 -0.317028 0.095132 0.033294 -0.943045
USER    NEWDPF axisangle0 -0.952997 0.285971 0.100083 -38.861098
USER    NEWDPF quat0 -0.952997 0.285971 0.100083 -38.861098
USER  keepresnum = 1 
USER  
REMARK  0 active torsions:
REMARK  status: ('A' for Active; 'I' for Inactive)
REMARK       I    between atoms: C2_2  and  O1_58 
REMARK       I    between atoms: C3_3  and  C57_57 
REMARK       I    between atoms: C5_5  and  N1_72 
REMARK       I    between atoms: C8_8  and  C9_9 
REMARK       I    between atoms: C8_8  and  N1_72 
REMARK       I    between atoms: C9_9  and  C10_10 
REMARK       I    between atoms: C9_9  and  N5_77 
REMARK       I    between atoms: C10_10  and  C11_11 
REMARK       I    between atoms: C11_11  and  C12_12 
REMARK       I    between atoms: C12_12  and  N2_73 
REMARK       I    between atoms: C13_13  and  N2_73 
REMARK       I    between atoms: C13_13  and  N3_74 
REMARK       I    between atoms: C13_13  and  N4_76 
REMARK       I    between atoms: C14_14  and  C15_15 
REMARK       I    between atoms: C14_14  and  N5_77 
REMARK       I    between atoms: C16_16  and  O11_68 
REMARK       I    between atoms: C19_19  and  N6_78 
REMARK       I    between atoms: C21_21  and  C22_22 
REMARK       I    between atoms: C21_21  and  N6_78 
REMARK       I    between atoms: C22_22  and  C23_23 
REMARK       I    between atoms: C22_22  and  N10_83 
REMARK       I    between atoms: C23_23  and  C24_24 
REMARK       I    between atoms: C24_24  and  C25_25 
REMARK       I    between atoms: C25_25  and  N7_79 
REMARK       I    between atoms: C26_26  and  N7_79 
REMARK       I    between atoms: C26_26  and  N8_80 
REMARK       I    between atoms: C26_26  and  N9_82 
REMARK       I    between atoms: C27_27  and  C28_28 
REMARK       I    between atoms: C27_27  and  N10_83 
REMARK       I    between atoms: C29_29  and  O10_67 
REMARK       I    between atoms: C32_32  and  N11_84 
REMARK       I    between atoms: C34_34  and  C35_35 
REMARK       I    between atoms: C34_34  and  N11_84 
REMARK       I    between atoms: C35_35  and  C36_36 
REMARK       I    between atoms: C35_35  and  N15_89 
REMARK       I    between atoms: C36_36  and  C37_37 
REMARK       I    between atoms: C37_37  and  C38_38 
REMARK       I    between atoms: C38_38  and  N12_85 
REMARK       I    between atoms: C39_39  and  N12_85 
REMARK       I    between atoms: C39_39  and  N14_88 
REMARK       I    between atoms: C40_40  and  C41_41 
REMARK       I    between atoms: C40_40  and  N15_89 
REMARK       I    between atoms: C42_42  and  O9_66 
REMARK       I    between atoms: C45_45  and  N16_90 
REMARK       I    between atoms: C47_47  and  C48_48 
REMARK       I    between atoms: C47_47  and  N16_90 
REMARK       I    between atoms: C48_48  and  C49_49 
REMARK       I    between atoms: C48_48  and  N20_95 
REMARK       I    between atoms: C49_49  and  C50_50 
REMARK       I    between atoms: C50_50  and  C51_51 
REMARK       I    between atoms: C51_51  and  N17_91 
REMARK       I    between atoms: C52_52  and  N17_91 
REMARK       I    between atoms: C52_52  and  N19_94 
REMARK       I    between atoms: C55_55  and  C56_56 
REMARK       I    between atoms: C55_55  and  O11_68 
REMARK       I    between atoms: C56_56  and  O13_70 
REMARK       I    between atoms: C57_57  and  N21_96 
USER                              x       y       z     vdW  Elec       q    Type
USER                           _______ _______ _______ _____ _____    ______ ____
ROOT
ATOM      1  C1  UNL     1       2.795   3.163  -5.650+99.99+99.99    +0.210 C 
ATOM      2  C2  UNL     1       3.455   3.147  -3.452 -0.06 +0.00    +0.084 A 
ATOM      3  C3  UNL     1       3.982   1.994  -2.871 -0.04 +0.00    +0.067 A 
ATOM      4  C4  UNL     1       5.049   2.082  -1.968 -0.07 +0.00    +0.049 A 
ATOM      5  C5  UNL     1       5.553   3.330  -1.588 -0.10 +0.00    +0.035 A 
ATOM      6  C6  UNL     1       5.004   4.483  -2.155 +2.27 +0.00    +0.032 A 
ATOM      7  C7  UNL     1       3.961   4.393  -3.084 +4.02 +0.00    +0.040 A 
ATOM      8  C8  UNL     1       6.994   4.416   0.142 -0.06 +0.00    +0.245 C 
ATOM      9  C9  UNL     1       8.020   4.046   1.242 -0.09 +0.00    +0.177 C 
ATOM     10  C10 UNL     1       7.529   2.989   2.249 -0.23 +0.00    +0.036 C 
ATOM     11  C11 UNL     1       6.406   3.412   3.212 -0.22 +0.00    +0.022 C 
ATOM     12  C12 UNL     1       5.039   3.684   2.583 -0.10 +0.00    +0.122 C 
ATOM     13  C13 UNL     1       3.990   1.466   2.192 -0.17 +0.00    +0.143 C 
ATOM     14  C14 UNL     1       9.645   5.397   2.553 -0.10 +0.00    +0.255 C 
ATOM     15  C15 UNL     1      10.029   6.760   3.049 -0.29 +0.00    +0.067 A 
ATOM     16  C16 UNL     1       9.407   7.960   2.655 -0.14 +0.00    +0.085 A 
ATOM     17  C17 UNL     1       9.873   9.168   3.185 +2.92 +0.00    +0.040 A 
ATOM     18  C18 UNL     1      10.956   9.193   4.074 +1.00 +0.00    +0.032 A 
ATOM     19  C19 UNL     1      11.586   8.015   4.459 -0.38 +0.00    +0.035 A 
ATOM     20  C20 UNL     1      11.111   6.804   3.949 -0.32 +0.00    +0.049 A 
ATOM     21  C21 UNL     1      13.410   9.013   5.870 +0.97 +0.00    +0.245 C 
ATOM     22  C22 UNL     1      14.568   8.534   6.779+99.99 +0.00    +0.177 C 
ATOM     23  C23 UNL     1      14.102   7.736   8.011 +2.19 +0.00    +0.036 C 
ATOM     24  C24 UNL     1      13.160   8.454   8.985 +0.07 +0.00    +0.022 C 
ATOM     25  C25 UNL     1      13.737   9.733   9.596+16.04 +0.00    +0.122 C 
ATOM     26  C26 UNL     1      12.489  11.510   8.452 +2.48 +0.00    +0.143 C 
ATOM     27  C27 UNL     1      16.715   7.368   6.248+48.12 +0.00    +0.255 C 
ATOM     28  C28 UNL     1      17.506   6.615   5.216+99.99 +0.00    +0.067 A 
ATOM     29  C29 UNL     1      16.987   6.087   4.017+99.99 +0.00    +0.084 A 
ATOM     30  C30 UNL     1      17.858   5.413   3.149+15.89 +0.00    +0.040 A 
ATOM     31  C31 UNL     1      19.219   5.264   3.454+80.69 +0.00    +0.032 A 
ATOM     32  C32 UNL     1      19.737   5.785   4.633+99.99 +0.00    +0.035 A 
ATOM     33  C33 UNL     1      18.869   6.442   5.506+99.99 +0.00    +0.049 A 
ATOM     34  C34 UNL     1      22.149   5.156   4.332+99.99 +0.00    +0.245 C 
ATOM     35  C35 UNL     1      23.522   5.210   5.076+99.99 +0.00    +0.177 C 
ATOM     36  C36 UNL     1      23.745   6.263   6.179+99.99 +0.00    +0.036 C 
ATOM     37  C37 UNL     1      23.598   7.735   5.776+39.53 +0.00    +0.022 C 
ATOM     38  C38 UNL     1      23.388   8.661   6.977+99.99 +0.00    +0.122 C 
ATOM     39  C39 UNL     1      20.936   8.903   7.267 +4.45 +0.00    +0.143 C 
ATOM     40  C40 UNL     1      24.932   5.994   3.167+55.94 +0.00    +0.255 C 
ATOM     41  C41 UNL     1      25.955   5.592   2.160 +5.46 +0.00    +0.067 A 
ATOM     42  C42 UNL     1      26.138   4.269   1.740+96.91 +0.00    +0.084 A 
ATOM     43  C43 UNL     1      27.130   3.956   0.811 +8.82 +0.00    +0.040 A 
ATOM     44  C44 UNL     1      27.920   4.973   0.269 -0.21 +0.00    +0.032 A 
ATOM     45  C45 UNL     1      27.737   6.307   0.658 -0.18 +0.00    +0.035 A 
ATOM     46  C46 UNL     1      26.751   6.610   1.600 +0.44 +0.00    +0.049 A 
ATOM     47  C47 UNL     1      28.647   8.622   0.332 -0.01 +0.00    +0.255 C 
ATOM     48  C48 UNL     1      29.698   9.361  -0.530 +1.48 +0.00    +0.309 C 
ATOM     49  C49 UNL     1      31.134   8.996  -0.133 -0.26 +0.00    +0.046 C 
ATOM     50  C50 UNL     1      31.524   9.114   1.350 +0.04 +0.00    +0.017 C 
ATOM     51  C51 UNL     1      31.302  10.456   2.049+62.90 +0.00    +0.095 C 
ATOM     52  C52 UNL     1      32.035  12.795   1.730 +0.82 +0.00    +0.122 C 
ATOM     53  C53 UNL     1      24.271   2.977   1.395+99.99 +0.00    +0.210 C 
ATOM     54  C54 UNL     1      15.121   5.705   2.562+99.99 +0.00    +0.210 C 
ATOM     55  C55 UNL     1       7.967   9.035   1.054+99.99 +0.00    +0.285 C 
ATOM     56  C56 UNL     1       8.985   9.604   0.076+99.99 +0.00    +0.164 C 
ATOM     57  C57 UNL     1       3.422   0.662  -3.168 -0.04 +0.00    +0.252 C 
ATOM     58  O1  UNL     1       2.373   3.093  -4.287 -0.01 -0.00    -0.355 OA
ATOM     59  O2  UNL     1       6.608   5.578   0.008 -0.14 -0.00    -0.271 OA
ATOM     60  O3  UNL     1      10.393   4.440   2.736 +1.92 -0.00    -0.268 OA
ATOM     61  O4  UNL     1      13.228  10.204   5.624+86.43 -0.00    -0.271 OA
ATOM     62  O5  UNL     1      17.222   7.677   7.324+99.99 -0.00    -0.268 OA
ATOM     63  O6  UNL     1      22.044   4.542   3.268+17.35 -0.00    -0.271 OA
ATOM     64  O7  UNL     1      24.406   7.096   3.089 +6.51 -0.00    -0.268 OA
ATOM     65  O8  UNL     1      27.986   9.231   1.168 +0.70 -0.00    -0.271 OA
ATOM     66  O9  UNL     1      25.390   3.240   2.251+99.99 -0.00    -0.355 OA
ATOM     67  O10 UNL     1      15.649   6.265   3.761+99.99 -0.00    -0.355 OA
ATOM     68  O11 UNL     1       8.358   7.876   1.778 -0.18 -0.00    -0.340 OA
ATOM     69  O12 UNL     1       9.129  10.786  -0.192+99.99 -0.00    -0.648 OA
ATOM     70  O13 UNL     1       9.734   8.667  -0.538 +4.94 -0.00    -0.775 OA
ATOM     71  O14 UNL     1       3.398   0.200  -4.299 -0.02 -0.00    -0.268 OA
ATOM     72  N1  UNL     1       6.568   3.335  -0.609 -0.01 -0.00    -0.325 N 
ATOM     73  N2  UNL     1       4.610   2.577   1.743 -0.01 -0.00    -0.367 N 
ATOM     74  N3  UNL     1       3.801   1.074   3.394 -0.11 -0.00    -0.376 N 
ATOM     75  H3  UNL     1       3.335   0.206   3.660 +0.07 +0.00    +0.158 HD
ATOM     76  N4  UNL     1       3.561   0.685   1.179 -0.10 -0.00    -0.274 NA
ATOM     77  N5  UNL     1       8.443   5.272   1.905 -0.02 -0.00    -0.344 N 
ATOM     78  N6  UNL     1      12.681   7.955   5.340 -0.17 -0.00    -0.325 N 
ATOM     79  N7  UNL     1      13.633  10.819   8.646 -0.15 -0.00    -0.367 N 
ATOM     80  N8  UNL     1      11.402  11.353   9.112+12.34 -0.00    -0.376 N 
ATOM     81  H8  UNL     1      11.263  10.681   9.866 +2.71 +0.00    +0.158 HD
ATOM     82  N9  UNL     1      12.625  12.367   7.420+99.99 -0.00    -0.274 NA
ATOM     83  N10 UNL     1      15.420   7.694   5.926+14.39 -0.00    -0.344 N 
ATOM     84  N11 UNL     1      21.090   5.714   5.025+99.99 -0.00    -0.325 N 
ATOM     85  N12 UNL     1      22.128   8.389   7.655 +1.85 -0.00    -0.367 N 
ATOM     86  N13 UNL     1      20.617   9.424   6.145+99.99 -0.00    -0.376 N 
ATOM     87  H13 UNL     1      19.687   9.769   5.909+99.99 +0.00    +0.158 HD
ATOM     88  N14 UNL     1      20.008   8.783   8.235+35.38 -0.00    -0.274 NA
ATOM     89  N15 UNL     1      24.636   5.067   4.141+99.99 -0.00    -0.344 N 
ATOM     90  N16 UNL     1      28.582   7.265   0.059 -0.12 -0.00    -0.325 N 
ATOM     91  N17 UNL     1      31.805  11.555   1.245 +0.56 -0.00    -0.270 NA
ATOM     92  N18 UNL     1      32.185  13.174   2.943 -0.14 -0.00    -0.381 N 
ATOM     93  H18 UNL     1      32.364  14.133   3.240 +0.06 +0.00    +0.158 HD
ATOM     94  N19 UNL     1      32.135  13.702   0.739+31.92 -0.00    -0.279 NA
ATOM     95  N20 UNL     1      29.473  10.820  -0.483+14.19 +0.00    +0.092 N 
ATOM     96  N21 UNL     1       2.948  -0.027  -2.082 -0.04 -0.00    -0.366 N 
ATOM     97  H52 UNL     1      10.323   9.175  -1.135 -0.25 +0.00    +0.167 HD
ATOM     98  H53 UNL     1       6.916   2.426  -0.328 +0.06 +0.00    +0.169 HD
ATOM     99  H54 UNL     1       4.194   2.902   0.873 +0.04 +0.00    +0.162 HD
ATOM    100  H55 UNL     1       4.184   1.756   4.049 +0.06 +0.00    +0.158 HD
ATOM    101  H56 UNL     1       3.182  -0.163   1.595 +0.02 +0.00    +0.127 HD
ATOM    102  H57 UNL     1       4.329   0.428   0.572 +0.02 +0.00    +0.127 HD
ATOM    103  H58 UNL     1       7.948   6.125   1.643 +0.08 +0.00    +0.163 HD
ATOM    104  H59 UNL     1      13.026   7.028   5.569 +0.12 +0.00    +0.169 HD
ATOM    105  H60 UNL     1      14.462  11.395   8.563 -0.19 +0.00    +0.162 HD
ATOM    106  H61 UNL     1      10.699  12.007   8.766+82.13 +0.00    +0.158 HD
ATOM    107  H62 UNL     1      13.108  11.894   6.651 +2.38 +0.00    +0.127 HD
ATOM    108  H63 UNL     1      11.748  12.727   7.068+99.99 +0.00    +0.127 HD
ATOM    109  H64 UNL     1      15.147   7.542   4.958 +0.10 +0.00    +0.163 HD
ATOM    110  H65 UNL     1      21.305   6.228   5.872+99.99 +0.00    +0.169 HD
ATOM    111  H66 UNL     1      22.225   8.474   8.663 +0.14 +0.00    +0.162 HD
ATOM    112  H67 UNL     1      21.422   9.448   5.517 +0.49 +0.00    +0.158 HD
ATOM    113  H68 UNL     1      19.081   8.993   7.858+99.99 +0.00    +0.127 HD
ATOM    114  H69 UNL     1      19.974   7.870   8.670 +0.39 +0.00    +0.127 HD
ATOM    115  H70 UNL     1      24.935   4.117   3.944 +0.56 +0.00    +0.163 HD
ATOM    116  H71 UNL     1      29.224   6.911  -0.640 +0.08 +0.00    +0.169 HD
ATOM    117  H72 UNL     1      31.290  11.612   0.361 -0.50 +0.00    +0.130 HD
ATOM    118  H73 UNL     1      32.099  12.374   3.566 +0.07 +0.00    +0.158 HD
ATOM    119  H74 UNL     1      32.733  13.388  -0.014+99.99+99.99    +0.126 HD
ATOM    120  H75 UNL     1      32.471  14.579   1.124+99.99+99.99    +0.126 HD
ATOM    121  H76 UNL     1      29.119  11.045   0.457 +4.40 +0.00    +0.313 HD
ATOM    122  H77 UNL     1      28.656  11.034  -1.063+99.99 +0.00    +0.313 HD
ATOM    123  H78 UNL     1       2.409  -0.854  -2.303 +0.01 +0.00    +0.159 HD
ATOM    124  H79 UNL     1       2.689   0.469  -1.236 +0.02 +0.00    +0.159 HD
ENDROOT
TORSDOF 39
TER
