USER    Run = 1
USER    DPF = ligand_480_receptor.dpf
USER  
USER    Estimated Free Energy of Binding    =  -11.71 kcal/mol  [=(1)+(2)+(3)-(4)]
USER    Estimated Inhibition Constant, Ki   =    2.61 nM (nanomolar)  [Temperature = 298.15 K]
USER    
USER    (1) Final Intermolecular Energy     =  -12.90 kcal/mol
USER        vdW + Hbond + desolv Energy     =  -12.90 kcal/mol
USER        Electrostatic Energy            =   +0.00 kcal/mol
USER    (2) Final Total Internal Energy     =   -2.00 kcal/mol
USER    (3) Torsional Free Energy           =   +1.19 kcal/mol
USER    (4) Unbound System's Energy  [=(2)] =   -2.00 kcal/mol
USER    
USER    
USER    NEWDPF move ligand_480.pdbqt
USER    NEWDPF about 0.000000 0.000000 0.000000
USER    NEWDPF tran0 16.357176 8.851459 2.100569
USER    NEWDPF quaternion0 0.997045 0.076799 -0.000368 0.001669
USER    NEWDPF axisangle0 0.997046 0.076800 -0.000368 179.808719
USER    NEWDPF quat0 0.997046 0.076800 -0.000368 179.808719
USER    NEWDPF dihe0 180.00 118.04 25.90 -37.45 180.00 52.46 9.99 19.91 -43.56 -86.49 -71.68 -97.64 -158.17 -36.32 130.23 
USER  keepresnum = 1 
USER  
REMARK  15 active torsions:
REMARK  status: ('A' for Active; 'I' for Inactive)
REMARK    1  A    between atoms: C2_2  and  O1_35 
REMARK    2  A    between atoms: C4_4  and  O8_42 
REMARK    3  A    between atoms: C5_5  and  C31_31 
REMARK    4  A    between atoms: C7_7  and  C8_8 
REMARK       I    between atoms: C8_8  and  N1_43 
REMARK    5  A    between atoms: C9_9  and  N1_43 
REMARK    6  A    between atoms: C12_12  and  N2_44 
REMARK    7  A    between atoms: C15_15  and  C16_16 
REMARK       I    between atoms: C15_15  and  N2_44 
REMARK    8  A    between atoms: C17_17  and  O6_40 
REMARK    9  A    between atoms: C19_19  and  O5_39 
REMARK   10  A    between atoms: C20_20  and  C22_22 
REMARK       I    between atoms: C22_22  and  N3_45 
REMARK   11  A    between atoms: C23_23  and  N3_45 
REMARK   12  A    between atoms: C26_26  and  N4_46 
REMARK       I    between atoms: C31_31  and  N5_47 
REMARK   13  A    between atoms: C32_32  and  C33_33 
REMARK   14  A    between atoms: C32_32  and  N5_47 
REMARK   15  A    between atoms: C33_33  and  N6_48 
USER                              x       y       z     vdW  Elec       q    Type
USER                           _______ _______ _______ _____ _____    ______ ____
ROOT
ATOM      1  C9  UNL     1      19.019   9.902   2.661 -0.41 +0.00    +0.084 C 
ATOM      2  C10 UNL     1      18.159   9.139   3.683 -0.51 +0.00    +0.027 C 
ATOM      3  C11 UNL     1      17.617   7.835   3.103 -0.61 +0.00    +0.027 C 
ATOM      4  C12 UNL     1      16.705   8.089   1.892 -0.35 +0.00    +0.084 C 
ATOM      5  C13 UNL     1      17.090   9.357   1.108 -0.55 +0.00    +0.027 C 
ATOM      6  C14 UNL     1      18.581   9.650   1.207 -0.38 +0.00    +0.027 C 
ENDROOT
BRANCH   4   7
ATOM      7  N2  UNL     1      15.314   8.175   2.313 -0.01 -0.00    -0.352 N 
ATOM      8  C15 UNL     1      14.857   7.554   3.455 -0.01 +0.00    +0.254 C 
ATOM      9  O3  UNL     1      15.599   7.016   4.269 -0.58 -0.00    -0.268 OA
ATOM     10  H42 UNL     1      14.620   8.478   1.637 -0.38 +0.00    +0.163 HD
BRANCH   8  11
ATOM     11  C16 UNL     1      13.383   7.572   3.684 -0.41 +0.00    +0.066 A 
ATOM     12  C17 UNL     1      12.792   7.927   4.900 -0.34 +0.00    +0.086 A 
ATOM     13  C18 UNL     1      11.400   7.876   5.060 -0.35 +0.00    +0.075 A 
ATOM     14  C19 UNL     1      10.568   7.516   3.992 -0.35 +0.00    +0.086 A 
ATOM     15  C20 UNL     1      11.152   7.185   2.749 -0.31 +0.00    +0.066 A 
ATOM     16  C21 UNL     1      12.554   7.225   2.611 -0.30 +0.00    +0.040 A 
BRANCH  12  17
ATOM     17  O6  UNL     1      13.545   8.287   5.991 -0.20 -0.00    -0.355 OA
ATOM     18  C30 UNL     1      13.997   7.118   6.684 -0.13 +0.00    +0.210 C 
ENDBRANCH  12  17
BRANCH  14  19
ATOM     19  O5  UNL     1       9.199   7.471   4.090 -0.13 -0.00    -0.355 OA
ATOM     20  C29 UNL     1       8.435   8.285   3.204 +0.20 +0.00    +0.210 C 
ENDBRANCH  14  19
BRANCH  15  21
ATOM     21  C22 UNL     1      10.381   6.783   1.526 -0.21 +0.00    +0.254 C 
ATOM     22  O4  UNL     1      10.092   7.622   0.678 -0.11 -0.00    -0.268 OA
ATOM     23  N3  UNL     1      10.034   5.456   1.400 -0.02 -0.00    -0.352 N 
ATOM     24  H43 UNL     1      10.176   4.866   2.213 -0.37 +0.00    +0.163 HD
BRANCH  23  25
ATOM     25  C23 UNL     1       9.154   4.979   0.341 -0.15 +0.00    +0.084 C 
ATOM     26  C24 UNL     1       7.920   4.289   0.954 -0.14 +0.00    +0.027 C 
ATOM     27  C25 UNL     1       7.364   3.213   0.031 -0.11 +0.00    +0.037 C 
ATOM     28  C26 UNL     1       8.390   2.091  -0.198 -0.09 +0.00    +0.218 C 
ATOM     29  C27 UNL     1       9.841   2.603  -0.207 -0.09 +0.00    +0.037 C 
ATOM     30  C28 UNL     1       9.930   4.068  -0.626 -0.18 +0.00    +0.027 C 
BRANCH  28  31
ATOM     31  N4  UNL     1       8.059   1.399  -1.445 -0.11 +0.00    +0.082 N 
ATOM     32  H44 UNL     1       7.797   0.433  -1.250 +0.13 +0.00    +0.313 HD
ATOM     33  H45 UNL     1       7.241   1.831  -1.873 +0.10 +0.00    +0.313 HD
ENDBRANCH  28  31
ENDBRANCH  23  25
ENDBRANCH  15  21
ENDBRANCH   8  11
ENDBRANCH   4   7
BRANCH   1  34
ATOM     34  N1  UNL     1      20.423   9.553   2.819 -0.17 -0.00    -0.352 N 
ATOM     35  C8  UNL     1      21.371   9.898   1.880 -0.28 +0.00    +0.254 C 
ATOM     36  O2  UNL     1      21.139  10.634   0.928 -0.33 -0.00    -0.268 OA
ATOM     37  H41 UNL     1      20.672   8.835   3.492 +0.10 +0.00    +0.163 HD
BRANCH  35  38
ATOM     38  C7  UNL     1      22.738   9.337   2.073 -0.40 +0.00    +0.066 A 
ATOM     39  C2  UNL     1      23.602   9.736   3.097 -0.45 +0.00    +0.086 A 
ATOM     40  C3  UNL     1      24.891   9.197   3.194 -0.55 +0.00    +0.075 A 
ATOM     41  C4  UNL     1      25.328   8.213   2.296 -0.43 +0.00    +0.086 A 
ATOM     42  C5  UNL     1      24.447   7.766   1.288 -0.38 +0.00    +0.066 A 
ATOM     43  C6  UNL     1      23.164   8.340   1.187 -0.40 +0.00    +0.040 A 
BRANCH  39  44
ATOM     44  O1  UNL     1      23.244  10.699   4.008 -0.38 -0.00    -0.355 OA
ATOM     45  C1  UNL     1      23.331  10.175   5.338 -0.07 +0.00    +0.210 C 
ENDBRANCH  39  44
BRANCH  41  46
ATOM     46  O8  UNL     1      26.577   7.648   2.356 -0.26 -0.00    -0.355 OA
ATOM     47  C34 UNL     1      27.699   8.521   2.452 -0.22 +0.00    +0.210 C 
ENDBRANCH  41  46
BRANCH  42  48
ATOM     48  C31 UNL     1      24.780   6.714   0.268 -0.31 +0.00    +0.254 C 
ATOM     49  O7  UNL     1      24.295   5.591   0.367 -0.36 -0.00    -0.268 OA
ATOM     50  N5  UNL     1      25.649   7.057  -0.740 -0.16 -0.00    -0.355 N 
ATOM     51  H46 UNL     1      25.940   8.028  -0.793 +0.11 +0.00    +0.162 HD
BRANCH  50  52
ATOM     52  C32 UNL     1      25.990   6.182  -1.851 -0.25 +0.00    +0.152 C 
BRANCH  52  53
ATOM     53  C33 UNL     1      26.471   4.787  -1.412 -0.26 +0.00    +0.286 C 
BRANCH  53  54
ATOM     54  N6  UNL     1      25.391   3.801  -1.369 -0.43 +0.00    +0.079 N 
ATOM     55  H47 UNL     1      25.080   3.671  -0.409 +0.22 +0.00    +0.312 HD
ATOM     56  H48 UNL     1      24.579   4.193  -1.869 +0.23 +0.00    +0.312 HD
ENDBRANCH  53  54
ENDBRANCH  52  53
ENDBRANCH  50  52
ENDBRANCH  42  48
ENDBRANCH  35  38
ENDBRANCH   1  34
TORSDOF 15
TER
