USER    Run = 1
USER    DPF = ligand_106_receptor.dpf
USER  
USER    Estimated Free Energy of Binding    =  +1.83e+006 kcal/mol  [=(1)+(2)+(3)-(4)]
USER    
USER    (1) Final Intermolecular Energy     =  +1.83e+006 kcal/mol
USER        vdW + Hbond + desolv Energy     =  +1.04e+006 kcal/mol
USER        Electrostatic Energy            =  +7.86e+005 kcal/mol
USER    (2) Final Total Internal Energy     =   +0.00 kcal/mol
USER    (3) Torsional Free Energy           =   +1.19 kcal/mol
USER    (4) Unbound System's Energy  [=(2)] =   +0.00 kcal/mol
USER    
USER    
USER    NEWDPF move ligand_106.pdbqt
USER    NEWDPF about 0.000000 0.000000 0.000000
USER    NEWDPF tran0 14.583208 5.814027 4.734454
USER    NEWDPF quaternion0 -0.656928 -0.188864 -0.025805 -0.729459
USER    NEWDPF axisangle0 -0.960386 -0.276107 -0.037726 -86.317867
USER    NEWDPF quat0 -0.960386 -0.276107 -0.037726 -86.317867
USER  keepresnum = 1 
USER  
REMARK  0 active torsions:
REMARK  status: ('A' for Active; 'I' for Inactive)
REMARK       I    between atoms: C4_4  and  O7_76 
REMARK       I    between atoms: C7_7  and  S1_69 
REMARK       I    between atoms: C8_8  and  C9_9 
REMARK       I    between atoms: C8_8  and  C44_44 
REMARK       I    between atoms: C8_8  and  N1_83 
REMARK       I    between atoms: C9_9  and  N2_84 
REMARK       I    between atoms: C10_10  and  C11_11 
REMARK       I    between atoms: C10_10  and  N2_84 
REMARK       I    between atoms: C18_18  and  C20_20 
REMARK       I    between atoms: C20_20  and  N4_86 
REMARK       I    between atoms: C21_21  and  N4_86 
REMARK       I    between atoms: C24_24  and  C25_25 
REMARK       I    between atoms: C24_24  and  C31_31 
REMARK       I    between atoms: C24_24  and  C37_37 
REMARK       I    between atoms: C24_24  and  N6_89 
REMARK       I    between atoms: C44_44  and  O6_75 
REMARK       I    between atoms: C47_47  and  C48_48 
REMARK       I    between atoms: C47_47  and  O7_76 
REMARK       I    between atoms: C48_48  and  C49_49 
REMARK       I    between atoms: C49_49  and  C50_50 
REMARK       I    between atoms: C50_50  and  N7_90 
REMARK       I    between atoms: C51_51  and  C52_52 
REMARK       I    between atoms: C51_51  and  N7_90 
REMARK       I    between atoms: C52_52  and  C53_53 
REMARK       I    between atoms: C53_53  and  O9_78 
REMARK       I    between atoms: C54_54  and  C55_55 
REMARK       I    between atoms: C54_54  and  O9_78 
REMARK       I    between atoms: C55_55  and  O10_79 
REMARK       I    between atoms: C56_56  and  C57_57 
REMARK       I    between atoms: C56_56  and  O10_79 
REMARK       I    between atoms: C57_57  and  O11_80 
REMARK       I    between atoms: C58_58  and  C59_59 
REMARK       I    between atoms: C58_58  and  O11_80 
REMARK       I    between atoms: C59_59  and  C60_60 
REMARK       I    between atoms: C60_60  and  N8_91 
REMARK       I    between atoms: C61_61  and  O13_82 
REMARK       I    between atoms: C61_61  and  N8_91 
REMARK       I    between atoms: C62_62  and  C63_63 
REMARK       I    between atoms: C62_62  and  O13_82 
REMARK       I    between atoms: S1_69  and  N1_83 
USER                              x       y       z     vdW  Elec       q    Type
USER                           _______ _______ _______ _____ _____    ______ ____
ROOT
ATOM      1  C1  UNL     1      11.373   6.792  10.559+25.94 +0.00    +0.050 C 
ATOM      2  C2  UNL     1      12.048   5.797   9.650 -0.00 -0.00    -0.035 A 
ATOM      3  C3  UNL     1      13.077   6.292   8.822 -0.50 +0.00    +0.045 A 
ATOM      4  C4  UNL     1      13.786   5.454   7.970 -0.56 +0.00    +0.069 A 
ATOM      5  C5  UNL     1      13.475   4.097   7.952 -0.47 +0.00    +0.045 A 
ATOM      6  C6  UNL     1      12.461   3.548   8.763 +0.37 -0.00    -0.035 A 
ATOM      7  C7  UNL     1      11.736   4.410   9.618 +2.67 +0.00    +0.091 A 
ATOM      8  C8  UNL     1       8.666   4.071   8.589 -0.29 +0.00    +0.210 C 
ATOM      9  C9  UNL     1       7.583   2.982   8.613 +4.01 +0.00    +0.159 C 
ATOM     10  C10 UNL     1       7.908   1.929   6.391+99.99 +0.00    +0.257 C 
ATOM     11  C11 UNL     1       7.241   1.547   5.115+99.99 +0.00    +0.098 A 
ATOM     12  C12 UNL     1       7.958   0.899   4.186+99.99 +0.00    +0.112 A 
ATOM     13  C13 UNL     1       6.185   0.772   2.552 +0.75 +0.00    +0.048 A 
ATOM     14  C14 UNL     1       5.323   1.440   3.445 -0.32 +0.00    +0.042 A 
ATOM     15  C15 UNL     1       5.829   1.854   4.778+23.65 +0.00    +0.201 A 
ATOM     16  C16 UNL     1       4.001   1.753   3.097 -0.20 +0.00    +0.018 A 
ATOM     17  C17 UNL     1       3.515   1.423   1.836 -0.16 +0.00    +0.010 A 
ATOM     18  C18 UNL     1       4.343   0.767   0.921 +0.09 -0.00    -0.038 A 
ATOM     19  C19 UNL     1       5.662   0.441   1.293 +7.45 +0.00    +0.039 A 
ATOM     20  C20 UNL     1       3.867   0.471  -0.484 +0.30 +0.00    +0.176 C 
ATOM     21  C21 UNL     1       5.538   1.232  -2.060 +0.07 +0.00    +0.681 A 
ATOM     22  C22 UNL     1       7.219   0.230  -2.939 -0.12 +0.00    +0.124 A 
ATOM     23  C23 UNL     1       7.459   1.567  -3.106 -0.06 +0.00    +0.128 A 
ATOM     24  C24 UNL     1       6.185   3.723  -2.481 +0.06 +0.00    +0.136 C 
ATOM     25  C25 UNL     1       4.791   4.226  -3.027 +2.38 -0.00    -0.020 A 
ATOM     26  C26 UNL     1       4.432   5.588  -2.878+99.99 +0.00    +0.010 A 
ATOM     27  C27 UNL     1       3.235   6.094  -3.391+99.99 +0.00    +0.001 A 
ATOM     28  C28 UNL     1       2.373   5.262  -4.094 +2.10 +0.00    +0.000 A 
ATOM     29  C29 UNL     1       2.718   3.930  -4.301 -0.06 +0.00    +0.001 A 
ATOM     30  C30 UNL     1       3.919   3.424  -3.790 -0.06 +0.00    +0.010 A 
ATOM     31  C31 UNL     1       7.231   4.485  -3.400 +1.44 -0.00    -0.020 A 
ATOM     32  C32 UNL     1       8.044   5.534  -2.925 +4.78 +0.00    +0.010 A 
ATOM     33  C33 UNL     1       8.918   6.219  -3.776 -0.15 +0.00    +0.001 A 
ATOM     34  C34 UNL     1       8.982   5.892  -5.127+99.99+99.99    +0.000 A 
ATOM     35  C35 UNL     1       8.162   4.891  -5.634+99.99+99.99    +0.001 A 
ATOM     36  C36 UNL     1       7.289   4.206  -4.786+99.99+99.99    +0.010 A 
ATOM     37  C37 UNL     1       6.420   4.004  -0.942 -0.10 -0.00    -0.020 A 
ATOM     38  C38 UNL     1       7.667   3.679  -0.355 -0.10 +0.00    +0.010 A 
ATOM     39  C39 UNL     1       7.917   3.886   1.004 -0.12 +0.00    +0.001 A 
ATOM     40  C40 UNL     1       6.923   4.412   1.821 -0.12 +0.00    +0.000 A 
ATOM     41  C41 UNL     1       5.678   4.714   1.282 -0.15 +0.00    +0.001 A 
ATOM     42  C42 UNL     1       5.425   4.503  -0.079 -0.17 +0.00    +0.010 A 
ATOM     43  C43 UNL     1       8.392  -0.189   1.985+99.99 +0.00    +0.156 C 
ATOM     44  C44 UNL     1       8.120   5.355   7.969 -0.29 +0.00    +0.283 C 
ATOM     45  C45 UNL     1       7.632   6.470   5.968+19.48 +0.00    +0.213 C 
ATOM     46  C46 UNL     1      12.238   2.064   8.653+16.91 +0.00    +0.050 C 
ATOM     47  C47 UNL     1      15.151   7.190   7.009+32.69 +0.00    +0.176 C 
ATOM     48  C48 UNL     1      16.162   7.617   8.071+99.99 +0.00    +0.036 C 
ATOM     49  C49 UNL     1      17.406   6.731   8.073+81.07 +0.00    +0.105 C 
ATOM     50  C50 UNL     1      18.447   7.220   9.061+99.99 +0.00    +0.217 C 
ATOM     51  C51 UNL     1      20.666   6.667  10.006+99.99 +0.00    +0.124 C 
ATOM     52  C52 UNL     1      21.650   7.641   9.360+17.33 +0.00    +0.046 C 
ATOM     53  C53 UNL     1      22.286   7.098   8.082 +3.02 +0.00    +0.169 C 
ATOM     54  C54 UNL     1      24.066   5.772   9.059+99.99 +0.00    +0.193 C 
ATOM     55  C55 UNL     1      25.256   6.549   8.483+99.99 +0.00    +0.193 C 
ATOM     56  C56 UNL     1      25.679   8.318  10.068+99.99 +0.00    +0.193 C 
ATOM     57  C57 UNL     1      27.212   8.324  10.152+60.39 +0.00    +0.193 C 
ATOM     58  C58 UNL     1      27.627  10.396   8.972 +9.80 +0.00    +0.169 C 
ATOM     59  C59 UNL     1      28.365  11.203  10.039 -0.53 +0.00    +0.046 C 
ATOM     60  C60 UNL     1      29.869  10.934  10.064 +2.04 +0.00    +0.127 C 
ATOM     61  C61 UNL     1      30.878  12.639   8.592 +0.52 +0.00    +0.360 C 
ATOM     62  C62 UNL     1      31.798  14.036   6.975 -0.20 +0.00    +0.219 C 
ATOM     63  C63 UNL     1      32.359  13.975   5.577 -0.24 -0.00    -0.034 A 
ATOM     64  C64 UNL     1      33.724  13.734   5.368+99.99+99.99    +0.009 A 
ATOM     65  C65 UNL     1      34.239  13.660   4.072+99.99+99.99    +0.001 A 
ATOM     66  C66 UNL     1      33.395  13.819   2.975+99.99+99.99    +0.000 A 
ATOM     67  C67 UNL     1      32.033  14.046   3.172 -0.35 +0.00    +0.001 A 
ATOM     68  C68 UNL     1      31.516  14.120   4.467 -0.20 +0.00    +0.009 A 
ATOM     69  S1  UNL     1      10.418   3.783  10.678+99.99 +0.00    +0.260 S 
ATOM     70  O1  UNL     1      10.544   4.407  11.976+99.99+99.99    -0.200 OA
ATOM     71  O2  UNL     1      10.307   2.347  10.569+99.99 -0.00    -0.200 OA
ATOM     72  O3  UNL     1       9.100   1.715   6.593+99.99 -0.00    -0.267 OA
ATOM     73  O4  UNL     1       5.098   2.449   5.568 +0.07 -0.00    -0.286 OA
ATOM     74  O5  UNL     1       7.740   6.322   8.625 +0.44 -0.00    -0.263 OA
ATOM     75  O6  UNL     1       8.131   5.297   6.609 -0.20 -0.00    -0.325 OA
ATOM     76  O7  UNL     1      14.798   5.813   7.128 -0.33 -0.00    -0.351 OA
ATOM     77  O8  UNL     1      18.349   8.267   9.691+99.99 -0.00    -0.274 OA
ATOM     78  O9  UNL     1      22.890   5.815   8.242+54.33 -0.00    -0.389 OA
ATOM     79  O10 UNL     1      25.184   7.946   8.781+99.99 -0.00    -0.387 OA
ATOM     80  O11 UNL     1      27.865   8.994   9.072 +2.71 -0.00    -0.389 OA
ATOM     81  O12 UNL     1      30.726  13.580   9.356 -0.15 -0.00    -0.239 OA
ATOM     82  O13 UNL     1      31.405  12.714   7.350 -0.23 -0.00    -0.299 OA
ATOM     83  N1  UNL     1       9.048   4.412   9.979+65.20 -0.00    -0.299 N 
ATOM     84  N2  UNL     1       7.106   2.555   7.310+16.60 -0.00    -0.354 N 
ATOM     85  N3  UNL     1       7.512   0.486   2.941+20.78 -0.00    -0.359 N 
ATOM     86  N4  UNL     1       4.390   1.481  -1.391 -0.07 -0.00    -0.222 N 
ATOM     87  N5  UNL     1       6.038   0.037  -2.294 -0.09 -0.00    -0.200 N 
ATOM     88  H5  UNL     1       5.621  -0.859  -2.040 +0.11 +0.00    +0.183 HD
ATOM     89  N6  UNL     1       6.347   2.229  -2.608 -0.07 -0.00    -0.170 N 
ATOM     90  N7  UNL     1      19.528   6.371   9.162+16.54 -0.00    -0.361 N 
ATOM     91  N8  UNL     1      30.534  11.349   8.851+99.99 -0.00    -0.337 N 
ATOM     92  H74 UNL     1       8.629   5.241  10.407 +0.57 +0.00    +0.173 HD
ATOM     93  H75 UNL     1       6.121   2.689   7.076 -0.30 +0.00    +0.162 HD
ATOM     94  H76 UNL     1       4.168   2.421  -1.091 +0.04 +0.00    +0.178 HD
ATOM     95  H77 UNL     1      19.592   5.572   8.543 +0.15 +0.00    +0.162 HD
ATOM     96  H78 UNL     1      30.651  10.693   8.089+99.99 +0.00    +0.164 HD
ENDROOT
TORSDOF 37
TER
