USER    Run = 1
USER    DPF = ligand_518_receptor.dpf
USER  
USER    Estimated Free Energy of Binding    =  -10.94 kcal/mol  [=(1)+(2)+(3)-(4)]
USER    Estimated Inhibition Constant, Ki   =    9.57 nM (nanomolar)  [Temperature = 298.15 K]
USER    
USER    (1) Final Intermolecular Energy     =  -12.13 kcal/mol
USER        vdW + Hbond + desolv Energy     =  -12.13 kcal/mol
USER        Electrostatic Energy            =   +0.00 kcal/mol
USER    (2) Final Total Internal Energy     =   -2.02 kcal/mol
USER    (3) Torsional Free Energy           =   +1.19 kcal/mol
USER    (4) Unbound System's Energy  [=(2)] =   -2.02 kcal/mol
USER    
USER    
USER    NEWDPF move ligand_518.pdbqt
USER    NEWDPF about 0.000000 0.000000 0.000000
USER    NEWDPF tran0 14.172635 7.284099 2.566357
USER    NEWDPF quaternion0 0.117203 -0.949420 0.273816 -0.099449
USER    NEWDPF axisangle0 0.117787 -0.954150 0.275181 -168.585120
USER    NEWDPF quat0 0.117787 -0.954150 0.275181 -168.585120
USER    NEWDPF dihe0 22.48 -115.33 58.27 88.53 -150.58 -84.33 105.53 114.74 -75.41 -1.85 -120.02 76.15 -141.23 125.59 
USER  keepresnum = 1 
USER  
REMARK  14 active torsions:
REMARK  status: ('A' for Active; 'I' for Inactive)
REMARK    1  A    between atoms: C3_3  and  N6_37 
REMARK    2  A    between atoms: C5_5  and  C6_6 
REMARK       I    between atoms: C6_6  and  N2_32 
REMARK    3  A    between atoms: C7_7  and  C8_8 
REMARK    4  A    between atoms: C7_7  and  N2_32 
REMARK    5  A    between atoms: C8_8  and  N3_33 
REMARK    6  A    between atoms: C9_9  and  N4_35 
REMARK    7  A    between atoms: C10_10  and  C11_11 
REMARK       I    between atoms: C10_10  and  N6_37 
REMARK    8  A    between atoms: C13_13  and  N8_39 
REMARK    9  A    between atoms: C16_16  and  C17_17 
REMARK       I    between atoms: C16_16  and  N8_39 
REMARK   10  A    between atoms: C19_19  and  N10_41 
REMARK   11  A    between atoms: C22_22  and  C23_23 
REMARK       I    between atoms: C22_22  and  N10_41 
REMARK   12  A    between atoms: C25_25  and  N12_43 
REMARK   13  A    between atoms: C28_28  and  C29_29 
REMARK       I    between atoms: C28_28  and  N12_43 
REMARK   14  A    between atoms: N4_35  and  N5_36 
USER                              x       y       z     vdW  Elec       q    Type
USER                           _______ _______ _______ _____ _____    ______ ____
ROOT
ATOM      1  C11 UNL     1      11.522   6.648   3.854 -0.29 +0.00    +0.105 A 
ATOM      2  C12 UNL     1      12.895   6.657   3.614 -0.27 +0.00    +0.066 A 
ATOM      3  C13 UNL     1      13.324   7.997   3.441 -0.33 +0.00    +0.053 A 
ATOM      4  C14 UNL     1      12.210   8.785   3.577 +0.22 +0.00    +0.120 A 
ATOM      5  C15 UNL     1       9.777   8.474   3.973 -0.30 +0.00    +0.156 C 
ATOM      6  N7  UNL     1      11.127   7.975   3.806 -0.20 -0.00    -0.354 N 
ENDROOT
BRANCH   3   7
ATOM      7  N8  UNL     1      14.625   8.391   3.191 -0.23 -0.00    -0.320 N 
ATOM      8  C16 UNL     1      15.720   8.134   3.996 -0.37 +0.00    +0.273 C 
ATOM      9  O3  UNL     1      15.691   7.584   5.090 -0.26 -0.00    -0.266 OA
ATOM     10  H33 UNL     1      14.767   8.996   2.394 -0.44 +0.00    +0.169 HD
BRANCH   8  11
ATOM     11  C17 UNL     1      16.956   8.641   3.428 -0.47 +0.00    +0.105 A 
ATOM     12  C18 UNL     1      18.236   8.151   3.651 -0.49 +0.00    +0.066 A 
ATOM     13  C19 UNL     1      19.157   8.948   2.929 -0.29 +0.00    +0.053 A 
ATOM     14  C20 UNL     1      18.416   9.885   2.248 -0.35 +0.00    +0.120 A 
ATOM     15  N9  UNL     1      17.089   9.666   2.514 -0.18 -0.00    -0.354 N 
ATOM     16  C21 UNL     1      16.010  10.366   1.849 -0.38 +0.00    +0.156 C 
BRANCH  13  17
ATOM     17  N10 UNL     1      20.527   8.773   2.936 +0.05 -0.00    -0.320 N 
ATOM     18  C22 UNL     1      21.446   9.497   2.196 -0.26 +0.00    +0.273 C 
ATOM     19  O4  UNL     1      21.152  10.394   1.409 -0.31 -0.00    -0.266 OA
ATOM     20  H34 UNL     1      20.867   8.021   3.517 +0.13 +0.00    +0.169 HD
BRANCH  18  21
ATOM     21  C23 UNL     1      22.835   9.095   2.416 -0.38 +0.00    +0.105 A 
ATOM     22  C24 UNL     1      23.668   8.296   1.638 -0.39 +0.00    +0.066 A 
ATOM     23  C25 UNL     1      24.930   8.195   2.268 -0.44 +0.00    +0.053 A 
ATOM     24  C26 UNL     1      24.855   8.924   3.429 -0.50 +0.00    +0.120 A 
ATOM     25  N11 UNL     1      23.592   9.458   3.519 -0.27 -0.00    -0.354 N 
ATOM     26  C27 UNL     1      23.148  10.298   4.613 -0.51 +0.00    +0.156 C 
BRANCH  23  27
ATOM     27  N12 UNL     1      26.071   7.520   1.877 -0.19 -0.00    -0.321 N 
ATOM     28  C28 UNL     1      27.079   8.061   1.102 -0.30 +0.00    +0.262 C 
ATOM     29  O5  UNL     1      27.137   9.211   0.680 -0.19 -0.00    -0.267 OA
ATOM     30  H35 UNL     1      26.172   6.578   2.228 +0.12 +0.00    +0.169 HD
BRANCH  28  31
ATOM     31  C29 UNL     1      28.190   7.091   0.825 -0.33 +0.00    +0.069 C 
ATOM     32  C30 UNL     1      28.009   6.065  -0.021 -0.29 +0.00    +0.037 C 
ATOM     33 BR1  UNL     1      29.839   7.421   1.636 -0.70 -0.00    -0.046 Br
ENDBRANCH  28  31
ENDBRANCH  23  27
ENDBRANCH  18  21
ENDBRANCH  13  17
ENDBRANCH   8  11
ENDBRANCH   3   7
BRANCH   1  34
ATOM     34  C10 UNL     1      10.617   5.525   4.086 -0.16 +0.00    +0.273 C 
ATOM     35  N6  UNL     1       9.469   5.547   3.308 -0.08 -0.00    -0.320 N 
ATOM     36  H32 UNL     1       9.418   6.192   2.536 +0.09 +0.00    +0.169 HD
ATOM     37  O2  UNL     1      10.885   4.620   4.876 -0.23 -0.00    -0.266 OA
BRANCH  35  38
ATOM     38  C3  UNL     1       8.453   4.615   3.398 -0.19 +0.00    +0.053 A 
ATOM     39  C2  UNL     1       7.542   4.566   4.426 -0.20 +0.00    +0.120 A 
ATOM     40  N1  UNL     1       6.617   3.591   4.129 -0.08 -0.00    -0.354 N 
ATOM     41  C1  UNL     1       5.468   3.277   4.952 -0.16 +0.00    +0.156 C 
ATOM     42  C5  UNL     1       6.938   2.978   2.932 -0.19 +0.00    +0.104 A 
ATOM     43  C4  UNL     1       8.126   3.564   2.517 -0.18 +0.00    +0.066 A 
BRANCH  42  44
ATOM     44  C6  UNL     1       6.120   1.992   2.245 -0.16 +0.00    +0.268 C 
ATOM     45  N2  UNL     1       5.727   2.359   0.977 -0.03 -0.00    -0.354 N 
ATOM     46  H28 UNL     1       6.036   3.247   0.613 +0.06 +0.00    +0.162 HD
ATOM     47  O1  UNL     1       5.755   0.943   2.765 -0.26 -0.00    -0.266 OA
BRANCH  45  48
ATOM     48  C7  UNL     1       4.489   1.867   0.399 -0.12 +0.00    +0.142 C 
BRANCH  48  49
ATOM     49  C8  UNL     1       4.418   2.202  -1.100 -0.08 +0.00    +0.140 C 
BRANCH  49  50
ATOM     50  N3  UNL     1       5.290   3.356  -1.396 -0.03 -0.00    -0.384 N 
ATOM     51  C9  UNL     1       6.399   3.059  -1.982 -0.07 +0.00    +0.187 C 
ATOM     52  H3  UNL     1       5.035   4.314  -1.157 -0.02 +0.00    +0.160 HD
BRANCH  51  53
ATOM     53  N4  UNL     1       7.370   3.952  -2.390 -0.04 -0.00    -0.320 N 
ATOM     54  H29 UNL     1       7.273   4.312  -3.353 -0.04 +0.00    +0.181 HD
BRANCH  53  55
ATOM     55  N5  UNL     1       7.810   4.877  -1.410 +0.04 -0.00    -0.249 NA
ATOM     56  H30 UNL     1       7.019   5.494  -1.190 -0.50 +0.00    +0.143 HD
ATOM     57  H31 UNL     1       8.489   5.515  -1.836 -0.10 +0.00    +0.143 HD
ENDBRANCH  53  55
ENDBRANCH  51  53
ENDBRANCH  49  50
ENDBRANCH  48  49
ENDBRANCH  45  48
ENDBRANCH  42  44
ENDBRANCH  35  38
ENDBRANCH   1  34
TORSDOF 14
TER
