USER    Run = 1
USER    DPF = ligand_334_receptor.dpf
USER  
USER    Estimated Free Energy of Binding    =  +2.64e+003 kcal/mol  [=(1)+(2)+(3)-(4)]
USER    
USER    (1) Final Intermolecular Energy     =  +2.64e+003 kcal/mol
USER        vdW + Hbond + desolv Energy     =  +2.64e+003 kcal/mol
USER        Electrostatic Energy            =   +0.00 kcal/mol
USER    (2) Final Total Internal Energy     =   +0.00 kcal/mol
USER    (3) Torsional Free Energy           =   +1.19 kcal/mol
USER    (4) Unbound System's Energy  [=(2)] =   +0.00 kcal/mol
USER    
USER    
USER    NEWDPF move ligand_334.pdbqt
USER    NEWDPF about 0.000000 0.000000 0.000000
USER    NEWDPF tran0 12.340617 6.948582 2.444419
USER    NEWDPF quaternion0 0.907850 0.296069 0.246957 0.164813
USER    NEWDPF axisangle0 0.920437 0.300174 0.250381 161.027227
USER    NEWDPF quat0 0.920437 0.300174 0.250381 161.027227
USER  keepresnum = 1 
USER  
REMARK  0 active torsions:
REMARK  status: ('A' for Active; 'I' for Inactive)
REMARK       I    between atoms: C2_2  and  C3_3 
REMARK       I    between atoms: C3_3  and  C5_5 
REMARK       I    between atoms: C5_5  and  C6_6 
REMARK       I    between atoms: C5_5  and  N7_73 
REMARK       I    between atoms: C6_6  and  N1_66 
REMARK       I    between atoms: C7_7  and  C8_8 
REMARK       I    between atoms: C7_7  and  C9_9 
REMARK       I    between atoms: C7_7  and  N1_66 
REMARK       I    between atoms: C8_8  and  S1_85 
REMARK       I    between atoms: C9_9  and  N2_67 
REMARK       I    between atoms: C10_10  and  C11_11 
REMARK       I    between atoms: C10_10  and  C18_18 
REMARK       I    between atoms: C10_10  and  N2_67 
REMARK       I    between atoms: C11_11  and  C12_12 
REMARK       I    between atoms: C18_18  and  N3_68 
REMARK       I    between atoms: C19_19  and  C20_20 
REMARK       I    between atoms: C19_19  and  C24_24 
REMARK       I    between atoms: C19_19  and  N3_68 
REMARK       I    between atoms: C20_20  and  C21_21 
REMARK       I    between atoms: C21_21  and  C22_22 
REMARK       I    between atoms: C22_22  and  N4_69 
REMARK       I    between atoms: C23_23  and  N5_71 
REMARK       I    between atoms: C23_23  and  N6_72 
REMARK       I    between atoms: C25_25  and  C26_26 
REMARK       I    between atoms: C25_25  and  N7_73 
REMARK       I    between atoms: C26_26  and  C27_27 
REMARK       I    between atoms: C26_26  and  N11_78 
REMARK       I    between atoms: C27_27  and  C28_28 
REMARK       I    between atoms: C28_28  and  C29_29 
REMARK       I    between atoms: C29_29  and  N8_74 
REMARK       I    between atoms: C30_30  and  N9_76 
REMARK       I    between atoms: C30_30  and  N10_77 
REMARK       I    between atoms: C31_31  and  C32_32 
REMARK       I    between atoms: C31_31  and  N11_78 
REMARK       I    between atoms: C32_32  and  N12_79 
REMARK       I    between atoms: C33_33  and  C34_34 
REMARK       I    between atoms: C33_33  and  N12_79 
REMARK       I    between atoms: C34_34  and  N13_80 
REMARK       I    between atoms: C35_35  and  C36_36 
REMARK       I    between atoms: C35_35  and  N13_80 
REMARK       I    between atoms: C36_36  and  C37_37 
REMARK       I    between atoms: C36_36  and  N14_81 
REMARK       I    between atoms: C37_37  and  C38_38 
REMARK       I    between atoms: C44_44  and  C45_45 
REMARK       I    between atoms: C44_44  and  N14_81 
REMARK       I    between atoms: C45_45  and  C46_46 
REMARK       I    between atoms: C45_45  and  N15_82 
REMARK       I    between atoms: C46_46  and  S2_86 
REMARK       I    between atoms: C47_47  and  C48_48 
REMARK       I    between atoms: C47_47  and  N15_82 
REMARK       I    between atoms: C48_48  and  C49_49 
REMARK       I    between atoms: C48_48  and  N16_83 
REMARK       I    between atoms: C49_49  and  O11_63 
REMARK       I    between atoms: C50_50  and  C51_51 
REMARK       I    between atoms: C50_50  and  N16_83 
REMARK       I    between atoms: C51_51  and  C52_52 
REMARK       I    between atoms: C51_51  and  N17_84 
REMARK       I    between atoms: C52_52  and  O13_65 
USER                              x       y       z     vdW  Elec       q    Type
USER                           _______ _______ _______ _____ _____    ______ ____
ROOT
ATOM      1  C1  UNL     1      10.724   0.353   4.698+99.99 +0.00    +0.005 C 
ATOM      2  C2  UNL     1      11.008   1.603   5.521+48.31 +0.00    +0.002 C 
ATOM      3  C3  UNL     1      11.820   2.678   4.762 +1.86 +0.00    +0.013 C 
ATOM      4  C4  UNL     1      13.213   2.141   4.393+99.99 +0.00    +0.012 C 
ATOM      5  C5  UNL     1      11.959   3.970   5.607 -0.31 +0.00    +0.180 C 
ATOM      6  C6  UNL     1      12.696   5.113   4.876 +1.70 +0.00    +0.241 C 
ATOM      7  C7  UNL     1      12.713   6.608   2.918 -0.14 +0.00    +0.185 C 
ATOM      8  C8  UNL     1      13.688   5.896   1.963+99.99 +0.00    +0.105 C 
ATOM      9  C9  UNL     1      11.804   7.561   2.118 +0.56 +0.00    +0.241 C 
ATOM     10  C10 UNL     1       9.523   8.026   1.268 +2.00 +0.00    +0.180 C 
ATOM     11  C11 UNL     1       9.892   8.406  -0.190 +9.71 +0.00    +0.073 C 
ATOM     12  C12 UNL     1      10.447   7.305  -1.072 -0.25 -0.00    -0.056 A 
ATOM     13  C13 UNL     1      11.793   7.340  -1.467 +0.24 +0.00    +0.007 A 
ATOM     14  C14 UNL     1      12.328   6.333  -2.274 -0.14 +0.00    +0.001 A 
ATOM     15  C15 UNL     1      11.524   5.274  -2.689 +1.34 +0.00    +0.000 A 
ATOM     16  C16 UNL     1      10.183   5.234  -2.315 -0.22 +0.00    +0.001 A 
ATOM     17  C17 UNL     1       9.643   6.255  -1.531 -0.24 +0.00    +0.007 A 
ATOM     18  C18 UNL     1       8.115   7.395   1.268 -0.27 +0.00    +0.241 C 
ATOM     19  C19 UNL     1       6.926   5.235   1.016 -0.14 +0.00    +0.146 C 
ATOM     20  C20 UNL     1       7.343   3.787   0.740 -0.12 +0.00    +0.034 C 
ATOM     21  C21 UNL     1       6.292   2.887   0.074 -0.11 +0.00    +0.022 C 
ATOM     22  C22 UNL     1       5.489   3.522  -1.059 -0.10 +0.00    +0.121 C 
ATOM     23  C23 UNL     1       5.873   4.758  -3.016+31.56 +0.00    +0.121 C 
ATOM     24  C24 UNL     1       5.861   5.364   2.101 -0.12 +0.00    +0.256 C 
ATOM     25  C25 UNL     1       9.589   4.787   5.399 -0.22 +0.00    +0.241 C 
ATOM     26  C26 UNL     1       8.495   5.539   6.196 -0.15 +0.00    +0.176 C 
ATOM     27  C27 UNL     1       7.166   5.691   5.451 -0.14 +0.00    +0.036 C 
ATOM     28  C28 UNL     1       6.175   4.553   5.731 -0.38 +0.00    +0.022 C 
ATOM     29  C29 UNL     1       6.625   3.182   5.234 +3.14 +0.00    +0.121 C 
ATOM     30  C30 UNL     1       4.744   1.772   4.906 +0.18 +0.00    +0.121 C 
ATOM     31  C31 UNL     1       9.425   7.794   5.695+69.82 +0.00    +0.236 C 
ATOM     32  C32 UNL     1      10.187   8.965   6.325 +4.77 +0.00    +0.225 C 
ATOM     33  C33 UNL     1      12.235   7.805   7.059 -0.26 +0.00    +0.235 C 
ATOM     34  C34 UNL     1      13.758   7.958   7.224 +1.05 +0.00    +0.225 C 
ATOM     35  C35 UNL     1      14.559   9.882   5.877+28.48 +0.00    +0.241 C 
ATOM     36  C36 UNL     1      15.428  10.373   4.700+99.99 +0.00    +0.180 C 
ATOM     37  C37 UNL     1      14.561  10.525   3.439+66.54 +0.00    +0.073 C 
ATOM     38  C38 UNL     1      15.264  11.267   2.323 +0.35 -0.00    -0.056 A 
ATOM     39  C39 UNL     1      15.507  12.644   2.420+58.31 +0.00    +0.007 A 
ATOM     40  C40 UNL     1      16.147  13.324   1.383+65.42 +0.00    +0.001 A 
ATOM     41  C41 UNL     1      16.548  12.637   0.239 +3.69 +0.00    +0.000 A 
ATOM     42  C42 UNL     1      16.311  11.269   0.133 +1.18 +0.00    +0.001 A 
ATOM     43  C43 UNL     1      15.672  10.587   1.169 -0.08 +0.00    +0.007 A 
ATOM     44  C44 UNL     1      16.750   8.377   3.928 -0.42 +0.00    +0.241 C 
ATOM     45  C45 UNL     1      18.173   7.859   3.642 -0.40 +0.00    +0.185 C 
ATOM     46  C46 UNL     1      18.643   7.089   4.882+33.19 +0.00    +0.105 C 
ATOM     47  C47 UNL     1      19.204   9.416   2.007 +0.06 +0.00    +0.243 C 
ATOM     48  C48 UNL     1      20.193  10.573   1.798 -0.40 +0.00    +0.200 C 
ATOM     49  C49 UNL     1      19.723  11.849   2.510 +0.25 +0.00    +0.199 C 
ATOM     50  C50 UNL     1      21.314  11.637  -0.153 -0.10 +0.00    +0.253 C 
ATOM     51  C51 UNL     1      21.375  11.649  -1.694+99.99 +0.00    +0.332 C 
ATOM     52  C52 UNL     1      22.510  12.562  -2.181+63.41 +0.00    +0.209 C 
ATOM     53  O1  UNL     1      13.809   5.494   5.238 -0.14 -0.00    -0.271 OA
ATOM     54  O2  UNL     1      12.267   8.557   1.561+99.99 -0.00    -0.271 OA
ATOM     55  O3  UNL     1       7.098   8.042   1.029 -0.38 -0.00    -0.271 OA
ATOM     56  O4  UNL     1       5.002   4.517   2.349 -0.07 -0.00    -0.305 OA
ATOM     57  O5  UNL     1       9.482   4.467   4.217 -0.18 -0.00    -0.271 OA
ATOM     58  O6  UNL     1       9.247   7.684   4.486 +0.32 -0.00    -0.272 OA
ATOM     59  O7  UNL     1      11.588   6.956   7.677 +0.51 -0.00    -0.272 OA
ATOM     60  O8  UNL     1      13.847  10.663   6.514+25.10 -0.00    -0.271 OA
ATOM     61  O9  UNL     1      15.760   7.657   3.831 -0.75 -0.00    -0.271 OA
ATOM     62  O10 UNL     1      18.595   8.903   1.070 +0.73 -0.00    -0.271 OA
ATOM     63  O11 UNL     1      20.841  12.564   3.035 +3.49 -0.00    -0.398 OA
ATOM     64  O12 UNL     1      22.020  12.337   0.569+41.75 -0.00    -0.271 OA
ATOM     65  O13 UNL     1      23.785  12.062  -1.781 +2.94 -0.00    -0.398 OA
ATOM     66  N1  UNL     1      12.029   5.672   3.806 +0.29 -0.00    -0.345 N 
ATOM     67  N2  UNL     1      10.487   7.171   1.983 -0.13 -0.00    -0.346 N 
ATOM     68  N3  UNL     1       8.093   6.022   1.415 -0.04 -0.00    -0.348 N 
ATOM     69  N4  UNL     1       6.397   4.108  -2.044 +0.20 -0.00    -0.372 N 
ATOM     70  H4  UNL     1       7.409   4.004  -1.960 +0.00 +0.00    +0.161 HD
ATOM     71  N5  UNL     1       6.654   5.351  -3.943+38.66 -0.00    -0.279 NA
ATOM     72  N6  UNL     1       4.574   4.988  -3.303+85.12 -0.00    -0.279 NA
ATOM     73  N7  UNL     1      10.719   4.525   6.154 -0.14 -0.00    -0.346 N 
ATOM     74  N8  UNL     1       5.668   2.176   5.688+35.92 -0.00    -0.372 N 
ATOM     75  H8  UNL     1       5.739   1.797   6.632 +3.17 +0.00    +0.161 HD
ATOM     76  N9  UNL     1       3.894   0.811   5.332 +0.43 -0.00    -0.279 NA
ATOM     77  N10 UNL     1       4.427   2.123   3.642 -0.11 -0.00    -0.279 NA
ATOM     78  N11 UNL     1       9.062   6.824   6.613+10.16 -0.00    -0.346 N 
ATOM     79  N12 UNL     1      11.624   8.767   6.279 +0.34 -0.00    -0.351 N 
ATOM     80  N13 UNL     1      14.471   8.534   6.093 +5.90 -0.00    -0.351 N 
ATOM     81  N14 UNL     1      16.685   9.637   4.482 -0.13 -0.00    -0.346 N 
ATOM     82  N15 UNL     1      19.070   8.980   3.310 -0.20 -0.00    -0.345 N 
ATOM     83  N16 UNL     1      20.366  10.780   0.360 -0.25 -0.00    -0.344 N 
ATOM     84  N17 UNL     1      20.065  12.094  -2.225+14.91 +0.00    +0.094 N 
ATOM     85  S1  UNL     1      12.934   4.501   1.047+99.99 -0.00    -0.180 SA
ATOM     86  S2  UNL     1      20.251   6.268   4.618+83.15 -0.00    -0.180 SA
ATOM     87  H58 UNL     1      21.437  12.743   2.273 +2.32 +0.00    +0.209 HD
ATOM     88  H59 UNL     1      23.862  12.240  -0.823 +0.29 +0.00    +0.209 HD
ATOM     89  H60 UNL     1      11.234   5.149   3.442 -0.09 +0.00    +0.163 HD
ATOM     90  H61 UNL     1      10.108   6.801   2.857 +0.09 +0.00    +0.163 HD
ATOM     91  H62 UNL     1       9.000   5.564   1.408 +0.08 +0.00    +0.163 HD
ATOM     92  H63 UNL     1       6.364   6.303  -4.138+68.68 +0.00    +0.126 HD
ATOM     93  H64 UNL     1       7.627   5.338  -3.654 -0.32 +0.00    +0.126 HD
ATOM     94  H65 UNL     1       4.396   4.973  -4.301 +0.10 +0.00    +0.126 HD
ATOM     95  H66 UNL     1       3.923   4.387  -2.815 -0.37 +0.00    +0.126 HD
ATOM     96  H67 UNL     1      10.857   5.140   6.953 +0.12 +0.00    +0.163 HD
ATOM     97  H68 UNL     1       4.238   0.423   6.205 +2.88 +0.00    +0.126 HD
ATOM     98  H69 UNL     1       3.782   0.080   4.640 +0.04 +0.00    +0.126 HD
ATOM     99  H70 UNL     1       3.427   2.143   3.489 +0.04 +0.00    +0.126 HD
ATOM    100  H71 UNL     1       4.816   3.013   3.321 +0.05 +0.00    +0.126 HD
ATOM    101  H72 UNL     1       9.622   6.825   7.465 +0.22 +0.00    +0.163 HD
ATOM    102  H73 UNL     1      12.183   9.609   6.152 +0.99 +0.00    +0.163 HD
ATOM    103  H74 UNL     1      14.795   7.892   5.366 +0.12 +0.00    +0.163 HD
ATOM    104  H75 UNL     1      17.481  10.222   4.268 +0.11 +0.00    +0.163 HD
ATOM    105  H76 UNL     1      19.648   9.383   4.041 +0.19 +0.00    +0.163 HD
ATOM    106  H77 UNL     1      19.913  10.104  -0.252 +0.13 +0.00    +0.163 HD
ATOM    107  H78 UNL     1      19.896  13.056  -1.931 +4.15 +0.00    +0.314 HD
ATOM    108  H79 UNL     1      19.319  11.538  -1.809 +0.67 +0.00    +0.314 HD
ATOM    109  H80 UNL     1      12.074   5.232   0.321 +0.01 +0.00    +0.101 HD
ATOM    110  H81 UNL     1      20.920   7.342   4.180 +4.75 +0.00    +0.101 HD
ENDROOT
TORSDOF 44
TER
