USER    Run = 1
USER    DPF = ligand_335_receptor.dpf
USER  
USER    Estimated Free Energy of Binding    =  +2.64e+003 kcal/mol  [=(1)+(2)+(3)-(4)]
USER    
USER    (1) Final Intermolecular Energy     =  +2.64e+003 kcal/mol
USER        vdW + Hbond + desolv Energy     =  +2.64e+003 kcal/mol
USER        Electrostatic Energy            =   +0.00 kcal/mol
USER    (2) Final Total Internal Energy     =   +0.00 kcal/mol
USER    (3) Torsional Free Energy           =   +1.19 kcal/mol
USER    (4) Unbound System's Energy  [=(2)] =   +0.00 kcal/mol
USER    
USER    
USER    NEWDPF move ligand_335.pdbqt
USER    NEWDPF about 0.000000 0.000000 0.000000
USER    NEWDPF tran0 12.337652 6.949173 2.451133
USER    NEWDPF quaternion0 -0.907744 -0.295902 -0.247396 -0.165037
USER    NEWDPF axisangle0 -0.920365 -0.300016 -0.250835 -161.001245
USER    NEWDPF quat0 -0.920365 -0.300016 -0.250835 -161.001245
USER  keepresnum = 1 
USER  
REMARK  0 active torsions:
REMARK  status: ('A' for Active; 'I' for Inactive)
REMARK       I    between atoms: C2_2  and  C3_3 
REMARK       I    between atoms: C3_3  and  C5_5 
REMARK       I    between atoms: C5_5  and  C6_6 
REMARK       I    between atoms: C5_5  and  N7_73 
REMARK       I    between atoms: C6_6  and  N1_66 
REMARK       I    between atoms: C7_7  and  C8_8 
REMARK       I    between atoms: C7_7  and  C9_9 
REMARK       I    between atoms: C7_7  and  N1_66 
REMARK       I    between atoms: C8_8  and  S1_85 
REMARK       I    between atoms: C9_9  and  N2_67 
REMARK       I    between atoms: C10_10  and  C11_11 
REMARK       I    between atoms: C10_10  and  C18_18 
REMARK       I    between atoms: C10_10  and  N2_67 
REMARK       I    between atoms: C11_11  and  C12_12 
REMARK       I    between atoms: C18_18  and  N3_68 
REMARK       I    between atoms: C19_19  and  C20_20 
REMARK       I    between atoms: C19_19  and  C24_24 
REMARK       I    between atoms: C19_19  and  N3_68 
REMARK       I    between atoms: C20_20  and  C21_21 
REMARK       I    between atoms: C21_21  and  C22_22 
REMARK       I    between atoms: C22_22  and  N4_69 
REMARK       I    between atoms: C23_23  and  N5_71 
REMARK       I    between atoms: C23_23  and  N6_72 
REMARK       I    between atoms: C25_25  and  C26_26 
REMARK       I    between atoms: C25_25  and  N7_73 
REMARK       I    between atoms: C26_26  and  C27_27 
REMARK       I    between atoms: C26_26  and  N11_78 
REMARK       I    between atoms: C27_27  and  C28_28 
REMARK       I    between atoms: C28_28  and  C29_29 
REMARK       I    between atoms: C29_29  and  N8_74 
REMARK       I    between atoms: C30_30  and  N9_76 
REMARK       I    between atoms: C30_30  and  N10_77 
REMARK       I    between atoms: C31_31  and  C32_32 
REMARK       I    between atoms: C31_31  and  N11_78 
REMARK       I    between atoms: C32_32  and  N12_79 
REMARK       I    between atoms: C33_33  and  C34_34 
REMARK       I    between atoms: C33_33  and  N12_79 
REMARK       I    between atoms: C34_34  and  N13_80 
REMARK       I    between atoms: C35_35  and  C36_36 
REMARK       I    between atoms: C35_35  and  N13_80 
REMARK       I    between atoms: C36_36  and  C37_37 
REMARK       I    between atoms: C36_36  and  N14_81 
REMARK       I    between atoms: C37_37  and  C38_38 
REMARK       I    between atoms: C44_44  and  C45_45 
REMARK       I    between atoms: C44_44  and  N14_81 
REMARK       I    between atoms: C45_45  and  C46_46 
REMARK       I    between atoms: C45_45  and  N15_82 
REMARK       I    between atoms: C46_46  and  S2_86 
REMARK       I    between atoms: C47_47  and  C48_48 
REMARK       I    between atoms: C47_47  and  N15_82 
REMARK       I    between atoms: C48_48  and  C49_49 
REMARK       I    between atoms: C48_48  and  N16_83 
REMARK       I    between atoms: C49_49  and  O11_63 
REMARK       I    between atoms: C50_50  and  C51_51 
REMARK       I    between atoms: C50_50  and  N16_83 
REMARK       I    between atoms: C51_51  and  C52_52 
REMARK       I    between atoms: C51_51  and  N17_84 
REMARK       I    between atoms: C52_52  and  O13_65 
USER                              x       y       z     vdW  Elec       q    Type
USER                           _______ _______ _______ _____ _____    ______ ____
ROOT
ATOM      1  C1  UNL     1      10.718   0.352   4.699+99.99 +0.00    +0.005 C 
ATOM      2  C2  UNL     1      11.001   1.602   5.523+47.66 +0.00    +0.002 C 
ATOM      3  C3  UNL     1      11.814   2.677   4.765 +1.82 +0.00    +0.013 C 
ATOM      4  C4  UNL     1      13.207   2.140   4.397+99.99 +0.00    +0.012 C 
ATOM      5  C5  UNL     1      11.954   3.968   5.611 -0.31 +0.00    +0.180 C 
ATOM      6  C6  UNL     1      12.691   5.112   4.882 +1.65 +0.00    +0.241 C 
ATOM      7  C7  UNL     1      12.710   6.609   2.925 -0.14 +0.00    +0.185 C 
ATOM      8  C8  UNL     1      13.685   5.897   1.970+99.99 +0.00    +0.105 C 
ATOM      9  C9  UNL     1      11.802   7.562   2.124 +0.55 +0.00    +0.241 C 
ATOM     10  C10 UNL     1       9.521   8.028   1.273 +2.00 +0.00    +0.180 C 
ATOM     11  C11 UNL     1       9.891   8.409  -0.183 +9.89 +0.00    +0.073 C 
ATOM     12  C12 UNL     1      10.446   7.309  -1.066 -0.25 -0.00    -0.056 A 
ATOM     13  C13 UNL     1      11.793   7.344  -1.460 +0.25 +0.00    +0.007 A 
ATOM     14  C14 UNL     1      12.328   6.338  -2.268 -0.14 +0.00    +0.001 A 
ATOM     15  C15 UNL     1      11.524   5.279  -2.684 +1.32 +0.00    +0.000 A 
ATOM     16  C16 UNL     1      10.183   5.239  -2.311 -0.22 +0.00    +0.001 A 
ATOM     17  C17 UNL     1       9.642   6.259  -1.527 -0.24 +0.00    +0.007 A 
ATOM     18  C18 UNL     1       8.113   7.398   1.272 -0.27 +0.00    +0.241 C 
ATOM     19  C19 UNL     1       6.923   5.238   1.017 -0.14 +0.00    +0.146 C 
ATOM     20  C20 UNL     1       7.340   3.790   0.741 -0.12 +0.00    +0.034 C 
ATOM     21  C21 UNL     1       6.290   2.891   0.074 -0.11 +0.00    +0.022 C 
ATOM     22  C22 UNL     1       5.487   3.527  -1.060 -0.10 +0.00    +0.121 C 
ATOM     23  C23 UNL     1       5.874   4.765  -3.015+32.06 +0.00    +0.121 C 
ATOM     24  C24 UNL     1       5.858   5.366   2.102 -0.12 +0.00    +0.256 C 
ATOM     25  C25 UNL     1       9.584   4.786   5.403 -0.22 +0.00    +0.241 C 
ATOM     26  C26 UNL     1       8.490   5.537   6.199 -0.15 +0.00    +0.176 C 
ATOM     27  C27 UNL     1       7.160   5.690   5.453 -0.14 +0.00    +0.036 C 
ATOM     28  C28 UNL     1       6.169   4.553   5.732 -0.38 +0.00    +0.022 C 
ATOM     29  C29 UNL     1       6.619   3.182   5.234 +3.12 +0.00    +0.121 C 
ATOM     30  C30 UNL     1       4.738   1.772   4.904 +0.17 +0.00    +0.121 C 
ATOM     31  C31 UNL     1       9.421   7.793   5.701+72.84 +0.00    +0.236 C 
ATOM     32  C32 UNL     1      10.182   8.963   6.332 +4.96 +0.00    +0.225 C 
ATOM     33  C33 UNL     1      12.229   7.802   7.067 -0.25 +0.00    +0.235 C 
ATOM     34  C34 UNL     1      13.752   7.955   7.232 +1.01 +0.00    +0.225 C 
ATOM     35  C35 UNL     1      14.554   9.879   5.888+27.96 +0.00    +0.241 C 
ATOM     36  C36 UNL     1      15.425  10.371   4.711+99.99 +0.00    +0.180 C 
ATOM     37  C37 UNL     1      14.559  10.524   3.450+68.61 +0.00    +0.073 C 
ATOM     38  C38 UNL     1      15.262  11.267   2.335 +0.37 -0.00    -0.056 A 
ATOM     39  C39 UNL     1      15.506  12.644   2.434+57.53 +0.00    +0.007 A 
ATOM     40  C40 UNL     1      16.146  13.324   1.397+67.87 +0.00    +0.001 A 
ATOM     41  C41 UNL     1      16.548  12.639   0.253 +3.55 +0.00    +0.000 A 
ATOM     42  C42 UNL     1      16.311  11.270   0.146 +1.04 +0.00    +0.001 A 
ATOM     43  C43 UNL     1      15.670  10.588   1.181 -0.08 +0.00    +0.007 A 
ATOM     44  C44 UNL     1      16.746   8.375   3.939 -0.42 +0.00    +0.241 C 
ATOM     45  C45 UNL     1      18.169   7.858   3.654 -0.39 +0.00    +0.185 C 
ATOM     46  C46 UNL     1      18.639   7.086   4.893+34.09 +0.00    +0.105 C 
ATOM     47  C47 UNL     1      19.202   9.415   2.021 +0.04 +0.00    +0.243 C 
ATOM     48  C48 UNL     1      20.191  10.572   1.812 -0.39 +0.00    +0.200 C 
ATOM     49  C49 UNL     1      19.721  11.848   2.525 +0.34 +0.00    +0.199 C 
ATOM     50  C50 UNL     1      21.314  11.637  -0.137 -0.07 +0.00    +0.253 C 
ATOM     51  C51 UNL     1      21.376  11.650  -1.678+84.35 +0.00    +0.332 C 
ATOM     52  C52 UNL     1      22.511  12.563  -2.163+57.74 +0.00    +0.209 C 
ATOM     53  O1  UNL     1      13.804   5.492   5.245 -0.14 -0.00    -0.271 OA
ATOM     54  O2  UNL     1      12.265   8.558   1.569+99.99 -0.00    -0.271 OA
ATOM     55  O3  UNL     1       7.096   8.045   1.033 -0.38 -0.00    -0.271 OA
ATOM     56  O4  UNL     1       4.998   4.520   2.349 -0.07 -0.00    -0.305 OA
ATOM     57  O5  UNL     1       9.477   4.467   4.220 -0.18 -0.00    -0.271 OA
ATOM     58  O6  UNL     1       9.243   7.684   4.491 +0.34 -0.00    -0.272 OA
ATOM     59  O7  UNL     1      11.581   6.952   7.683 +0.53 -0.00    -0.272 OA
ATOM     60  O8  UNL     1      13.842  10.660   6.525+23.07 -0.00    -0.271 OA
ATOM     61  O9  UNL     1      15.756   7.656   3.841 -0.75 -0.00    -0.271 OA
ATOM     62  O10 UNL     1      18.593   8.903   1.082 +0.72 -0.00    -0.271 OA
ATOM     63  O11 UNL     1      20.839  12.562   3.052 +3.66 -0.00    -0.398 OA
ATOM     64  O12 UNL     1      22.020  12.337   0.586+50.46 -0.00    -0.271 OA
ATOM     65  O13 UNL     1      23.786  12.063  -1.762 +3.00 -0.00    -0.398 OA
ATOM     66  N1  UNL     1      12.024   5.672   3.812 +0.28 -0.00    -0.345 N 
ATOM     67  N2  UNL     1      10.485   7.172   1.989 -0.13 -0.00    -0.346 N 
ATOM     68  N3  UNL     1       8.091   6.025   1.419 -0.04 -0.00    -0.348 N 
ATOM     69  N4  UNL     1       6.396   4.114  -2.044 +0.21 -0.00    -0.372 N 
ATOM     70  H4  UNL     1       7.408   4.009  -1.959 +0.00 +0.00    +0.161 HD
ATOM     71  N5  UNL     1       6.655   5.359  -3.941+39.61 -0.00    -0.279 NA
ATOM     72  N6  UNL     1       4.574   4.996  -3.303+87.38 -0.00    -0.279 NA
ATOM     73  N7  UNL     1      10.713   4.523   6.157 -0.14 -0.00    -0.346 N 
ATOM     74  N8  UNL     1       5.662   2.176   5.686+35.19 -0.00    -0.372 N 
ATOM     75  H8  UNL     1       5.732   1.796   6.630 +3.12 +0.00    +0.161 HD
ATOM     76  N9  UNL     1       3.887   0.811   5.328 +0.41 -0.00    -0.279 NA
ATOM     77  N10 UNL     1       4.422   2.125   3.640 -0.11 -0.00    -0.279 NA
ATOM     78  N11 UNL     1       9.056   6.822   6.617+10.33 -0.00    -0.346 N 
ATOM     79  N12 UNL     1      11.619   8.765   6.287 +0.33 -0.00    -0.351 N 
ATOM     80  N13 UNL     1      14.466   8.531   6.102 +5.86 -0.00    -0.351 N 
ATOM     81  N14 UNL     1      16.681   9.635   4.494 -0.13 -0.00    -0.346 N 
ATOM     82  N15 UNL     1      19.067   8.978   3.322 -0.20 -0.00    -0.345 N 
ATOM     83  N16 UNL     1      20.365  10.780   0.375 -0.25 -0.00    -0.344 N 
ATOM     84  N17 UNL     1      20.067  12.096  -2.209+14.35 +0.00    +0.094 N 
ATOM     85  S1  UNL     1      12.931   4.502   1.052+99.99 -0.00    -0.180 SA
ATOM     86  S2  UNL     1      20.246   6.265   4.630+83.48 -0.00    -0.180 SA
ATOM     87  H58 UNL     1      21.436  12.741   2.290 +2.26 +0.00    +0.209 HD
ATOM     88  H59 UNL     1      23.862  12.240  -0.804 +0.29 +0.00    +0.209 HD
ATOM     89  H60 UNL     1      11.230   5.149   3.447 -0.09 +0.00    +0.163 HD
ATOM     90  H61 UNL     1      10.105   6.801   2.862 +0.09 +0.00    +0.163 HD
ATOM     91  H62 UNL     1       8.998   5.566   1.411 +0.08 +0.00    +0.163 HD
ATOM     92  H63 UNL     1       6.365   6.311  -4.136+71.36 +0.00    +0.126 HD
ATOM     93  H64 UNL     1       7.627   5.345  -3.652 -0.32 +0.00    +0.126 HD
ATOM     94  H65 UNL     1       4.397   4.981  -4.301 +0.10 +0.00    +0.126 HD
ATOM     95  H66 UNL     1       3.922   4.394  -2.816 -0.38 +0.00    +0.126 HD
ATOM     96  H67 UNL     1      10.850   5.137   6.957 +0.12 +0.00    +0.163 HD
ATOM     97  H68 UNL     1       4.231   0.423   6.201 +2.75 +0.00    +0.126 HD
ATOM     98  H69 UNL     1       3.776   0.081   4.636 +0.04 +0.00    +0.126 HD
ATOM     99  H70 UNL     1       3.422   2.145   3.486 +0.04 +0.00    +0.126 HD
ATOM    100  H71 UNL     1       4.812   3.015   3.320 +0.05 +0.00    +0.126 HD
ATOM    101  H72 UNL     1       9.615   6.822   7.469 +0.22 +0.00    +0.163 HD
ATOM    102  H73 UNL     1      12.178   9.607   6.161 +0.97 +0.00    +0.163 HD
ATOM    103  H74 UNL     1      14.791   7.889   5.375 +0.12 +0.00    +0.163 HD
ATOM    104  H75 UNL     1      17.478  10.220   4.280 +0.11 +0.00    +0.163 HD
ATOM    105  H76 UNL     1      19.645   9.380   4.054 +0.19 +0.00    +0.163 HD
ATOM    106  H77 UNL     1      19.913  10.105  -0.237 +0.13 +0.00    +0.163 HD
ATOM    107  H78 UNL     1      19.897  13.058  -1.914 +4.26 +0.00    +0.314 HD
ATOM    108  H79 UNL     1      19.320  11.540  -1.794 +0.65 +0.00    +0.314 HD
ATOM    109  H80 UNL     1      12.072   5.235   0.326 +0.01 +0.00    +0.101 HD
ATOM    110  H81 UNL     1      20.916   7.339   4.192 +4.92 +0.00    +0.101 HD
ENDROOT
TORSDOF 44
TER
