USER    Run = 1
USER    DPF = ligand_178_receptor.dpf
USER  
USER    Estimated Free Energy of Binding    =  +3.26e+004 kcal/mol  [=(1)+(2)+(3)-(4)]
USER    
USER    (1) Final Intermolecular Energy     =  +3.26e+004 kcal/mol
USER        vdW + Hbond + desolv Energy     =  +3.26e+004 kcal/mol
USER        Electrostatic Energy            =   +0.00 kcal/mol
USER    (2) Final Total Internal Energy     =   +0.00 kcal/mol
USER    (3) Torsional Free Energy           =   +1.19 kcal/mol
USER    (4) Unbound System's Energy  [=(2)] =   +0.00 kcal/mol
USER    
USER    
USER    NEWDPF move ligand_178.pdbqt
USER    NEWDPF about 0.000000 0.000000 0.000000
USER    NEWDPF tran0 16.055460 8.092599 3.953848
USER    NEWDPF quaternion0 0.103502 0.415545 0.900866 0.071064
USER    NEWDPF axisangle0 0.103764 0.416598 0.903150 171.849830
USER    NEWDPF quat0 0.103764 0.416598 0.903150 171.849830
USER  keepresnum = 1 
USER  
REMARK  0 active torsions:
REMARK  status: ('A' for Active; 'I' for Inactive)
REMARK       I    between atoms: C2_2  and  N1_54 
REMARK       I    between atoms: C3_3  and  C4_4 
REMARK       I    between atoms: C3_3  and  N1_54 
REMARK       I    between atoms: C4_4  and  C5_5 
REMARK       I    between atoms: C5_5  and  C6_6 
REMARK       I    between atoms: C6_6  and  C7_7 
REMARK       I    between atoms: C7_7  and  C8_8 
REMARK       I    between atoms: C7_7  and  N2_55 
REMARK       I    between atoms: C8_8  and  O3_47 
REMARK       I    between atoms: C9_9  and  C10_10 
REMARK       I    between atoms: C9_9  and  N2_55 
REMARK       I    between atoms: C10_10  and  C11_11 
REMARK       I    between atoms: C11_11  and  C12_12 
REMARK       I    between atoms: C12_12  and  C13_13 
REMARK       I    between atoms: C13_13  and  C14_14 
REMARK       I    between atoms: C14_14  and  N3_56 
REMARK       I    between atoms: C15_15  and  C16_16 
REMARK       I    between atoms: C15_15  and  N3_56 
REMARK       I    between atoms: C16_16  and  C17_17 
REMARK       I    between atoms: C17_17  and  C18_18 
REMARK       I    between atoms: C18_18  and  C19_19 
REMARK       I    between atoms: C19_19  and  C20_20 
REMARK       I    between atoms: C20_20  and  N4_57 
REMARK       I    between atoms: C21_21  and  C22_22 
REMARK       I    between atoms: C21_21  and  N4_57 
REMARK       I    between atoms: C22_22  and  C23_23 
REMARK       I    between atoms: C23_23  and  C24_24 
REMARK       I    between atoms: C24_24  and  C25_25 
REMARK       I    between atoms: C25_25  and  C26_26 
REMARK       I    between atoms: C26_26  and  N5_58 
REMARK       I    between atoms: C27_27  and  C28_28 
REMARK       I    between atoms: C27_27  and  N5_58 
REMARK       I    between atoms: C28_28  and  C29_29 
REMARK       I    between atoms: C29_29  and  C30_30 
REMARK       I    between atoms: C30_30  and  C31_31 
REMARK       I    between atoms: C31_31  and  C32_32 
REMARK       I    between atoms: C32_32  and  N6_59 
REMARK       I    between atoms: C33_33  and  C34_34 
REMARK       I    between atoms: C33_33  and  N6_59 
REMARK       I    between atoms: C34_34  and  C35_35 
REMARK       I    between atoms: C35_35  and  C36_36 
REMARK       I    between atoms: C36_36  and  C37_37 
REMARK       I    between atoms: C37_37  and  C38_38 
REMARK       I    between atoms: C38_38  and  N7_60 
REMARK       I    between atoms: C39_39  and  C40_40 
REMARK       I    between atoms: C39_39  and  N7_60 
REMARK       I    between atoms: C40_40  and  C41_41 
REMARK       I    between atoms: C41_41  and  C42_42 
REMARK       I    between atoms: C42_42  and  C43_43 
REMARK       I    between atoms: C43_43  and  C44_44 
REMARK       I    between atoms: C44_44  and  N8_61 
USER                              x       y       z     vdW  Elec       q    Type
USER                           _______ _______ _______ _____ _____    ______ ____
ROOT
ATOM      1  C1  UNL     1      32.247   3.757  -1.953 -0.02 +0.00    +0.117 C 
ATOM      2  C2  UNL     1      30.973   3.054  -1.563 -0.05 +0.00    +0.213 C 
ATOM      3  C3  UNL     1      28.793   2.240  -2.445 -0.16 +0.00    +0.122 C 
ATOM      4  C4  UNL     1      27.614   3.060  -2.978 -0.29 +0.00    +0.020 C 
ATOM      5  C5  UNL     1      27.311   4.315  -2.150 -0.27 +0.00    +0.004 C 
ATOM      6  C6  UNL     1      26.634   4.002  -0.803 -0.22 +0.00    +0.036 C 
ATOM      7  C7  UNL     1      27.125   4.883   0.357 -0.17 +0.00    +0.182 C 
ATOM      8  C8  UNL     1      28.603   4.599   0.630 -0.02 +0.00    +0.163 C 
ATOM      9  C9  UNL     1      25.744   6.940   0.177 -0.29 +0.00    +0.218 C 
ATOM     10  C10 UNL     1      25.827   8.430  -0.101 +0.19 +0.00    +0.103 C 
ATOM     11  C11 UNL     1      24.536   9.184   0.221 +1.02 +0.00    +0.009 C 
ATOM     12  C12 UNL     1      24.195   9.275   1.713 -0.53 +0.00    +0.002 C 
ATOM     13  C13 UNL     1      25.241   9.966   2.598 -0.65 +0.00    +0.020 C 
ATOM     14  C14 UNL     1      25.577  11.401   2.194 +6.25 +0.00    +0.122 C 
ATOM     15  C15 UNL     1      23.956  12.831   3.394+99.99 +0.00    +0.217 C 
ATOM     16  C16 UNL     1      22.677  13.624   3.198+99.99 +0.00    +0.103 C 
ATOM     17  C17 UNL     1      22.070  14.140   4.502+99.99 +0.00    +0.009 C 
ATOM     18  C18 UNL     1      21.435  13.022   5.336+99.99 +0.00    +0.002 C 
ATOM     19  C19 UNL     1      20.791  13.581   6.609+99.99 +0.00    +0.020 C 
ATOM     20  C20 UNL     1      20.247  12.482   7.522+43.27 +0.00    +0.122 C 
ATOM     21  C21 UNL     1      17.889  12.170   6.855+99.99 +0.00    +0.217 C 
ATOM     22  C22 UNL     1      16.932  11.245   6.135+14.26 +0.00    +0.103 C 
ATOM     23  C23 UNL     1      16.734   9.903   6.839+99.99 +0.00    +0.009 C 
ATOM     24  C24 UNL     1      16.222   9.995   8.282+99.99 +0.00    +0.002 C 
ATOM     25  C25 UNL     1      14.921  10.775   8.485+69.47 +0.00    +0.020 C 
ATOM     26  C26 UNL     1      13.745  10.220   7.686 +0.21 +0.00    +0.122 C 
ATOM     27  C27 UNL     1      11.712  10.561   9.046 +5.28 +0.00    +0.217 C 
ATOM     28  C28 UNL     1      10.550  11.514   9.259+96.56 +0.00    +0.103 C 
ATOM     29  C29 UNL     1       9.499  10.993  10.240+99.99 +0.00    +0.009 C 
ATOM     30  C30 UNL     1       8.686   9.792   9.738+99.99 +0.00    +0.002 C 
ATOM     31  C31 UNL     1       7.897  10.012   8.444+99.99 +0.00    +0.020 C 
ATOM     32  C32 UNL     1       6.872  11.140   8.543+99.99 +0.00    +0.122 C 
ATOM     33  C33 UNL     1       4.997  10.463   7.083+22.85 +0.00    +0.217 C 
ATOM     34  C34 UNL     1       4.370  10.714   5.724 +6.88 +0.00    +0.103 C 
ATOM     35  C35 UNL     1       3.405   9.617   5.267 +0.87 +0.00    +0.009 C 
ATOM     36  C36 UNL     1       4.081   8.483   4.486+66.03 +0.00    +0.002 C 
ATOM     37  C37 UNL     1       5.029   7.584   5.287+99.99 +0.00    +0.020 C 
ATOM     38  C38 UNL     1       4.347   6.734   6.362 -0.02 +0.00    +0.122 C 
ATOM     39  C39 UNL     1       3.703   4.654   5.181 -0.13 +0.00    +0.217 C 
ATOM     40  C40 UNL     1       2.494   3.875   4.691 -0.10 +0.00    +0.103 C 
ATOM     41  C41 UNL     1       2.856   2.684   3.804 -0.13 +0.00    +0.009 C 
ATOM     42  C42 UNL     1       3.282   3.117   2.397 -0.12 +0.00    +0.002 C 
ATOM     43  C43 UNL     1       3.777   1.958   1.526 -0.15 +0.00    +0.030 C 
ATOM     44  C44 UNL     1       2.700   0.915   1.231 -0.10 +0.00    +0.267 C 
ATOM     45  O1  UNL     1      30.793   2.628  -0.425 -0.11 -0.00    -0.274 OA
ATOM     46  O2  UNL     1      29.521   5.383   0.423 +0.04 -0.00    -0.648 OA
ATOM     47  O3  UNL     1      28.814   3.337   1.051 -0.16 -0.00    -0.775 OA
ATOM     48  O4  UNL     1      24.700   6.348   0.424 -0.26 -0.00    -0.274 OA
ATOM     49  O5  UNL     1      24.527  12.708   4.471+84.35 -0.00    -0.274 OA
ATOM     50  O6  UNL     1      17.519  13.236   7.338+31.26 -0.00    -0.274 OA
ATOM     51  O7  UNL     1      11.924   9.578   9.746+99.99 -0.00    -0.274 OA
ATOM     52  O8  UNL     1       4.552   9.664   7.898 -0.39 -0.00    -0.274 OA
ATOM     53  O9  UNL     1       4.859   4.273   5.043 -0.13 -0.00    -0.274 OA
ATOM     54  N1  UNL     1      30.051   2.953  -2.581 -0.01 -0.00    -0.361 N 
ATOM     55  N2  UNL     1      26.960   6.310   0.085 -0.11 -0.00    -0.347 N 
ATOM     56  N3  UNL     1      24.418  12.270   2.220+99.99 -0.00    -0.361 N 
ATOM     57  N4  UNL     1      19.185  11.713   6.907+99.99 -0.00    -0.361 N 
ATOM     58  N5  UNL     1      12.521  10.933   7.992 +1.47 -0.00    -0.361 N 
ATOM     59  N6  UNL     1       6.096  11.260   7.324+99.99 -0.00    -0.361 N 
ATOM     60  N7  UNL     1       3.357   5.826   5.817 -0.06 -0.00    -0.361 N 
ATOM     61  N8  UNL     1       3.209  -0.089   0.304 +0.84 +0.00    +0.078 N 
ATOM     62  H73 UNL     1      29.762   3.133   0.839 +0.08 +0.00    +0.167 HD
ATOM     63  H74 UNL     1      30.336   3.217  -3.515 +0.04 +0.00    +0.162 HD
ATOM     64  H75 UNL     1      27.810   6.851  -0.051 +0.09 +0.00    +0.163 HD
ATOM     65  H76 UNL     1      23.841  12.328   1.390+99.99 +0.00    +0.162 HD
ATOM     66  H77 UNL     1      19.437  10.876   6.399+99.99 +0.00    +0.162 HD
ATOM     67  H78 UNL     1      12.384  11.843   7.571 +2.39 +0.00    +0.162 HD
ATOM     68  H79 UNL     1       6.465  11.829   6.574+99.99 +0.00    +0.162 HD
ATOM     69  H80 UNL     1       2.384   6.095   5.873 +0.05 +0.00    +0.162 HD
ATOM     70  H81 UNL     1       2.510  -0.821   0.180 +0.23 +0.00    +0.312 HD
ATOM     71  H82 UNL     1       4.028  -0.543   0.708 +1.14 +0.00    +0.312 HD
ENDROOT
TORSDOF 44
TER
