USER    Run = 1
USER    DPF = ligand_87_receptor.dpf
USER  
USER    Estimated Free Energy of Binding    =  +1.22e+006 kcal/mol  [=(1)+(2)+(3)-(4)]
USER    
USER    (1) Final Intermolecular Energy     =  +1.22e+006 kcal/mol
USER        vdW + Hbond + desolv Energy     =  +8.40e+005 kcal/mol
USER        Electrostatic Energy            =  +3.78e+005 kcal/mol
USER    (2) Final Total Internal Energy     =   +0.00 kcal/mol
USER    (3) Torsional Free Energy           =   +1.19 kcal/mol
USER    (4) Unbound System's Energy  [=(2)] =   +0.00 kcal/mol
USER    
USER    
USER    NEWDPF move ligand_87.pdbqt
USER    NEWDPF about 0.000000 0.000000 0.000000
USER    NEWDPF tran0 15.659317 7.225389 4.145969
USER    NEWDPF quaternion0 -0.554643 -0.191361 0.011517 0.809703
USER    NEWDPF axisangle0 -0.945136 -0.326088 0.019625 71.866101
USER    NEWDPF quat0 -0.945136 -0.326088 0.019625 71.866101
USER  keepresnum = 1 
USER  
REMARK  0 active torsions:
REMARK  status: ('A' for Active; 'I' for Inactive)
REMARK       I    between atoms: C2_2  and  C3_3 
REMARK       I    between atoms: C2_2  and  O15_77 
REMARK       I    between atoms: C3_3  and  C4_4 
REMARK       I    between atoms: C3_3  and  N5_82 
REMARK       I    between atoms: C4_4  and  N1_78 
REMARK       I    between atoms: C5_5  and  C6_6 
REMARK       I    between atoms: C5_5  and  N1_78 
REMARK       I    between atoms: C6_6  and  N2_79 
REMARK       I    between atoms: C7_7  and  C8_8 
REMARK       I    between atoms: C7_7  and  C11_11 
REMARK       I    between atoms: C7_7  and  N2_79 
REMARK       I    between atoms: C11_11  and  N3_80 
REMARK       I    between atoms: C12_12  and  C13_13 
REMARK       I    between atoms: C12_12  and  C17_17 
REMARK       I    between atoms: C12_12  and  N3_80 
REMARK       I    between atoms: C13_13  and  C14_14 
REMARK       I    between atoms: C17_17  and  N4_81 
REMARK       I    between atoms: C18_18  and  C19_19 
REMARK       I    between atoms: C18_18  and  C22_22 
REMARK       I    between atoms: C18_18  and  N4_81 
REMARK       I    between atoms: C22_22  and  O6_68 
REMARK       I    between atoms: C23_23  and  C24_24 
REMARK       I    between atoms: C23_23  and  N5_82 
REMARK       I    between atoms: C24_24  and  N6_83 
REMARK       I    between atoms: C26_26  and  C27_27 
REMARK       I    between atoms: C26_26  and  N6_83 
REMARK       I    between atoms: C27_27  and  N7_84 
REMARK       I    between atoms: C29_29  and  C30_30 
REMARK       I    between atoms: C29_29  and  N7_84 
REMARK       I    between atoms: C30_30  and  C31_31 
REMARK       I    between atoms: C30_30  and  N8_85 
REMARK       I    between atoms: C34_34  and  C35_35 
REMARK       I    between atoms: C34_34  and  N8_85 
REMARK       I    between atoms: C35_35  and  C36_36 
REMARK       I    between atoms: C35_35  and  N9_86 
REMARK       I    between atoms: C39_39  and  C40_40 
REMARK       I    between atoms: C39_39  and  N9_86 
REMARK       I    between atoms: C40_40  and  C41_41 
REMARK       I    between atoms: C40_40  and  N11_88 
REMARK       I    between atoms: C41_41  and  C42_42 
REMARK       I    between atoms: C42_42  and  C43_43 
REMARK       I    between atoms: C43_43  and  C44_44 
REMARK       I    between atoms: C44_44  and  N10_87 
REMARK       I    between atoms: C45_45  and  C46_46 
REMARK       I    between atoms: C45_45  and  N11_88 
REMARK       I    between atoms: C46_46  and  C47_47 
REMARK       I    between atoms: C46_46  and  N13_90 
REMARK       I    between atoms: C47_47  and  C48_48 
REMARK       I    between atoms: C48_48  and  C49_49 
REMARK       I    between atoms: C49_49  and  C50_50 
REMARK       I    between atoms: C50_50  and  N12_89 
REMARK       I    between atoms: C51_51  and  C52_52 
REMARK       I    between atoms: C51_51  and  N13_90 
REMARK       I    between atoms: C52_52  and  C53_53 
REMARK       I    between atoms: C52_52  and  N15_92 
REMARK       I    between atoms: C53_53  and  C54_54 
REMARK       I    between atoms: C54_54  and  C55_55 
REMARK       I    between atoms: C55_55  and  C56_56 
REMARK       I    between atoms: C56_56  and  N14_91 
REMARK       I    between atoms: C57_57  and  C58_58 
REMARK       I    between atoms: C57_57  and  N15_92 
REMARK       I    between atoms: C58_58  and  C59_59 
REMARK       I    between atoms: C58_58  and  N17_94 
REMARK       I    between atoms: C59_59  and  C60_60 
REMARK       I    between atoms: C60_60  and  C61_61 
REMARK       I    between atoms: C61_61  and  C62_62 
REMARK       I    between atoms: C62_62  and  N16_93 
USER                              x       y       z     vdW  Elec       q    Type
USER                           _______ _______ _______ _____ _____    ______ ____
ROOT
ATOM      1  C1  UNL     1      20.994   9.900   1.893 -0.46 +0.00    +0.042 C 
ATOM      2  C2  UNL     1      19.841   8.915   2.034 +3.43 +0.00    +0.146 C 
ATOM      3  C3  UNL     1      20.214   7.438   2.330+99.99 +0.00    +0.205 C 
ATOM      4  C4  UNL     1      21.687   7.086   2.022+99.99 +0.00    +0.243 C 
ATOM      5  C5  UNL     1      23.978   6.822   2.952+99.99 +0.00    +0.225 C 
ATOM      6  C6  UNL     1      24.886   7.918   2.380 -0.31 +0.00    +0.236 C 
ATOM      7  C7  UNL     1      25.171   9.442   0.418 +8.97 +0.00    +0.180 C 
ATOM      8  C8  UNL     1      25.544  10.821   1.022+25.21 +0.00    +0.009 C 
ATOM      9  C9  UNL     1      24.310  11.546   1.571+99.99 +0.00    +0.012 C 
ATOM     10  C10 UNL     1      26.647  10.818   2.079+99.99 +0.00    +0.012 C 
ATOM     11  C11 UNL     1      26.296   8.627  -0.285 +1.81 +0.00    +0.241 C 
ATOM     12  C12 UNL     1      28.434   8.712  -1.523+19.46 +0.00    +0.177 C 
ATOM     13  C13 UNL     1      28.138   8.117  -2.911 +8.58 +0.00    +0.038 C 
ATOM     14  C14 UNL     1      27.244   8.954  -3.854+99.99 -0.00    -0.020 C 
ATOM     15  C15 UNL     1      27.873  10.285  -4.254+99.99 +0.00    +0.009 C 
ATOM     16  C16 UNL     1      26.929   8.140  -5.115+99.99+99.99    +0.009 C 
ATOM     17  C17 UNL     1      29.620   9.703  -1.493+42.89 +0.00    +0.241 C 
ATOM     18  C18 UNL     1      32.107   9.851  -1.557 -0.16 +0.00    +0.185 C 
ATOM     19  C19 UNL     1      32.255  11.270  -2.164+18.65 +0.00    +0.010 C 
ATOM     20  C20 UNL     1      33.719  11.742  -2.147+99.99+99.99    +0.012 C 
ATOM     21  C21 UNL     1      31.764  11.330  -3.616+99.99 +0.00    +0.012 C 
ATOM     22  C22 UNL     1      32.373   9.794  -0.034 -0.19 +0.00    +0.163 C 
ATOM     23  C23 UNL     1      20.084   7.563   4.845+88.93 +0.00    +0.240 C 
ATOM     24  C24 UNL     1      19.541   6.838   6.090+68.26 +0.00    +0.172 C 
ATOM     25  C25 UNL     1      20.551   5.764   6.489+60.69 +0.00    +0.042 C 
ATOM     26  C26 UNL     1      17.419   5.779   6.793+99.99 +0.00    +0.240 C 
ATOM     27  C27 UNL     1      15.999   5.369   6.339+99.99 +0.00    +0.172 C 
ATOM     28  C28 UNL     1      16.007   3.865   6.075+99.99 +0.00    +0.042 C 
ATOM     29  C29 UNL     1      15.159   7.407   5.251 +0.21 +0.00    +0.241 C 
ATOM     30  C30 UNL     1      14.330   7.956   4.067 -0.42 +0.00    +0.180 C 
ATOM     31  C31 UNL     1      15.197   8.536   2.928 -0.46 +0.00    +0.009 C 
ATOM     32  C32 UNL     1      15.936   7.438   2.161+18.78 +0.00    +0.012 C 
ATOM     33  C33 UNL     1      16.191   9.605   3.394 -0.50 +0.00    +0.012 C 
ATOM     34  C34 UNL     1      12.238   8.558   5.209 +0.56 +0.00    +0.241 C 
ATOM     35  C35 UNL     1      11.479   9.681   5.952+99.99 +0.00    +0.180 C 
ATOM     36  C36 UNL     1      12.145  10.016   7.304 +7.97 +0.00    +0.009 C 
ATOM     37  C37 UNL     1      11.496  11.251   7.937+99.99 +0.00    +0.012 C 
ATOM     38  C38 UNL     1      12.118   8.848   8.296 +1.41 +0.00    +0.012 C 
ATOM     39  C39 UNL     1       9.070   9.847   5.414+80.12 +0.00    +0.241 C 
ATOM     40  C40 UNL     1       7.750   9.040   5.433+99.99 +0.00    +0.176 C 
ATOM     41  C41 UNL     1       6.928   9.375   6.687+99.99 +0.00    +0.035 C 
ATOM     42  C42 UNL     1       6.408  10.813   6.692+99.99 +0.00    +0.004 C 
ATOM     43  C43 UNL     1       5.357  11.106   7.771+15.23 +0.00    +0.030 C 
ATOM     44  C44 UNL     1       5.854  10.992   9.213+37.45 +0.00    +0.267 C 
ATOM     45  C45 UNL     1       8.447   6.961   4.268 +0.62 +0.00    +0.241 C 
ATOM     46  C46 UNL     1       8.660   5.431   4.444 -0.19 +0.00    +0.176 C 
ATOM     47  C47 UNL     1       8.577   4.678   3.104 -0.22 +0.00    +0.035 C 
ATOM     48  C48 UNL     1       9.333   3.344   3.077 -0.14 +0.00    +0.004 C 
ATOM     49  C49 UNL     1       8.673   2.171   3.805+17.34 +0.00    +0.030 C 
ATOM     50  C50 UNL     1       7.355   1.730   3.172 +0.37 +0.00    +0.267 C 
ATOM     51  C51 UNL     1       6.450   4.792   5.430 -0.22 +0.00    +0.241 C 
ATOM     52  C52 UNL     1       5.746   4.262   6.700 -0.38 +0.00    +0.176 C 
ATOM     53  C53 UNL     1       5.268   5.474   7.512 -0.04 +0.00    +0.035 C 
ATOM     54  C54 UNL     1       4.320   5.087   8.652+99.99 +0.00    +0.004 C 
ATOM     55  C55 UNL     1       3.988   6.265   9.574+99.99 +0.00    +0.030 C 
ATOM     56  C56 UNL     1       3.194   7.375   8.886+74.77 +0.00    +0.267 C 
ATOM     57  C57 UNL     1       6.772   2.081   7.295+99.99 +0.00    +0.251 C 
ATOM     58  C58 UNL     1       7.874   1.435   8.154+99.99 +0.00    +0.308 C 
ATOM     59  C59 UNL     1       7.537   1.427   9.653+16.27 +0.00    +0.045 C 
ATOM     60  C60 UNL     1       6.416   0.453  10.047+99.99 +0.00    +0.004 C 
ATOM     61  C61 UNL     1       5.006   1.014   9.854+99.99 +0.00    +0.030 C 
ATOM     62  C62 UNL     1       3.950   0.053  10.402+90.82 +0.00    +0.267 C 
ATOM     63  O1  UNL     1      22.065   6.857   0.873+28.21 -0.00    -0.271 OA
ATOM     64  O2  UNL     1      26.024   8.089   2.808 -0.40 -0.00    -0.272 OA
ATOM     65  O3  UNL     1      26.250   7.399  -0.385 -0.25 -0.00    -0.271 OA
ATOM     66  O4  UNL     1      29.480  10.867  -1.118+84.25 -0.00    -0.271 OA
ATOM     67  O5  UNL     1      33.210  10.418   0.596+99.99+99.99    -0.648 OA
ATOM     68  O6  UNL     1      31.638   8.850   0.604 +0.07 -0.00    -0.775 OA
ATOM     69  O7  UNL     1      20.877   8.499   4.902+26.73 -0.00    -0.271 OA
ATOM     70  O8  UNL     1      17.833   5.541   7.925+99.99 -0.00    -0.271 OA
ATOM     71  O9  UNL     1      15.509   8.108   6.198+99.99 -0.00    -0.271 OA
ATOM     72  O10 UNL     1      11.847   7.387   5.195 -0.22 -0.00    -0.271 OA
ATOM     73  O11 UNL     1       9.151  10.986   4.963+99.99 -0.00    -0.271 OA
ATOM     74  O12 UNL     1       8.740   7.577   3.248 -0.29 -0.00    -0.271 OA
ATOM     75  O13 UNL     1       5.819   5.275   4.492 -0.13 -0.00    -0.271 OA
ATOM     76  O14 UNL     1       6.097   1.451   6.488+99.99 -0.00    -0.271 OA
ATOM     77  O15 UNL     1      19.054   8.975   0.832 +3.08 -0.00    -0.393 OA
ATOM     78  N1  UNL     1      22.571   7.179   3.066+14.23 -0.00    -0.350 N 
ATOM     79  N2  UNL     1      24.372   8.563   1.275 -0.16 -0.00    -0.346 N 
ATOM     80  N3  UNL     1      27.279   9.357  -0.910+62.55 -0.00    -0.346 N 
ATOM     81  N4  UNL     1      30.838   9.161  -1.859 -0.12 -0.00    -0.345 N 
ATOM     82  N5  UNL     1      19.759   6.964   3.647 +4.46 -0.00    -0.344 N 
ATOM     83  N6  UNL     1      18.224   6.273   5.783+99.99 -0.00    -0.346 N 
ATOM     84  N7  UNL     1      15.532   6.079   5.138+10.66 -0.00    -0.346 N 
ATOM     85  N8  UNL     1      13.418   8.956   4.611 +0.49 -0.00    -0.346 N 
ATOM     86  N9  UNL     1      10.101   9.237   6.104 +2.32 -0.00    -0.346 N 
ATOM     87  N10 UNL     1       5.931   9.607   9.667 +2.34 +0.00    +0.078 N 
ATOM     88  N11 UNL     1       8.074   7.606   5.438+99.99 -0.00    -0.346 N 
ATOM     89  N12 UNL     1       6.865   0.531   3.841 +1.89 +0.00    +0.078 N 
ATOM     90  N13 UNL     1       7.826   4.886   5.523 -0.11 -0.00    -0.346 N 
ATOM     91  N14 UNL     1       2.964   8.476   9.819+23.50 +0.00    +0.078 N 
ATOM     92  N15 UNL     1       6.637   3.435   7.506 +0.15 -0.00    -0.346 N 
ATOM     93  N16 UNL     1       2.606   0.582  10.202 +3.25 +0.00    +0.078 N 
ATOM     94  N17 UNL     1       9.119   2.227   7.937 +0.37 +0.00    +0.092 N 
ATOM     95  H94 UNL     1      31.903   8.943   1.544 +0.06 +0.00    +0.167 HD
ATOM     96  H95 UNL     1      19.646   8.799   0.077 +0.79 +0.00    +0.210 HD
ATOM     97  H96 UNL     1      22.292   7.741   3.871 +0.62 +0.00    +0.163 HD
ATOM     98  H97 UNL     1      23.664   8.015   0.789 +0.13 +0.00    +0.163 HD
ATOM     99  H98 UNL     1      27.418  10.334  -0.673+47.38 +0.00    +0.163 HD
ATOM    100  H99 UNL     1      30.890   8.152  -1.782 +0.06 +0.00    +0.163 HD
ATOM    101  HA0 UNL     1      19.345   6.040   3.696 +0.38 +0.00    +0.163 HD
ATOM    102  HA1 UNL     1      17.688   6.745   5.063 +2.29 +0.00    +0.163 HD
ATOM    103  HA2 UNL     1      14.934   5.535   4.524 +2.31 +0.00    +0.163 HD
ATOM    104  HA3 UNL     1      13.838   9.806   4.968 +0.27 +0.00    +0.163 HD
ATOM    105  HA4 UNL     1       9.978   8.234   6.212 +0.20 +0.00    +0.163 HD
ATOM    106  HA5 UNL     1       6.227   9.598  10.644 +0.45 +0.00    +0.312 HD
ATOM    107  HA6 UNL     1       4.975   9.221   9.691 +1.20 +0.00    +0.312 HD
ATOM    108  HA7 UNL     1       7.601   7.017   6.111 +4.12 +0.00    +0.163 HD
ATOM    109  HA8 UNL     1       6.002   0.230   3.388 +0.16 +0.00    +0.312 HD
ATOM    110  HA9 UNL     1       6.569   0.778   4.797 +2.83 +0.00    +0.312 HD
ATOM    111  HB0 UNL     1       8.272   4.256   6.179 +0.09 +0.00    +0.163 HD
ATOM    112  HB1 UNL     1       2.373   9.174   9.364 +0.13 +0.00    +0.312 HD
ATOM    113  HB2 UNL     1       2.420   8.136  10.613 +0.69 +0.00    +0.312 HD
ATOM    114  HB3 UNL     1       7.382   3.870   8.046 +0.09 +0.00    +0.163 HD
ATOM    115  HB4 UNL     1       2.531   1.505  10.627+99.99 +0.00    +0.312 HD
ATOM    116  HB5 UNL     1       2.440   0.719   9.205 -0.02 +0.00    +0.312 HD
ATOM    117  HB6 UNL     1       9.461   1.997   7.000 +0.81 +0.00    +0.313 HD
ATOM    118  HB7 UNL     1       9.840   1.863   8.564 +0.30 +0.00    +0.313 HD
ENDROOT
TORSDOF 55
TER
