USER    Run = 1
USER    DPF = ligand_266_receptor.dpf
USER  
USER    Estimated Free Energy of Binding    =  +11.19 kcal/mol  [=(1)+(2)+(3)-(4)]
USER    
USER    (1) Final Intermolecular Energy     =  +10.00 kcal/mol
USER        vdW + Hbond + desolv Energy     =  +10.00 kcal/mol
USER        Electrostatic Energy            =   +0.00 kcal/mol
USER    (2) Final Total Internal Energy     =   +0.00 kcal/mol
USER    (3) Torsional Free Energy           =   +1.19 kcal/mol
USER    (4) Unbound System's Energy  [=(2)] =   +0.00 kcal/mol
USER    
USER    
USER    NEWDPF move ligand_266.pdbqt
USER    NEWDPF about 0.000000 0.000000 0.000000
USER    NEWDPF tran0 17.724993 6.039529 0.447253
USER    NEWDPF quaternion0 -0.175427 0.982329 0.052866 0.038215
USER    NEWDPF axisangle0 -0.175555 0.983047 0.052904 175.619841
USER    NEWDPF quat0 -0.175555 0.983047 0.052904 175.619841
USER  keepresnum = 1 
USER  
REMARK  0 active torsions:
REMARK  status: ('A' for Active; 'I' for Inactive)
REMARK       I    between atoms: C2_2  and  C3_3 
REMARK       I    between atoms: C2_2  and  N4_53 
REMARK       I    between atoms: C3_3  and  C4_4 
REMARK       I    between atoms: C3_3  and  O14_48 
REMARK       I    between atoms: C4_4  and  C5_5 
REMARK       I    between atoms: C4_4  and  O13_47 
REMARK       I    between atoms: C5_5  and  C6_6 
REMARK       I    between atoms: C5_5  and  O2_36 
REMARK       I    between atoms: C6_6  and  O1_35 
REMARK       I    between atoms: C7_7  and  O2_36 
REMARK       I    between atoms: C7_7  and  O3_37 
REMARK       I    between atoms: C8_8  and  C9_9 
REMARK       I    between atoms: C8_8  and  O3_37 
REMARK       I    between atoms: C9_9  and  C10_10 
REMARK       I    between atoms: C10_10  and  C11_11 
REMARK       I    between atoms: C11_11  and  C12_12 
REMARK       I    between atoms: C12_12  and  N1_50 
REMARK       I    between atoms: C13_13  and  C14_14 
REMARK       I    between atoms: C13_13  and  N1_50 
REMARK       I    between atoms: C14_14  and  C15_15 
REMARK       I    between atoms: C15_15  and  C16_16 
REMARK       I    between atoms: C16_16  and  C17_17 
REMARK       I    between atoms: C17_17  and  C18_18 
REMARK       I    between atoms: C17_17  and  N2_51 
REMARK       I    between atoms: C20_20  and  C21_21 
REMARK       I    between atoms: C20_20  and  N2_51 
REMARK       I    between atoms: C21_21  and  C22_22 
REMARK       I    between atoms: C22_22  and  C23_23 
REMARK       I    between atoms: C23_23  and  C24_24 
REMARK       I    between atoms: C24_24  and  O7_41 
REMARK       I    between atoms: C25_25  and  O7_41 
REMARK       I    between atoms: C26_26  and  N3_52 
REMARK       I    between atoms: C27_27  and  O11_45 
REMARK       I    between atoms: C28_28  and  O10_44 
REMARK       I    between atoms: C29_29  and  C30_30 
REMARK       I    between atoms: C30_30  and  O9_43 
REMARK       I    between atoms: C31_31  and  N3_52 
REMARK       I    between atoms: C33_33  and  N4_53 
USER                              x       y       z     vdW  Elec       q    Type
USER                           _______ _______ _______ _____ _____    ______ ____
ROOT
ATOM      1  C1  UNL     1       7.493   1.599   0.573 -0.22 +0.00    +0.035 C 
ATOM      2  C2  UNL     1       8.314   1.931  -0.666 -0.12 +0.00    +0.111 C 
ATOM      3  C3  UNL     1       8.063   3.318  -1.337 -0.08 +0.00    +0.171 C 
ATOM      4  C4  UNL     1       6.661   3.959  -1.252 -0.05 +0.00    +0.180 C 
ATOM      5  C5  UNL     1       6.219   4.466   0.139 -0.11 +0.00    +0.178 C 
ATOM      6  C6  UNL     1       5.157   5.575  -0.002 -0.11 +0.00    +0.198 C 
ATOM      7  C7  UNL     1       7.119   5.191   2.236 -0.05 +0.00    +0.338 C 
ATOM      8  C8  UNL     1       9.347   5.913   2.657 -0.19 +0.00    +0.170 C 
ATOM      9  C9  UNL     1      10.457   5.154   1.936 +1.52 +0.00    +0.027 C 
ATOM     10  C10 UNL     1      11.624   6.038   1.497 -0.20 +0.00    +0.011 C 
ATOM     11  C11 UNL     1      12.413   6.624   2.668 -0.30 +0.00    +0.103 C 
ATOM     12  C12 UNL     1      13.636   7.393   2.205 +1.31 +0.00    +0.217 C 
ATOM     13  C13 UNL     1      15.587   8.667   3.031 -0.45 +0.00    +0.122 C 
ATOM     14  C14 UNL     1      16.777   7.757   2.726 -0.48 +0.00    +0.020 C 
ATOM     15  C15 UNL     1      18.114   8.502   2.654 -0.48 +0.00    +0.004 C 
ATOM     16  C16 UNL     1      18.178   9.520   1.508 -0.43 +0.00    +0.033 C 
ATOM     17  C17 UNL     1      19.540  10.222   1.357 -0.39 +0.00    +0.153 C 
ATOM     18  C18 UNL     1      19.914  11.014   2.628 +0.11 +0.00    +0.145 C 
ATOM     19  C19 UNL     1      21.369  11.139   2.999 +2.06 +0.00    +0.093 C 
ATOM     20  C20 UNL     1      21.572   9.648   0.045 -0.20 +0.00    +0.218 C 
ATOM     21  C21 UNL     1      22.527   8.512  -0.271 -0.32 +0.00    +0.103 C 
ATOM     22  C22 UNL     1      23.576   8.916  -1.305 +1.16 +0.00    +0.011 C 
ATOM     23  C23 UNL     1      24.482   7.761  -1.733 +0.36 +0.00    +0.027 C 
ATOM     24  C24 UNL     1      25.392   7.253  -0.620 -0.32 +0.00    +0.171 C 
ATOM     25  C25 UNL     1      27.116   5.681  -0.183 -0.20 +0.00    +0.285 C 
ATOM     26  C26 UNL     1      27.814   4.449  -0.819 -0.23 +0.00    +0.170 C 
ATOM     27  C27 UNL     1      28.815   3.875   0.196 -0.25 +0.00    +0.177 C 
ATOM     28  C28 UNL     1      29.778   4.962   0.693 -0.17 +0.00    +0.180 C 
ATOM     29  C29 UNL     1      28.984   6.174   1.206 +0.20 +0.00    +0.179 C 
ATOM     30  C30 UNL     1      29.917   7.327   1.587 -0.31 +0.00    +0.198 C 
ATOM     31  C31 UNL     1      29.010   3.909  -2.942 -0.11 +0.00    +0.214 C 
ATOM     32  C32 UNL     1      29.366   4.450  -4.301 -0.10 +0.00    +0.117 C 
ATOM     33  C33 UNL     1      10.736   1.677  -1.246 -0.21 +0.00    +0.214 C 
ATOM     34  C34 UNL     1      12.125   1.621  -0.674 +1.52 +0.00    +0.117 C 
ATOM     35  O1  UNL     1       5.730   6.773  -0.527 +0.15 -0.00    -0.398 OA
ATOM     36  O2  UNL     1       7.361   4.965   0.852 -0.03 -0.00    -0.357 OA
ATOM     37  O3  UNL     1       8.308   4.996   2.994 -0.05 -0.00    -0.367 OA
ATOM     38  O4  UNL     1      13.935   7.550   1.027 +2.33 -0.00    -0.274 OA
ATOM     39  O5  UNL     1      19.055  11.602   3.292 +1.68 -0.00    -0.296 OA
ATOM     40  O6  UNL     1      21.686  10.783  -0.402 -0.18 -0.00    -0.274 OA
ATOM     41  O7  UNL     1      26.232   6.237  -1.168 -0.19 -0.00    -0.359 OA
ATOM     42  O8  UNL     1      28.086   6.667   0.193 -0.12 -0.00    -0.349 OA
ATOM     43  O9  UNL     1      29.140   8.450   2.011 +0.13 -0.00    -0.398 OA
ATOM     44  O10 UNL     1      30.591   4.415   1.739 -0.13 -0.00    -0.390 OA
ATOM     45  O11 UNL     1      28.097   3.338   1.324 +1.03 -0.00    -0.391 OA
ATOM     46  O12 UNL     1      29.230   2.745  -2.625 -0.10 -0.00    -0.274 OA
ATOM     47  O13 UNL     1       5.685   3.043  -1.772 -0.04 -0.00    -0.390 OA
ATOM     48  O14 UNL     1       8.305   3.164  -2.762 -0.15 -0.00    -0.391 OA
ATOM     49  O15 UNL     1      10.518   1.663  -2.455 -0.45 -0.00    -0.274 OA
ATOM     50  N1  UNL     1      14.375   7.903   3.251 -0.22 -0.00    -0.361 N 
ATOM     51  N2  UNL     1      20.568   9.280   0.915 +1.20 -0.00    -0.350 N 
ATOM     52  N3  UNL     1      28.435   4.829  -2.102 -0.06 -0.00    -0.349 N 
ATOM     53  N4  UNL     1       9.739   1.787  -0.308 -0.06 -0.00    -0.355 N 
ATOM     54  H53 UNL     1       6.645   6.824  -0.192 -0.06 +0.00    +0.209 HD
ATOM     55  H54 UNL     1      28.471   8.578   1.311 +0.12 +0.00    +0.209 HD
ATOM     56  H55 UNL     1      31.206   3.782   1.324 +0.09 +0.00    +0.210 HD
ATOM     57  H56 UNL     1      28.773   3.162   2.010 -0.01 +0.00    +0.210 HD
ATOM     58  H57 UNL     1       6.035   2.795  -2.654 +0.05 +0.00    +0.210 HD
ATOM     59  H58 UNL     1       9.155   2.678  -2.860 +0.08 +0.00    +0.210 HD
ATOM     60  H59 UNL     1      14.106   7.688   4.202 +0.10 +0.00    +0.162 HD
ATOM     61  H60 UNL     1      20.611   8.365   1.346 +2.96 +0.00    +0.163 HD
ATOM     62  H61 UNL     1      28.015   5.650  -2.531 +0.06 +0.00    +0.163 HD
ATOM     63  H62 UNL     1      10.007   2.038   0.636 -0.29 +0.00    +0.162 HD
ENDROOT
TORSDOF 34
TER
