USER    Run = 1
USER    DPF = ligand_223_receptor.dpf
USER  
USER    Estimated Free Energy of Binding    =  +3.03e+007 kcal/mol  [=(1)+(2)+(3)-(4)]
USER    
USER    (1) Final Intermolecular Energy     =  +3.03e+007 kcal/mol
USER        vdW + Hbond + desolv Energy     =  +1.54e+007 kcal/mol
USER        Electrostatic Energy            =  +1.50e+007 kcal/mol
USER    (2) Final Total Internal Energy     =   +0.00 kcal/mol
USER    (3) Torsional Free Energy           =   +1.19 kcal/mol
USER    (4) Unbound System's Energy  [=(2)] =   +0.00 kcal/mol
USER    
USER    
USER    NEWDPF move ligand_223.pdbqt
USER    NEWDPF about 0.000000 0.000000 0.000000
USER    NEWDPF tran0 20.720739 6.087703 2.908240
USER    NEWDPF quaternion0 -0.809761 0.112097 0.078154 -0.570626
USER    NEWDPF axisangle0 -0.986058 0.136502 0.095169 -110.412212
USER    NEWDPF quat0 -0.986058 0.136502 0.095169 -110.412212
USER  keepresnum = 1 
USER  
REMARK  0 active torsions:
REMARK  status: ('A' for Active; 'I' for Inactive)
REMARK       I    between atoms: C1_1  and  C14_14 
REMARK       I    between atoms: C7_7  and  O2_83 
REMARK       I    between atoms: C15_15  and  C16_16 
REMARK       I    between atoms: C16_16  and  O5_86 
REMARK       I    between atoms: C18_18  and  N1_98 
REMARK       I    between atoms: C19_19  and  N1_98 
REMARK       I    between atoms: C19_19  and  N2_99 
REMARK       I    between atoms: C20_20  and  C21_21 
REMARK       I    between atoms: C20_20  and  N2_99 
REMARK       I    between atoms: C21_21  and  C22_22 
REMARK       I    between atoms: C22_22  and  N3_100 
REMARK       I    between atoms: C23_23  and  N3_100 
REMARK       I    between atoms: C24_24  and  C27_27 
REMARK       I    between atoms: C27_27  and  N6_104 
REMARK       I    between atoms: C28_28  and  N6_104 
REMARK       I    between atoms: C29_29  and  C32_32 
REMARK       I    between atoms: C32_32  and  N9_108 
REMARK       I    between atoms: C33_33  and  N9_108 
REMARK       I    between atoms: C35_35  and  C38_38 
REMARK       I    between atoms: C38_38  and  N11_110 
REMARK       I    between atoms: C39_39  and  N11_110 
REMARK       I    between atoms: C41_41  and  C44_44 
REMARK       I    between atoms: C44_44  and  N13_112 
REMARK       I    between atoms: C45_45  and  C46_46 
REMARK       I    between atoms: C45_45  and  N13_112 
REMARK       I    between atoms: C46_46  and  C47_47 
REMARK       I    between atoms: C47_47  and  C48_48 
REMARK       I    between atoms: C48_48  and  N14_113 
REMARK       I    between atoms: C49_49  and  N14_113 
REMARK       I    between atoms: C50_50  and  C53_53 
REMARK       I    between atoms: C53_53  and  N17_117 
REMARK       I    between atoms: C54_54  and  N17_117 
REMARK       I    between atoms: C56_56  and  C59_59 
REMARK       I    between atoms: C59_59  and  N19_119 
REMARK       I    between atoms: C60_60  and  N19_119 
REMARK       I    between atoms: C62_62  and  C65_65 
REMARK       I    between atoms: C65_65  and  N21_121 
REMARK       I    between atoms: C66_66  and  N21_121 
REMARK       I    between atoms: C68_68  and  C71_71 
REMARK       I    between atoms: C71_71  and  N23_123 
REMARK       I    between atoms: C72_72  and  C73_73 
REMARK       I    between atoms: C72_72  and  N23_123 
REMARK       I    between atoms: C73_73  and  C74_74 
REMARK       I    between atoms: C74_74  and  N24_124 
REMARK       I    between atoms: C75_75  and  C76_76 
REMARK       I    between atoms: C75_75  and  N24_124 
REMARK       I    between atoms: C76_76  and  C77_77 
REMARK       I    between atoms: C77_77  and  N25_125 
USER                              x       y       z     vdW  Elec       q    Type
USER                           _______ _______ _______ _____ _____    ______ ____
ROOT
ATOM      1  C1  UNL     1       2.377  11.838   5.835 -0.25 +0.00    +0.001 A 
ATOM      2  C2  UNL     1       2.739  11.995   4.532 +1.44 +0.00    +0.010 A 
ATOM      3  C3  UNL     1       3.872  12.863   4.169+99.99 +0.00    +0.091 A 
ATOM      4  C4  UNL     1       4.212  13.404   6.460+34.12 +0.00    +0.087 A 
ATOM      5  C5  UNL     1       3.152  12.589   6.860 -0.23 +0.00    +0.013 A 
ATOM      6  C6  UNL     1       2.856  12.512   8.232 -0.13 +0.00    +0.051 A 
ATOM      7  C7  UNL     1       3.609  13.238   9.155+37.50 +0.00    +0.066 A 
ATOM      8  C8  UNL     1       4.664  14.040   8.745+23.85 +0.00    +0.039 A 
ATOM      9  C9  UNL     1       4.967  14.125   7.389+99.99 +0.00    +0.041 A 
ATOM     10  C10 UNL     1       4.258  13.009   2.894+99.99 +0.00    +0.092 A 
ATOM     11  C11 UNL     1       3.560  12.308   1.800+18.24 +0.00    +0.174 A 
ATOM     12  C12 UNL     1       2.398  11.468   2.155 +0.25 +0.00    +0.056 A 
ATOM     13  C13 UNL     1       2.020  11.330   3.434+99.99+99.99    +0.019 A 
ATOM     14  C14 UNL     1       1.252  10.932   6.202+99.99+99.99    -0.007 A 
ATOM     15  C15 UNL     1      -0.044  11.380   6.503+99.99+99.99    +0.051 A 
ATOM     16  C16 UNL     1      -0.439  12.801   6.464+99.99+99.99    +0.177 C 
ATOM     17  C17 UNL     1      -1.031  10.470   6.920+99.99+99.99    +0.048 A 
ATOM     18  C18 UNL     1      -0.748   9.105   7.033+99.99+99.99    +0.035 A 
ATOM     19  C19 UNL     1      -1.829   6.955   7.835+99.99+99.99    +0.172 C 
ATOM     20  C20 UNL     1      -0.480   5.078   8.834+99.99+99.99    +0.131 C 
ATOM     21  C21 UNL     1       0.991   4.690   8.868+99.99+99.99    +0.123 C 
ATOM     22  C22 UNL     1       1.192   3.312   9.467+99.99+99.99    +0.224 C 
ATOM     23  C23 UNL     1       3.005   1.715   9.829+99.99 +0.00    +0.125 A 
ATOM     24  C24 UNL     1       4.533   0.248  10.184+99.99 +0.00    +0.178 A 
ATOM     25  C25 UNL     1       2.375   0.679  10.470+34.98 +0.00    +0.140 A 
ATOM     26  C26 UNL     1       3.169  -1.522  11.346+99.99+99.99    +0.157 C 
ATOM     27  C27 UNL     1       5.836  -0.408  10.201+99.99 +0.00    +0.291 C 
ATOM     28  C28 UNL     1       8.119   0.049   9.444 +7.60 +0.00    +0.125 A 
ATOM     29  C29 UNL     1      10.147   0.367   8.809+34.76 +0.00    +0.178 A 
ATOM     30  C30 UNL     1       8.806  -1.070   9.836+99.99+99.99    +0.140 A 
ATOM     31  C31 UNL     1      11.197  -1.770   9.625+99.99+99.99    +0.157 C 
ATOM     32  C32 UNL     1      11.322   0.998   8.218+77.77 +0.00    +0.290 C 
ATOM     33  C33 UNL     1      11.901   3.089   7.063 +2.97 +0.00    +0.053 A 
ATOM     34  C34 UNL     1      13.288   2.959   6.830+18.58 +0.00    +0.066 A 
ATOM     35  C35 UNL     1      13.726   4.080   6.137 +0.71 +0.00    +0.105 A 
ATOM     36  C36 UNL     1      11.520   4.305   6.542 -0.37 +0.00    +0.120 A 
ATOM     37  C37 UNL     1      12.646   6.264   5.495 -0.35 +0.00    +0.156 C 
ATOM     38  C38 UNL     1      15.076   4.350   5.682+99.99 +0.00    +0.273 C 
ATOM     39  C39 UNL     1      16.271   5.026   3.651+99.99 +0.00    +0.053 A 
ATOM     40  C40 UNL     1      17.597   5.203   4.112+99.99 +0.00    +0.066 A 
ATOM     41  C41 UNL     1      18.409   5.547   3.035+19.99 +0.00    +0.104 A 
ATOM     42  C42 UNL     1      16.285   5.277   2.301+99.99 +0.00    +0.120 A 
ATOM     43  C43 UNL     1      17.968   5.905   0.577+99.99 +0.00    +0.156 C 
ATOM     44  C44 UNL     1      19.836   5.823   3.000+99.99 +0.00    +0.268 C 
ATOM     45  C45 UNL     1      21.945   5.748   4.324+99.99 +0.00    +0.123 C 
ATOM     46  C46 UNL     1      22.774   4.499   4.024+99.99 +0.00    +0.029 C 
ATOM     47  C47 UNL     1      22.831   4.096   2.551 +6.37 +0.00    +0.105 C 
ATOM     48  C48 UNL     1      23.707   5.035   1.739 +1.52 +0.00    +0.223 C 
ATOM     49  C49 UNL     1      23.549   7.049   0.386 -0.37 +0.00    +0.125 A 
ATOM     50  C50 UNL     1      25.006   8.209  -0.683 +0.52 +0.00    +0.178 A 
ATOM     51  C51 UNL     1      22.854   8.100  -0.162 -0.32 +0.00    +0.140 A 
ATOM     52  C52 UNL     1      23.544  10.044  -1.582 +6.67 +0.00    +0.157 C 
ATOM     53  C53 UNL     1      26.295   8.622  -1.221+56.46 +0.00    +0.290 C 
ATOM     54  C54 UNL     1      28.628   7.819  -1.151 -0.15 +0.00    +0.053 A 
ATOM     55  C55 UNL     1      29.613   6.896  -0.723 -0.16 +0.00    +0.066 A 
ATOM     56  C56 UNL     1      30.850   7.279  -1.239 -0.09 +0.00    +0.105 A 
ATOM     57  C57 UNL     1      29.272   8.756  -1.915 +4.15 +0.00    +0.120 A 
ATOM     58  C58 UNL     1      31.591   9.214  -2.684 -0.18 +0.00    +0.156 C 
ATOM     59  C59 UNL     1      32.167   6.663  -1.086 -0.01 +0.00    +0.273 C 
ATOM     60  C60 UNL     1      33.249   4.625  -0.239+99.99+99.99    +0.053 A 
ATOM     61  C61 UNL     1      34.625   4.883  -0.435+99.99+99.99    +0.066 A 
ATOM     62  C62 UNL     1      35.361   3.781  -0.011+99.99+99.99    +0.105 A 
ATOM     63  C63 UNL     1      33.158   3.371   0.313+99.99+99.99    +0.120 A 
ATOM     64  C64 UNL     1      34.718   1.559   1.002+99.99+99.99    +0.156 C 
ATOM     65  C65 UNL     1      36.809   3.559  -0.008+99.99+99.99    +0.273 C 
ATOM     66  C66 UNL     1      38.903   4.561  -0.842+99.99+99.99    +0.053 A 
ATOM     67  C67 UNL     1      39.611   5.548  -1.568+99.99+99.99    +0.066 A 
ATOM     68  C68 UNL     1      40.971   5.286  -1.472+99.99+99.99    +0.104 A 
ATOM     69  C69 UNL     1      39.843   3.692  -0.345+99.99+99.99    +0.120 A 
ATOM     70  C70 UNL     1      42.293   3.341  -0.546+99.99+99.99    +0.156 C 
ATOM     71  C71 UNL     1      42.037   6.074  -2.056+99.99+99.99    +0.268 C 
ATOM     72  C72 UNL     1      44.241   7.098  -1.617+99.99+99.99    +0.132 C 
ATOM     73  C73 UNL     1      45.050   6.613  -2.814+99.99+99.99    +0.122 C 
ATOM     74  C74 UNL     1      46.222   7.530  -3.085+99.99+99.99    +0.219 C 
ATOM     75  C75 UNL     1      47.943   8.082  -4.751+99.99+99.99    +0.124 C 
ATOM     76  C76 UNL     1      48.807   7.388  -5.803+99.99+99.99    +0.050 C 
ATOM     77  C77 UNL     1      49.631   6.242  -5.196+99.99+99.99    +0.273 C 
ATOM     78  C78 UNL     1      51.598   6.364  -6.641+99.99+99.99    +0.309 C 
ATOM     79  C79 UNL     1      49.820   4.835  -7.186+99.99+99.99    +0.309 C 
ATOM     80  C80 UNL     1       0.529   8.654   6.695+99.99+99.99    +0.030 A 
ATOM     81  C81 UNL     1       1.523   9.558   6.299+99.99+99.99    +0.015 A 
ATOM     82  O1  UNL     1       4.576  13.547   5.148+99.99 -0.00    -0.309 OA
ATOM     83  O2  UNL     1       3.337  13.186  10.490+99.99 -0.00    -0.361 OA
ATOM     84  O3  UNL     1       3.928  12.419   0.636+99.99 -0.00    -0.288 OA
ATOM     85  O4  UNL     1      -1.084  13.368   7.325+99.99+99.99    -0.646 OA
ATOM     86  O5  UNL     1      -0.084  13.398   5.318+99.99+99.99    -0.773 OA
ATOM     87  O6  UNL     1       0.275   2.681   9.980+99.99+99.99    -0.273 OA
ATOM     88  O7  UNL     1       6.021  -1.514  10.698+99.99+99.99    -0.264 OA
ATOM     89  O8  UNL     1      12.429   0.468   8.205+99.99 -0.00    -0.264 OA
ATOM     90  O9  UNL     1      16.046   4.256   6.426+99.99 -0.00    -0.266 OA
ATOM     91  O10 UNL     1      20.417   6.263   2.009+99.99 -0.00    -0.266 OA
ATOM     92  O11 UNL     1      24.919   4.846   1.683 -0.32 -0.00    -0.273 OA
ATOM     93  O12 UNL     1      26.438   9.619  -1.922+99.99 -0.00    -0.264 OA
ATOM     94  O13 UNL     1      33.195   7.222  -1.460+99.99+99.99    -0.266 OA
ATOM     95  O14 UNL     1      37.311   2.590   0.554+99.99+99.99    -0.266 OA
ATOM     96  O15 UNL     1      41.936   6.638  -3.140+99.99+99.99    -0.266 OA
ATOM     97  O16 UNL     1      46.579   8.417  -2.320+99.99+99.99    -0.274 OA
ATOM     98  N1  UNL     1      -1.803   8.262   7.433+99.99+99.99    -0.333 N 
ATOM     99  N2  UNL     1      -0.651   6.424   8.281+99.99+99.99    -0.367 N 
ATOM    100  N3  UNL     1       2.507   2.905   9.372+22.66 -0.00    -0.312 N 
ATOM    101  N4  UNL     1       4.333   1.451   9.654+99.99 -0.00    -0.323 N 
ATOM    102  H4  UNL     1       5.027   2.051   9.208+99.99 +0.00    +0.169 HD
ATOM    103  N5  UNL     1       3.354  -0.248  10.693 +0.74 -0.00    -0.339 N 
ATOM    104  N6  UNL     1       6.800   0.367   9.596+99.99 -0.00    -0.305 N 
ATOM    105  N7  UNL     1       8.945   0.934   8.810 +3.91 -0.00    -0.323 N 
ATOM    106  H7  UNL     1       8.692   1.842   8.419 +0.11 +0.00    +0.169 HD
ATOM    107  N8  UNL     1      10.094  -0.859   9.430 +5.95 -0.00    -0.339 N 
ATOM    108  N9  UNL     1      11.018   2.234   7.683 +1.55 -0.00    -0.319 N 
ATOM    109  N10 UNL     1      12.633   4.913   6.016 -0.21 -0.00    -0.354 N 
ATOM    110  N11 UNL     1      15.127   4.680   4.341+99.99 -0.00    -0.320 N 
ATOM    111  N12 UNL     1      17.571   5.591   1.935 +6.95 -0.00    -0.354 N 
ATOM    112  N13 UNL     1      20.522   5.528   4.156 +9.23 -0.00    -0.356 N 
ATOM    113  N14 UNL     1      22.995   6.060   1.156 +0.30 -0.00    -0.312 N 
ATOM    114  N15 UNL     1      24.868   7.122   0.061 -0.17 -0.00    -0.323 N 
ATOM    115  H15 UNL     1      25.603   6.470   0.334 +0.13 +0.00    +0.169 HD
ATOM    116  N16 UNL     1      23.791   8.832  -0.840 -0.11 -0.00    -0.339 N 
ATOM    117  N17 UNL     1      27.291   7.748  -0.832 -0.10 -0.00    -0.319 N 
ATOM    118  N18 UNL     1      30.606   8.437  -1.961 -0.10 -0.00    -0.354 N 
ATOM    119  N19 UNL     1      32.142   5.407  -0.505 +0.01 -0.00    -0.320 N 
ATOM    120  N20 UNL     1      34.428   2.868   0.454+99.99+99.99    -0.354 N 
ATOM    121  N21 UNL     1      37.529   4.521  -0.696+99.99+99.99    -0.320 N 
ATOM    122  N22 UNL     1      41.083   4.107  -0.761+99.99+99.99    -0.354 N 
ATOM    123  N23 UNL     1      43.161   6.191  -1.264+99.99+99.99    -0.355 N 
ATOM    124  N24 UNL     1      46.872   7.234  -4.268+99.99+99.99    -0.361 N 
ATOM    125  N25 UNL     1      50.529   5.523  -6.111+99.99+99.99    +0.080 N 
ATOM    126  S1  UNL     1      -3.302   6.168   7.788+99.99+99.99    -0.041 SA
ATOM    127  H73 UNL     1       2.514  12.691  10.629 +0.14 +0.00    +0.217 HD
ATOM    128  H74 UNL     1      -0.413  14.318   5.402+99.99+99.99    +0.167 HD
ATOM    129  H75 UNL     1      -2.738   8.650   7.343+99.99+99.99    +0.168 HD
ATOM    130  H76 UNL     1      -0.055   7.128   8.698+99.99+99.99    +0.161 HD
ATOM    131  H77 UNL     1       3.199   3.492   8.929 -0.15 +0.00    +0.170 HD
ATOM    132  H78 UNL     1       6.508   1.263   9.226+26.98 +0.00    +0.170 HD
ATOM    133  H79 UNL     1      10.047   2.521   7.769 +0.11 +0.00    +0.169 HD
ATOM    134  H80 UNL     1      14.283   4.578   3.797+71.08 +0.00    +0.169 HD
ATOM    135  H81 UNL     1      20.024   5.098   4.922 +1.16 +0.00    +0.162 HD
ATOM    136  H82 UNL     1      21.994   6.140   1.336 +5.65 +0.00    +0.170 HD
ATOM    137  H83 UNL     1      26.975   6.976  -0.246 +0.11 +0.00    +0.169 HD
ATOM    138  H84 UNL     1      31.249   4.997  -0.276 +0.06 +0.00    +0.169 HD
ATOM    139  H85 UNL     1      37.021   5.258  -1.160+99.99+99.99    +0.169 HD
ATOM    140  H86 UNL     1      43.026   6.005  -0.279+99.99+99.99    +0.162 HD
ATOM    141  H87 UNL     1      46.356   6.693  -4.952+99.99+99.99    +0.162 HD
ENDROOT
TORSDOF 37
TER
