USER    Run = 1
USER    DPF = ligand_209_receptor.dpf
USER  
USER    Estimated Free Energy of Binding    =  +2.83e+003 kcal/mol  [=(1)+(2)+(3)-(4)]
USER    
USER    (1) Final Intermolecular Energy     =  +2.83e+003 kcal/mol
USER        vdW + Hbond + desolv Energy     =  +2.83e+003 kcal/mol
USER        Electrostatic Energy            =   +0.00 kcal/mol
USER    (2) Final Total Internal Energy     =   -2.79 kcal/mol
USER    (3) Torsional Free Energy           =   +1.19 kcal/mol
USER    (4) Unbound System's Energy  [=(2)] =   -2.79 kcal/mol
USER    
USER    
USER    NEWDPF move ligand_209.pdbqt
USER    NEWDPF about 0.000000 0.000000 0.000000
USER    NEWDPF tran0 16.838531 12.748688 8.699369
USER    NEWDPF quaternion0 0.099365 0.839202 0.534000 0.026656
USER    NEWDPF axisangle0 0.099400 0.839500 0.534190 176.945111
USER    NEWDPF quat0 0.099400 0.839500 0.534190 176.945111
USER    NEWDPF dihe0 180.00 146.98 -170.99 -180.00 34.72 124.98 -31.92 30.94 57.74 131.37 103.01 162.99 164.74 -134.54 77.64 -177.49 -72.07 -44.52 167.30 28.30 
USER  keepresnum = 1 
USER  
REMARK  20 active torsions:
REMARK  status: ('A' for Active; 'I' for Inactive)
REMARK    1  A    between atoms: C3_3  and  C4_4 
REMARK    2  A    between atoms: C3_3  and  N1_48 
REMARK    3  A    between atoms: C4_4  and  C5_5 
REMARK    4  A    between atoms: C5_5  and  N2_49 
REMARK    5  A    between atoms: C6_6  and  C7_7 
REMARK       I    between atoms: C6_6  and  N2_49 
REMARK    6  A    between atoms: C9_9  and  N3_50 
REMARK    7  A    between atoms: C10_10  and  C11_11 
REMARK       I    between atoms: C10_10  and  N3_50 
REMARK    8  A    between atoms: C13_13  and  N4_51 
REMARK    9  A    between atoms: C14_14  and  C15_15 
REMARK       I    between atoms: C14_14  and  N4_51 
REMARK   10  A    between atoms: C17_17  and  N5_52 
REMARK   11  A    between atoms: C18_18  and  C19_19 
REMARK       I    between atoms: C18_18  and  N5_52 
REMARK   12  A    between atoms: C21_21  and  N6_53 
REMARK   13  A    between atoms: C22_22  and  C23_23 
REMARK       I    between atoms: C22_22  and  N6_53 
REMARK   14  A    between atoms: C25_25  and  N7_54 
REMARK   15  A    between atoms: C26_26  and  C27_27 
REMARK       I    between atoms: C26_26  and  N7_54 
REMARK   16  A    between atoms: C29_29  and  N8_55 
REMARK   17  A    between atoms: C30_30  and  C31_31 
REMARK       I    between atoms: C30_30  and  N8_55 
REMARK   18  A    between atoms: C31_31  and  C32_32 
REMARK   19  A    between atoms: C32_32  and  C33_33 
REMARK   20  A    between atoms: C33_33  and  N9_56 
USER                              x       y       z     vdW  Elec       q    Type
USER                           _______ _______ _______ _____ _____    ______ ____
ROOT
ATOM      1  C18 UNL     1      15.674  10.021   6.232+99.99 +0.00    +0.273 C 
ATOM      2  N5  UNL     1      16.167  10.983   7.095+10.09 -0.00    -0.320 N 
ATOM      3  O4  UNL     1      16.377   9.341   5.489+13.75 -0.00    -0.266 OA
ATOM      4  H58 UNL     1      15.512  11.536   7.629 +0.08 +0.00    +0.169 HD
ENDROOT
BRANCH   1   5
ATOM      5  C19 UNL     1      14.218   9.884   6.257+12.45 +0.00    +0.105 A 
ATOM      6  C20 UNL     1      13.350   9.401   5.282+10.26 +0.00    +0.066 A 
ATOM      7  C21 UNL     1      12.025   9.462   5.773+99.99 +0.00    +0.053 A 
ATOM      8  C40 UNL     1      12.095   9.998   7.036+26.77 +0.00    +0.120 A 
ATOM      9  N12 UNL     1      13.413  10.252   7.323 +0.39 -0.00    -0.354 N 
ATOM     10  C41 UNL     1      13.870  10.813   8.579 +1.72 +0.00    +0.156 C 
BRANCH   7  11
ATOM     11  N6  UNL     1      10.836   9.097   5.176 +1.73 -0.00    -0.320 N 
ATOM     12  C22 UNL     1      10.264   9.726   4.088 +3.84 +0.00    +0.273 C 
ATOM     13  O5  UNL     1      10.776  10.643   3.453+11.11 -0.00    -0.266 OA
ATOM     14  H59 UNL     1      10.404   8.249   5.514 +0.10 +0.00    +0.169 HD
BRANCH  12  15
ATOM     15  C23 UNL     1       8.985   9.154   3.711 +2.75 +0.00    +0.105 A 
ATOM     16  C24 UNL     1       8.731   7.825   3.399 -0.19 +0.00    +0.066 A 
ATOM     17  C25 UNL     1       7.352   7.681   3.112 +0.93 +0.00    +0.053 A 
ATOM     18  C38 UNL     1       6.798   8.934   3.216+34.63 +0.00    +0.120 A 
ATOM     19  N11 UNL     1       7.792   9.825   3.533+10.50 -0.00    -0.354 N 
ATOM     20  C39 UNL     1       7.598  11.260   3.574+99.99 +0.00    +0.156 C 
BRANCH  17  21
ATOM     21  N7  UNL     1       6.732   6.488   2.788 -0.11 -0.00    -0.320 N 
ATOM     22  C26 UNL     1       7.364   5.314   2.417 -0.08 +0.00    +0.273 C 
ATOM     23  O6  UNL     1       8.583   5.181   2.335 -0.09 -0.00    -0.266 OA
ATOM     24  H60 UNL     1       5.726   6.492   2.856 +0.07 +0.00    +0.169 HD
BRANCH  22  25
ATOM     25  C27 UNL     1       6.449   4.209   2.128 -0.08 +0.00    +0.105 A 
ATOM     26  C28 UNL     1       6.150   3.584   0.921 -0.08 +0.00    +0.066 A 
ATOM     27  C29 UNL     1       5.200   2.562   1.150 -0.10 +0.00    +0.052 A 
ATOM     28  C36 UNL     1       4.932   2.565   2.496 -0.11 +0.00    +0.120 A 
ATOM     29  N10 UNL     1       5.687   3.552   3.083 -0.02 -0.00    -0.354 N 
ATOM     30  C37 UNL     1       5.661   3.848   4.500 -0.20 +0.00    +0.156 C 
BRANCH  27  31
ATOM     31  N8  UNL     1       4.604   1.685   0.266 -0.06 -0.00    -0.326 N 
ATOM     32  C30 UNL     1       5.286   0.799  -0.550 -0.02 +0.00    +0.222 C 
ATOM     33  O7  UNL     1       6.504   0.651  -0.597 -0.14 -0.00    -0.273 OA
ATOM     34  H61 UNL     1       3.594   1.697   0.237 +0.04 +0.00    +0.169 HD
BRANCH  32  35
ATOM     35  C31 UNL     1       4.354  -0.012  -1.434 +1.67 +0.00    +0.105 C 
BRANCH  35  36
ATOM     36  C32 UNL     1       3.194   0.823  -1.977 -0.11 +0.00    +0.039 C 
BRANCH  36  37
ATOM     37  C33 UNL     1       3.373   1.240  -3.446 -0.01 +0.00    +0.271 C 
BRANCH  37  38
ATOM     38  N9  UNL     1       3.608   2.682  -3.613 -0.06 +0.00    +0.080 N 
ATOM     39  C34 UNL     1       3.992   3.282  -2.333 -0.06 +0.00    +0.309 C 
ATOM     40  C35 UNL     1       2.438   3.374  -4.154 -0.02 +0.00    +0.309 C 
ENDBRANCH  37  38
ENDBRANCH  36  37
ENDBRANCH  35  36
ENDBRANCH  32  35
ENDBRANCH  27  31
ENDBRANCH  22  25
ENDBRANCH  17  21
ENDBRANCH  12  15
ENDBRANCH   7  11
ENDBRANCH   1   5
BRANCH   2  41
ATOM     41  C17 UNL     1      17.502  11.293   7.271+15.76 +0.00    +0.053 A 
ATOM     42  C16 UNL     1      18.600  11.157   6.391+99.99 +0.00    +0.066 A 
ATOM     43  C15 UNL     1      19.753  11.612   7.028+99.99 +0.00    +0.105 A 
ATOM     44  N13 UNL     1      19.346  12.006   8.293 +0.87 -0.00    -0.354 N 
ATOM     45  C42 UNL     1      17.994  11.819   8.440+99.99 +0.00    +0.120 A 
ATOM     46  C43 UNL     1      20.199  12.551   9.330 -0.38 +0.00    +0.156 C 
BRANCH  43  47
ATOM     47  C14 UNL     1      21.132  11.680   6.543+99.99 +0.00    +0.273 C 
ATOM     48  N4  UNL     1      21.498  10.626   5.726+99.99 -0.00    -0.320 N 
ATOM     49  H57 UNL     1      20.809   9.926   5.500+66.84 +0.00    +0.169 HD
ATOM     50  O3  UNL     1      21.879  12.609   6.839+84.27 -0.00    -0.266 OA
BRANCH  48  51
ATOM     51  C13 UNL     1      22.743  10.455   5.151 +0.53 +0.00    +0.053 A 
ATOM     52  C12 UNL     1      23.211   9.474   4.247 -0.45 +0.00    +0.066 A 
ATOM     53  C11 UNL     1      24.550   9.723   3.957 -0.12 +0.00    +0.105 A 
ATOM     54  N14 UNL     1      24.879  10.862   4.675+17.00 -0.00    -0.354 N 
ATOM     55  C44 UNL     1      23.796  11.301   5.397+37.69 +0.00    +0.120 A 
ATOM     56  C45 UNL     1      26.175  11.512   4.693+99.99 +0.00    +0.156 C 
BRANCH  53  57
ATOM     57  C10 UNL     1      25.477   8.999   3.084 -0.45 +0.00    +0.273 C 
ATOM     58  N3  UNL     1      26.781   8.969   3.547 +0.31 -0.00    -0.320 N 
ATOM     59  H56 UNL     1      26.997   9.460   4.402 -0.18 +0.00    +0.169 HD
ATOM     60  O2  UNL     1      25.103   8.483   2.035 -0.29 -0.00    -0.266 OA
BRANCH  58  61
ATOM     61  C9  UNL     1      27.852   8.350   2.931 +0.71 +0.00    +0.053 A 
ATOM     62  C8  UNL     1      27.746   7.355   1.930 -0.02 +0.00    +0.066 A 
ATOM     63  C7  UNL     1      29.023   6.991   1.524 -0.19 +0.00    +0.104 A 
ATOM     64  N15 UNL     1      29.895   7.697   2.328 -0.25 -0.00    -0.354 N 
ATOM     65  C46 UNL     1      29.194   8.549   3.145 +2.60 +0.00    +0.120 A 
ATOM     66  C47 UNL     1      31.331   7.526   2.400 +0.11 +0.00    +0.156 C 
BRANCH  63  67
ATOM     67  C6  UNL     1      29.351   6.021   0.501 -0.14 +0.00    +0.268 C 
ATOM     68  N2  UNL     1      29.484   4.729   0.967 -0.06 -0.00    -0.356 N 
ATOM     69  H55 UNL     1      29.565   4.605   1.967 +0.02 +0.00    +0.162 HD
ATOM     70  O1  UNL     1      29.556   6.323  -0.670 -0.08 -0.00    -0.266 OA
BRANCH  68  71
ATOM     71  C5  UNL     1      29.939   3.657   0.105 -0.21 +0.00    +0.125 C 
BRANCH  71  72
ATOM     72  C4  UNL     1      31.353   3.175   0.435 -0.20 +0.00    +0.050 C 
BRANCH  72  73
ATOM     73  C3  UNL     1      31.922   2.269  -0.669 -0.10 +0.00    +0.273 C 
BRANCH  73  74
ATOM     74  N1  UNL     1      31.049   1.995  -1.818 -0.14 +0.00    +0.080 N 
ATOM     75  C1  UNL     1      31.105   3.035  -2.841 -0.00 +0.00    +0.309 C 
ATOM     76  C2  UNL     1      31.282   0.675  -2.400 -0.10 +0.00    +0.309 C 
ENDBRANCH  73  74
ENDBRANCH  72  73
ENDBRANCH  71  72
ENDBRANCH  68  71
ENDBRANCH  63  67
ENDBRANCH  58  61
ENDBRANCH  53  57
ENDBRANCH  48  51
ENDBRANCH  43  47
ENDBRANCH   2  41
TORSDOF 20
TER
