USER    Run = 1
USER    DPF = ligand_405_receptor.dpf
USER  
USER    Estimated Free Energy of Binding    = +430.46 kcal/mol  [=(1)+(2)+(3)-(4)]
USER    
USER    (1) Final Intermolecular Energy     = +429.26 kcal/mol
USER        vdW + Hbond + desolv Energy     = +429.26 kcal/mol
USER        Electrostatic Energy            =   +0.00 kcal/mol
USER    (2) Final Total Internal Energy     =  +38.51 kcal/mol
USER    (3) Torsional Free Energy           =   +1.19 kcal/mol
USER    (4) Unbound System's Energy  [=(2)] =  +38.51 kcal/mol
USER    
USER    
USER    NEWDPF move ligand_405.pdbqt
USER    NEWDPF about 0.000000 0.000000 0.000000
USER    NEWDPF tran0 11.423342 9.146311 4.973937
USER    NEWDPF quaternion0 -0.777646 -0.522765 0.034087 0.347595
USER    NEWDPF axisangle0 -0.829361 -0.557529 0.036354 139.319436
USER    NEWDPF quat0 -0.829361 -0.557529 0.036354 139.319436
USER    NEWDPF dihe0 -178.25 88.54 -28.95 -31.40 179.89 138.07 -179.88 100.27 -128.81 136.48 21.43 161.20 129.93 -43.60 -21.44 92.33 121.11 129.58 24.87 -155.27 -13.17 62.85 35.12 171.61 
USER  keepresnum = 1 
USER  
REMARK  24 active torsions:
REMARK  status: ('A' for Active; 'I' for Inactive)
REMARK    1  A    between atoms: C4_4  and  O11_74 
REMARK    2  A    between atoms: C7_7  and  C8_8 
REMARK    3  A    between atoms: C8_8  and  C9_9 
REMARK    4  A    between atoms: C9_9  and  C10_10 
REMARK    5  A    between atoms: C9_9  and  N8_83 
REMARK       I    between atoms: C10_10  and  N1_75 
REMARK    6  A    between atoms: C19_19  and  C20_20 
REMARK       I    between atoms: C20_20  and  N2_76 
REMARK    7  A    between atoms: C21_21  and  C22_22 
REMARK    8  A    between atoms: C21_21  and  N2_76 
REMARK    9  A    between atoms: C22_22  and  C23_23 
REMARK   10  A    between atoms: C23_23  and  C24_24 
REMARK   11  A    between atoms: C26_26  and  C28_28 
REMARK   12  A    between atoms: C28_28  and  C29_29 
REMARK   13  A    between atoms: C29_29  and  C30_30 
REMARK   14  A    between atoms: C30_30  and  N5_80 
REMARK   15  A    between atoms: C31_31  and  C32_32 
REMARK       I    between atoms: C31_31  and  N5_80 
REMARK   16  A    between atoms: C41_41  and  C42_42 
REMARK       I    between atoms: C41_41  and  N6_81 
REMARK   17  A    between atoms: C42_42  and  C43_43 
REMARK   18  A    between atoms: C42_42  and  N7_82 
REMARK   19  A    between atoms: C43_43  and  C44_44 
REMARK   20  A    between atoms: C47_47  and  O6_69 
REMARK   21  A    between atoms: C52_52  and  O8_71 
REMARK       I    between atoms: C52_52  and  N7_82 
REMARK   22  A    between atoms: C53_53  and  O8_71 
REMARK   23  A    between atoms: C58_58  and  O10_73 
REMARK       I    between atoms: C58_58  and  N8_83 
REMARK   24  A    between atoms: C59_59  and  O10_73 
USER                              x       y       z     vdW  Elec       q    Type
USER                           _______ _______ _______ _____ _____    ______ ____
ROOT
ATOM      1  C24 UNL     1      12.658   8.169   5.211 -0.31 +0.00    +0.034 A 
ATOM      2  C25 UNL     1      12.953   7.050   4.506 -0.42 +0.00    +0.028 A 
ATOM      3  C26 UNL     1      14.670   8.057   3.345 -0.37 +0.00    +0.078 A 
ATOM      4  C27 UNL     1      14.451   9.352   4.113 +2.36 +0.00    +0.268 A 
ATOM      5  C57 UNL     1      12.251   5.723   4.668 -0.15 +0.00    +0.070 C 
ATOM      6  O3  UNL     1      15.159  10.327   3.925 +6.57 -0.00    -0.266 OA
ATOM      7  N3  UNL     1      13.948   6.994   3.544 -0.16 -0.00    -0.357 N 
ATOM      8  H3  UNL     1      14.109   6.143   3.006 -0.42 +0.00    +0.166 HD
ATOM      9  N4  UNL     1      13.409   9.307   4.999 +2.81 -0.00    -0.324 N 
ATOM     10  H77 UNL     1      13.236  10.152   5.531 +1.94 +0.00    +0.169 HD
ENDROOT
BRANCH   1  11
ATOM     11  C23 UNL     1      11.583   8.312   6.267 -0.31 +0.00    +0.061 C 
BRANCH  11  12
ATOM     12  C22 UNL     1      10.167   8.486   5.702 +3.22 +0.00    +0.026 C 
BRANCH  12  13
ATOM     13  C21 UNL     1       9.809   7.554   4.541 -0.01 +0.00    +0.123 C 
BRANCH  13  14
ATOM     14  N2  UNL     1       9.447   6.214   4.950 -0.06 -0.00    -0.359 N 
ATOM     15  C20 UNL     1       9.307   5.179   4.047 -0.16 +0.00    +0.240 C 
ATOM     16  O2  UNL     1       9.500   5.325   2.841 -0.13 -0.00    -0.271 OA
ATOM     17  H76 UNL     1       9.204   6.065   5.921 +0.10 +0.00    +0.162 HD
BRANCH  15  18
ATOM     18  C19 UNL     1       8.874   3.835   4.685 -0.29 +0.00    +0.183 C 
ATOM     19  C18 UNL     1      10.073   2.969   5.075 -0.31 +0.00    +0.074 C 
ATOM     20  C17 UNL     1      10.714   2.307   3.886 +2.06 -0.00    -0.048 A 
ATOM     21  C12 UNL     1       9.952   2.051   2.737 +4.91 -0.00    -0.034 A 
ATOM     22  C16 UNL     1      12.053   1.899   3.943+23.67 +0.00    +0.008 A 
ATOM     23  C11 UNL     1       8.499   2.447   2.634 +0.12 +0.00    +0.165 C 
ATOM     24  C13 UNL     1      10.559   1.408   1.646 +3.02 +0.00    +0.009 A 
ATOM     25  N1  UNL     1       7.938   3.129   3.800 -0.14 -0.00    -0.332 N 
ATOM     26  C10 UNL     1       6.600   3.504   3.886 -0.16 +0.00    +0.244 C 
ATOM     27  O1  UNL     1       6.195   4.219   4.813 -0.15 -0.00    -0.271 OA
ATOM     28  C14 UNL     1      11.897   1.018   1.703 +9.55 +0.00    +0.001 A 
ATOM     29  C15 UNL     1      12.642   1.261   2.853+31.79 +0.00    +0.001 A 
BRANCH  26  30
ATOM     30  C9  UNL     1       5.615   3.067   2.777 -0.13 +0.00    +0.183 C 
BRANCH  30  31
ATOM     31  C8  UNL     1       6.042   1.671   2.282 -0.27 +0.00    +0.074 C 
BRANCH  31  32
ATOM     32  C7  UNL     1       5.491   1.296   0.912 -0.09 -0.00    -0.044 A 
ATOM     33  C2  UNL     1       6.198   0.395   0.073 +2.93 -0.00    -0.052 A 
ATOM     34  C1  UNL     1       7.528  -0.203   0.449 +6.58 +0.00    +0.049 C 
ATOM     35  C3  UNL     1       5.649   0.024  -1.166 +0.74 +0.00    +0.043 A 
ATOM     36  C4  UNL     1       4.439   0.547  -1.587 -0.01 +0.00    +0.066 A 
ATOM     37  C5  UNL     1       3.746   1.450  -0.795 -0.11 +0.00    +0.043 A 
ATOM     38  C6  UNL     1       4.259   1.837   0.455 -0.12 -0.00    -0.052 A 
ATOM     39  C63 UNL     1       3.474   2.847   1.252 -0.11 +0.00    +0.049 C 
BRANCH  36  40
ATOM     40  O11 UNL     1       3.961   0.150  -2.801 -0.05 -0.00    -0.361 OA
ATOM     41  H75 UNL     1       4.589  -0.480  -3.188 +0.05 +0.00    +0.217 HD
ENDBRANCH  36  40
ENDBRANCH  31  32
ENDBRANCH  30  31
BRANCH  30  42
ATOM     42  N8  UNL     1       5.708   4.079   1.731 -0.01 -0.00    -0.323 N 
ATOM     43  C58 UNL     1       6.601   3.949   0.712 -0.01 +0.00    +0.362 C 
ATOM     44  O9  UNL     1       7.523   3.150   0.689 -0.07 -0.00    -0.238 OA
ATOM     45  H80 UNL     1       4.854   4.545   1.454 +0.05 +0.00    +0.165 HD
BRANCH  43  46
ATOM     46  O10 UNL     1       6.275   4.826  -0.263 -0.11 -0.00    -0.294 OA
BRANCH  46  47
ATOM     47  C59 UNL     1       5.136   5.710  -0.113 -0.08 +0.00    +0.061 C 
ATOM     48  C60 UNL     1       3.862   5.082  -0.689 +0.19 +0.00    +0.046 C 
ATOM     49  C61 UNL     1       5.491   6.950  -0.946+11.03 +0.00    +0.046 C 
ATOM     50  C62 UNL     1       4.953   6.139   1.348 -0.00 +0.00    +0.046 C 
ENDBRANCH  46  47
ENDBRANCH  43  46
ENDBRANCH  30  42
ENDBRANCH  26  30
ENDBRANCH  15  18
ENDBRANCH  13  14
ENDBRANCH  12  13
ENDBRANCH  11  12
ENDBRANCH   1  11
BRANCH   3  51
ATOM     51  C28 UNL     1      15.774   8.053   2.316 +0.51 +0.00    +0.064 C 
BRANCH  51  52
ATOM     52  C29 UNL     1      17.018   7.342   2.852 -0.34 +0.00    +0.026 C 
BRANCH  52  53
ATOM     53  C30 UNL     1      18.279   7.651   2.051 +8.27 +0.00    +0.123 C 
BRANCH  53  54
ATOM     54  N5  UNL     1      19.462   7.774   2.878 +5.29 -0.00    -0.359 N 
ATOM     55  C31 UNL     1      19.433   8.543   4.018 +0.01 +0.00    +0.240 C 
ATOM     56  O4  UNL     1      18.489   9.278   4.305 -0.10 -0.00    -0.271 OA
ATOM     57  H78 UNL     1      20.187   7.055   2.807+12.47 +0.00    +0.162 HD
BRANCH  55  58
ATOM     58  C32 UNL     1      20.709   8.525   4.881+37.84 +0.00    +0.183 C 
ATOM     59  C33 UNL     1      20.285   8.995   6.295+54.85 +0.00    +0.074 C 
ATOM     60  C34 UNL     1      21.457   9.469   7.111 +2.42 -0.00    -0.048 A 
ATOM     61  C35 UNL     1      21.570   9.216   8.481 -0.40 +0.00    +0.008 A 
ATOM     62  C39 UNL     1      22.432  10.239   6.456 +2.37 -0.00    -0.034 A 
ATOM     63  C36 UNL     1      22.663   9.713   9.188 +6.68 +0.00    +0.001 A 
ATOM     64  C37 UNL     1      23.637  10.471   8.537+34.25 +0.00    +0.001 A 
ATOM     65  C38 UNL     1      23.522  10.740   7.173+25.47 +0.00    +0.009 A 
ATOM     66  C40 UNL     1      22.233  10.514   4.986 +5.76 +0.00    +0.165 C 
ATOM     67  N6  UNL     1      21.855   9.277   4.302 +0.48 -0.00    -0.332 N 
ATOM     68  C41 UNL     1      22.691   8.809   3.294 -0.15 +0.00    +0.244 C 
ATOM     69  O5  UNL     1      23.701   9.436   2.947 -0.35 -0.00    -0.271 OA
BRANCH  68  70
ATOM     70  C42 UNL     1      22.380   7.452   2.619 +4.70 +0.00    +0.183 C 
BRANCH  70  71
ATOM     71  C43 UNL     1      23.681   6.632   2.520+46.64 +0.00    +0.074 C 
BRANCH  71  72
ATOM     72  C44 UNL     1      24.955   7.438   2.746 +0.10 -0.00    -0.044 A 
ATOM     73  C45 UNL     1      25.931   7.540   1.719 -0.40 -0.00    -0.052 A 
ATOM     74  C46 UNL     1      27.115   8.258   1.951 -0.47 +0.00    +0.043 A 
ATOM     75  C51 UNL     1      25.747   6.922   0.356 -0.41 +0.00    +0.049 C 
ATOM     76  C47 UNL     1      27.342   8.866   3.174 +0.97 +0.00    +0.066 A 
ATOM     77  C48 UNL     1      26.398   8.789   4.186 +7.34 +0.00    +0.043 A 
ATOM     78  C49 UNL     1      25.193   8.093   3.984 -0.37 -0.00    -0.052 A 
ATOM     79  C50 UNL     1      24.216   8.059   5.131 +2.90 +0.00    +0.049 C 
BRANCH  76  80
ATOM     80  O6  UNL     1      28.516   9.540   3.342+15.78 -0.00    -0.361 OA
ATOM     81  H74 UNL     1      29.177   8.922   3.693 -0.31 +0.00    +0.217 HD
ENDBRANCH  76  80
ENDBRANCH  71  72
ENDBRANCH  70  71
BRANCH  70  82
ATOM     82  N7  UNL     1      21.841   7.767   1.297+13.51 -0.00    -0.323 N 
ATOM     83  C52 UNL     1      21.938   9.013   0.765 +0.22 +0.00    +0.362 C 
ATOM     84  O7  UNL     1      22.274  10.015   1.377 -0.28 -0.00    -0.238 OA
ATOM     85  H79 UNL     1      21.859   7.036   0.599 +0.94 +0.00    +0.165 HD
BRANCH  83  86
ATOM     86  O8  UNL     1      21.624   8.944  -0.547 -0.15 -0.00    -0.294 OA
BRANCH  86  87
ATOM     87  C53 UNL     1      22.122   7.862  -1.373 +2.87 +0.00    +0.061 C 
ATOM     88  C54 UNL     1      22.275   6.571  -0.564 +0.86 +0.00    +0.046 C 
ATOM     89  C55 UNL     1      21.032   7.647  -2.435+15.09 +0.00    +0.046 C 
ATOM     90  C56 UNL     1      23.424   8.253  -2.080+15.43 +0.00    +0.046 C 
ENDBRANCH  86  87
ENDBRANCH  83  86
ENDBRANCH  70  82
ENDBRANCH  68  70
ENDBRANCH  55  58
ENDBRANCH  53  54
ENDBRANCH  52  53
ENDBRANCH  51  52
ENDBRANCH   3  51
TORSDOF 24
TER
