USER    Run = 1
USER    DPF = ligand_541_receptor.dpf
USER  
USER    Estimated Free Energy of Binding    =  -10.33 kcal/mol  [=(1)+(2)+(3)-(4)]
USER    Estimated Inhibition Constant, Ki   =   26.70 nM (nanomolar)  [Temperature = 298.15 K]
USER    
USER    (1) Final Intermolecular Energy     =  -11.53 kcal/mol
USER        vdW + Hbond + desolv Energy     =  -11.53 kcal/mol
USER        Electrostatic Energy            =   +0.00 kcal/mol
USER    (2) Final Total Internal Energy     =   -1.64 kcal/mol
USER    (3) Torsional Free Energy           =   +1.19 kcal/mol
USER    (4) Unbound System's Energy  [=(2)] =   -1.64 kcal/mol
USER    
USER    
USER    NEWDPF move ligand_541.pdbqt
USER    NEWDPF about 0.000000 0.000000 0.000000
USER    NEWDPF tran0 13.575632 8.093199 4.383936
USER    NEWDPF quaternion0 0.113570 -0.985798 -0.084002 -0.090817
USER    NEWDPF axisangle0 0.114042 -0.989889 -0.084351 -169.578826
USER    NEWDPF quat0 0.114042 -0.989889 -0.084351 -169.578826
USER    NEWDPF dihe0 10.08 -152.89 -165.54 115.42 -93.54 -4.56 164.83 64.04 -23.61 
USER  keepresnum = 1 
USER  
REMARK  9 active torsions:
REMARK  status: ('A' for Active; 'I' for Inactive)
REMARK    1  A    between atoms: C2_2  and  C19_19 
REMARK    2  A    between atoms: C4_4  and  C5_5 
REMARK       I    between atoms: C5_5  and  N3_31 
REMARK    3  A    between atoms: C6_6  and  N3_31 
REMARK    4  A    between atoms: C9_9  and  C12_12 
REMARK       I    between atoms: C12_12  and  N4_32 
REMARK    5  A    between atoms: C15_15  and  C18_18 
REMARK    6  A    between atoms: C18_18  and  N5_33 
REMARK    7  A    between atoms: C21_21  and  C22_22 
REMARK    8  A    between atoms: C23_23  and  N6_34 
REMARK    9  A    between atoms: C25_25  and  N9_39 
USER                              x       y       z     vdW  Elec       q    Type
USER                           _______ _______ _______ _____ _____    ______ ____
ROOT
ATOM      1  C1  UNL     1      17.232   7.837   4.702 +0.21 +0.00    +0.158 C 
ATOM      2  C2  UNL     1      17.183   8.959   2.435 -0.52 +0.00    +0.065 C 
ATOM      3  C3  UNL     1      16.261   8.872   1.412 -0.47 +0.00    +0.120 C 
ATOM      4  C4  UNL     1      15.329   7.891   3.078 -0.06 +0.00    +0.177 C 
ATOM      5  N1  UNL     1      16.606   8.243   3.467 -0.30 -0.00    -0.331 N 
ATOM      6  N2  UNL     1      15.125   8.222   1.812 +0.46 -0.00    -0.345 N 
ATOM      7  H2  UNL     1      14.294   8.031   1.252 -0.35 +0.00    +0.167 HD
ENDROOT
BRANCH   4   8
ATOM      8  C5  UNL     1      14.293   7.247   3.882 -0.24 +0.00    +0.290 C 
ATOM      9  N3  UNL     1      13.041   7.425   3.320 -0.24 -0.00    -0.320 N 
ATOM     10  H23 UNL     1      13.063   7.978   2.464 -0.24 +0.00    +0.169 HD
ATOM     11  O1  UNL     1      14.529   6.644   4.924 -0.36 -0.00    -0.264 OA
BRANCH   9  12
ATOM     12  C6  UNL     1      11.796   6.962   3.776 -0.36 +0.00    +0.036 A 
ATOM     13  C7  UNL     1      11.810   5.943   4.741 -0.29 +0.00    +0.054 A 
ATOM     14  C8  UNL     1      10.614   5.424   5.250 -0.27 +0.00    +0.051 A 
ATOM     15  C9  UNL     1       9.398   5.921   4.787 -0.22 +0.00    +0.054 A 
ATOM     16 CL1  UNL     1      10.709   4.150   6.411 -0.61 -0.00    -0.083 Cl
ATOM     17  C10 UNL     1       9.371   6.943   3.832 -0.29 +0.00    +0.021 A 
ATOM     18  C11 UNL     1      10.569   7.458   3.328 -0.37 +0.00    +0.030 A 
BRANCH  15  19
ATOM     19  C12 UNL     1       8.114   5.425   5.306 -0.15 +0.00    +0.255 C 
ATOM     20  N4  UNL     1       7.391   4.527   4.527 -0.08 -0.00    -0.348 N 
ATOM     21  C13 UNL     1       6.076   4.115   5.009 -0.25 +0.00    +0.126 C 
ATOM     22  C17 UNL     1       7.857   3.947   3.265 -0.20 +0.00    +0.126 C 
ATOM     23  C14 UNL     1       5.193   3.592   3.882 -0.20 +0.00    +0.026 C 
ATOM     24  C15 UNL     1       5.838   2.382   3.180 -0.29 +0.00    +0.016 C 
ATOM     25  C16 UNL     1       7.372   2.510   3.096 -0.30 +0.00    +0.026 C 
ATOM     26  O2  UNL     1       7.733   5.867   6.386 -0.04 -0.00    -0.267 OA
BRANCH  24  27
ATOM     27  C18 UNL     1       5.180   2.097   1.818 -0.11 +0.00    +0.271 C 
BRANCH  27  28
ATOM     28  N5  UNL     1       4.190   1.025   1.863 -0.21 +0.00    +0.078 N 
ATOM     29  H24 UNL     1       3.994   0.711   0.913 +0.09 +0.00    +0.312 HD
ATOM     30  H25 UNL     1       3.307   1.384   2.222 +0.10 +0.00    +0.312 HD
ENDBRANCH  27  28
ENDBRANCH  24  27
ENDBRANCH  15  19
ENDBRANCH   9  12
ENDBRANCH   4   8
BRANCH   2  31
ATOM     31  C19 UNL     1      18.555   9.713   2.399 -0.41 +0.00    +0.043 A 
ATOM     32  C20 UNL     1      19.779   9.147   2.671 +0.00 +0.00    +0.134 A 
ATOM     33  N6  UNL     1      20.737  10.135   2.554 -0.25 -0.00    -0.250 N 
ATOM     34  N7  UNL     1      20.166  11.319   2.229 -0.23 -0.00    -0.288 N 
ATOM     35  C21 UNL     1      18.843  11.084   2.138 -0.38 +0.00    +0.146 A 
ATOM     36  H7  UNL     1      20.642  12.210   2.084 +0.16 +0.00    +0.187 HD
BRANCH  33  37
ATOM     37  C23 UNL     1      22.158  10.025   2.739 -0.20 +0.00    +0.126 A 
ATOM     38  C27 UNL     1      22.731  10.297   3.980 -0.43 +0.00    +0.052 A 
ATOM     39  C26 UNL     1      24.119  10.186   4.123 -0.46 +0.00    +0.028 A 
ATOM     40  C25 UNL     1      24.917   9.847   3.034 -0.60 +0.00    +0.021 A 
ATOM     41  C24 UNL     1      24.248   9.535   1.855 -0.36 +0.00    +0.113 A 
ATOM     42  N8  UNL     1      22.911   9.639   1.676 -0.15 -0.00    -0.349 N 
ATOM     43  H8  UNL     1      22.482   9.434   0.773 +0.13 +0.00    +0.167 HD
BRANCH  40  44
ATOM     44  N9  UNL     1      26.284   9.612   3.200 -0.76 -0.00    -0.302 NA
ATOM     45  H26 UNL     1      26.765   9.315   2.356 +0.06 +0.00    +0.124 HD
ATOM     46  H27 UNL     1      26.514   9.026   3.997 -0.44 +0.00    +0.124 HD
ENDBRANCH  40  44
ENDBRANCH  33  37
BRANCH  35  47
ATOM     47  C22 UNL     1      17.886  12.189   1.787 -0.34 +0.00    +0.434 C 
ATOM     48  F1  UNL     1      17.179  11.970   0.647 -0.18 -0.00    -0.165 F 
ATOM     49  F2  UNL     1      16.967  12.392   2.772 -0.21 -0.00    -0.165 F 
ATOM     50  F3  UNL     1      18.530  13.377   1.615 -0.33 -0.00    -0.165 F 
ENDBRANCH  35  47
ENDBRANCH   2  31
TORSDOF 9
TER
