USER    Run = 1
USER    DPF = ligand_189_receptor.dpf
USER  
USER    Estimated Free Energy of Binding    = +605.08 kcal/mol  [=(1)+(2)+(3)-(4)]
USER    
USER    (1) Final Intermolecular Energy     = +603.89 kcal/mol
USER        vdW + Hbond + desolv Energy     = +603.89 kcal/mol
USER        Electrostatic Energy            =   +0.00 kcal/mol
USER    (2) Final Total Internal Energy     =   +9.31 kcal/mol
USER    (3) Torsional Free Energy           =   +1.19 kcal/mol
USER    (4) Unbound System's Energy  [=(2)] =   +9.31 kcal/mol
USER    
USER    
USER    NEWDPF move ligand_189.pdbqt
USER    NEWDPF about 0.000000 0.000000 0.000000
USER    NEWDPF tran0 16.025849 7.742064 2.381424
USER    NEWDPF quaternion0 -0.038165 -0.059304 0.109295 -0.991504
USER    NEWDPF axisangle0 -0.293414 -0.455932 0.840258 -14.947619
USER    NEWDPF quat0 -0.293414 -0.455932 0.840258 -14.947619
USER    NEWDPF dihe0 121.83 -109.28 25.84 175.96 22.33 -85.71 113.77 -41.99 -158.79 -24.23 -61.83 147.77 36.64 16.06 112.32 95.55 180.00 -31.19 103.17 4.81 -71.73 -134.82 
USER  keepresnum = 1 
USER  
REMARK  22 active torsions:
REMARK  status: ('A' for Active; 'I' for Inactive)
REMARK    1  A    between atoms: C2_2  and  C3_3 
REMARK    2  A    between atoms: C4_4  and  C94_94 
REMARK    3  A    between atoms: C9_9  and  C29_29 
REMARK    4  A    between atoms: C11_11  and  C27_27 
REMARK    5  A    between atoms: C12_12  and  C25_25 
REMARK    6  A    between atoms: C16_16  and  C23_23 
REMARK    7  A    between atoms: C17_17  and  C21_21 
REMARK    8  A    between atoms: C32_32  and  C35_35 
REMARK    9  A    between atoms: C37_37  and  C86_86 
REMARK   10  A    between atoms: C38_38  and  C84_84 
REMARK   11  A    between atoms: C43_43  and  C61_61 
REMARK   12  A    between atoms: C45_45  and  C59_59 
REMARK   13  A    between atoms: C46_46  and  C57_57 
REMARK   14  A    between atoms: C50_50  and  C55_55 
REMARK   15  A    between atoms: C51_51  and  C53_53 
REMARK   16  A    between atoms: C64_64  and  C67_67 
REMARK   17  A    between atoms: C67_67  and  N8_107 
REMARK   18  A    between atoms: C76_76  and  O4_114 
REMARK   19  A    between atoms: C78_78  and  C82_82 
REMARK   20  A    between atoms: C79_79  and  C80_80 
REMARK   21  A    between atoms: C88_88  and  C92_92 
REMARK   22  A    between atoms: C89_89  and  C90_90 
USER                              x       y       z     vdW  Elec       q    Type
USER                           _______ _______ _______ _____ _____    ______ ____
ROOT
ATOM      1  C35 UNL     1      16.679   8.568   1.349 -0.56 +0.00    +0.029 C 
ATOM      2  C36 UNL     1      17.259   9.109   2.765 -0.54 +0.00    +0.053 C 
ATOM      3  C37 UNL     1      16.687   9.985   3.679 -0.48 -0.00    -0.022 C 
ATOM      4  C38 UNL     1      17.586  10.034   4.817 +0.55 -0.00    -0.023 C 
ATOM      5  C39 UNL     1      18.669   9.231   4.504 +2.70 +0.00    +0.041 C 
ATOM      6  C40 UNL     1      19.883   8.893   5.437+26.19 +0.00    +0.060 C 
ATOM      7  C41 UNL     1      21.174   9.001   5.058+23.99 +0.00    +0.041 A 
ATOM      8  C42 UNL     1      23.054   9.341   3.881 -0.45 +0.00    +0.053 A 
ATOM      9  C43 UNL     1      23.861   9.637   2.815 -0.58 +0.00    +0.029 C 
ATOM     10  C44 UNL     1      23.151  10.005   1.409 -0.03 +0.00    +0.053 C 
ATOM     11  C45 UNL     1      23.488  10.982   0.479 +7.71 -0.00    -0.022 C 
ATOM     12  C46 UNL     1      22.616  10.779  -0.661 +0.14 -0.00    -0.023 C 
ATOM     13  C47 UNL     1      21.780   9.725  -0.339 +0.17 +0.00    +0.041 C 
ATOM     14  C48 UNL     1      20.713   9.063  -1.275+33.47 +0.00    +0.060 C 
ATOM     15  C49 UNL     1      19.456   8.764  -0.883+12.95 +0.00    +0.041 A 
ATOM     16  C50 UNL     1      18.477   8.121  -1.760 +6.26 -0.00    -0.023 A 
ATOM     17  C51 UNL     1      17.338   7.947  -1.059 +2.12 -0.00    -0.022 A 
ATOM     18  C52 UNL     1      17.563   8.512   0.299 +0.78 +0.00    +0.053 A 
ATOM     19  C78 UNL     1      23.437   8.838   5.229 +1.95 -0.00    -0.022 A 
ATOM     20  C79 UNL     1      22.298   8.640   5.923+99.99 -0.00    -0.023 A 
ATOM     21  N5  UNL     1      21.691   9.416   3.883 +0.09 -0.00    -0.354 N 
ATOM     22  H5  UNL     1      21.133   9.745   3.095 +0.11 +0.00    +0.166 HD
ATOM     23  N6  UNL     1      22.033   9.350   0.949 -0.17 -0.00    -0.354 N 
ATOM     24  N7  UNL     1      18.860   8.955   0.314 +3.20 -0.00    -0.354 N 
ATOM     25  H7  UNL     1      19.316   9.374   1.124 +0.13 +0.00    +0.166 HD
ATOM     26  N10 UNL     1      18.500   8.759   3.234 -0.24 -0.00    -0.354 N 
ATOM     27  HA0 UNL     1      21.454   8.740   1.514 +0.13 +0.00    +0.166 HD
ATOM     28  HA1 UNL     1      19.202   8.295   2.671 +0.12 +0.00    +0.166 HD
ENDROOT
BRANCH   1  29
ATOM     29  C32 UNL     1      15.274   8.074   1.372 +3.01 -0.00    -0.021 A 
ATOM     30  C31 UNL     1      14.710   7.525   2.533 +6.81 +0.00    +0.013 A 
ATOM     31  C30 UNL     1      13.389   7.044   2.536 +0.48 +0.00    +0.013 A 
ATOM     32  C29 UNL     1      12.600   7.107   1.379 +0.48 -0.00    -0.021 A 
ATOM     33  C34 UNL     1      13.175   7.631   0.213+11.96 +0.00    +0.013 A 
ATOM     34  C33 UNL     1      14.497   8.106   0.207 +9.82 +0.00    +0.013 A 
BRANCH  32  35
ATOM     35  C9  UNL     1      11.204   6.585   1.400 -0.37 +0.00    +0.029 C 
ATOM     36  C8  UNL     1      10.377   6.465   2.492 -0.28 +0.00    +0.053 A 
ATOM     37  C88 UNL     1      10.649   6.886   3.889 -0.33 -0.00    -0.022 A 
ATOM     38  N1  UNL     1       9.132   5.885   2.513 -0.05 -0.00    -0.354 N 
ATOM     39  C89 UNL     1       9.598   6.521   4.651 -0.21 -0.00    -0.023 A 
ATOM     40  C7  UNL     1       8.610   5.893   3.762 -0.21 +0.00    +0.041 A 
ATOM     41  C6  UNL     1       7.427   5.427   4.224 -0.24 +0.00    +0.060 C 
ATOM     42  C5  UNL     1       6.365   4.653   3.372 -0.18 +0.00    +0.041 C 
ATOM     43  C4  UNL     1       5.011   4.547   3.649 -0.18 -0.00    -0.023 C 
ATOM     44  N4  UNL     1       6.638   3.909   2.259 -0.00 -0.00    -0.355 N 
ATOM     45  C3  UNL     1       4.466   3.595   2.709 -0.13 -0.00    -0.023 C 
ATOM     46  C20 UNL     1       5.522   3.186   1.913 -0.13 +0.00    +0.041 C 
ATOM     47  C19 UNL     1       5.498   2.079   0.796 -0.15 +0.00    +0.060 C 
ATOM     48  C18 UNL     1       6.445   2.027  -0.165 -0.10 +0.00    +0.041 A 
ATOM     49  C17 UNL     1       6.530   0.974  -1.183 -0.14 -0.00    -0.023 A 
ATOM     50  N3  UNL     1       7.475   2.879  -0.374 +0.01 -0.00    -0.355 N 
ATOM     51  C16 UNL     1       7.614   1.226  -1.940 -0.12 -0.00    -0.023 A 
ATOM     52  C15 UNL     1       8.222   2.462  -1.421 -0.09 +0.00    +0.041 A 
ATOM     53  C14 UNL     1       9.330   3.029  -1.945 -0.18 +0.00    +0.060 C 
ATOM     54  C13 UNL     1       9.908   4.390  -1.413 -0.21 +0.00    +0.041 C 
ATOM     55  C12 UNL     1      10.251   5.483  -2.188 -0.25 -0.00    -0.023 C 
ATOM     56  N2  UNL     1      10.104   4.713  -0.099 -0.02 -0.00    -0.354 N 
ATOM     57  C11 UNL     1      10.723   6.506  -1.279 -0.35 -0.00    -0.022 C 
ATOM     58  C10 UNL     1      10.693   5.951  -0.005 -0.32 +0.00    +0.053 C 
ATOM     59  H98 UNL     1       9.775   4.181   0.698 -0.25 +0.00    +0.166 HD
ATOM     60  H3  UNL     1       7.662   3.715   0.179 +0.07 +0.00    +0.166 HD
ATOM     61  H99 UNL     1       7.526   3.878   1.764 +0.08 +0.00    +0.166 HD
ATOM     62  H1  UNL     1       8.661   5.499   1.694 +0.08 +0.00    +0.166 HD
BRANCH  37  63
ATOM     63  C92 UNL     1      11.878   7.591   4.371 -0.43 +0.00    +0.037 C 
ATOM     64  C93 UNL     1      12.291   7.150   5.770 -0.44 +0.00    +0.010 C 
ENDBRANCH  37  63
BRANCH  39  65
ATOM     65  C90 UNL     1       9.308   6.639   6.129 +3.13 +0.00    +0.037 C 
ATOM     66  C91 UNL     1       9.078   5.412   6.999 -0.41 +0.00    +0.010 C 
ENDBRANCH  39  65
BRANCH  43  67
ATOM     67  C94 UNL     1       4.265   5.259   4.730 -0.20 +0.00    +0.037 C 
ATOM     68  C95 UNL     1       4.712   4.841   6.123 -0.37 +0.00    +0.010 C 
ENDBRANCH  43  67
BRANCH  45  69
ATOM     69  C2  UNL     1       3.051   3.131   2.622 -0.10 +0.00    +0.037 C 
ATOM     70  C1  UNL     1       2.779   1.930   3.515 -0.15 +0.00    +0.010 C 
ENDBRANCH  45  69
BRANCH  49  71
ATOM     71  C21 UNL     1       5.547  -0.153  -1.247 +1.76 +0.00    +0.037 C 
ATOM     72  C22 UNL     1       4.558   0.004  -2.394 +0.27 +0.00    +0.010 C 
ENDBRANCH  49  71
BRANCH  51  73
ATOM     73  C23 UNL     1       8.225   0.534  -3.128 -0.12 +0.00    +0.037 C 
ATOM     74  C24 UNL     1       9.192  -0.620  -2.915 -0.31 +0.00    +0.010 C 
ENDBRANCH  51  73
BRANCH  55  75
ATOM     75  C25 UNL     1      10.118   5.589  -3.673 -0.28 +0.00    +0.037 C 
ATOM     76  C26 UNL     1      11.083   6.601  -4.272 -0.33 +0.00    +0.010 C 
ENDBRANCH  55  75
BRANCH  57  77
ATOM     77  C27 UNL     1      11.137   7.891  -1.663 +1.74 +0.00    +0.037 C 
ATOM     78  C28 UNL     1       9.987   8.711  -2.228 -0.32 +0.00    +0.010 C 
ENDBRANCH  57  77
ENDBRANCH  32  35
ENDBRANCH   1  29
BRANCH   3  79
ATOM     79  C86 UNL     1      15.416  10.755   3.522+11.98 +0.00    +0.037 C 
ATOM     80  C87 UNL     1      15.402  11.660   2.301 +0.86 +0.00    +0.010 C 
ENDBRANCH   3  79
BRANCH  17  81
ATOM     81  C53 UNL     1      16.048   7.276  -1.454 +2.51 +0.00    +0.037 C 
ATOM     82  C54 UNL     1      15.715   7.000  -2.915+14.03 +0.00    +0.010 C 
ENDBRANCH  17  81
BRANCH   4  83
ATOM     83  C84 UNL     1      17.404  10.819   6.076 +8.67 +0.00    +0.037 C 
ATOM     84  C85 UNL     1      15.957  10.862   6.547+24.64 +0.00    +0.010 C 
ENDBRANCH   4  83
BRANCH  16  85
ATOM     85  C55 UNL     1      18.798   7.781  -3.185+18.14 +0.00    +0.037 C 
ATOM     86  C56 UNL     1      17.736   8.265  -4.165 +1.28 +0.00    +0.010 C 
ENDBRANCH  16  85
BRANCH  20  87
ATOM     87  C80 UNL     1      22.078   8.124   7.315+13.37 +0.00    +0.037 C 
ATOM     88  C81 UNL     1      21.085   8.975   8.097 -0.00 +0.00    +0.010 C 
ENDBRANCH  20  87
BRANCH  12  89
ATOM     89  C57 UNL     1      22.592  11.562  -1.934+24.76 +0.00    +0.037 C 
ATOM     90  C58 UNL     1      22.031  12.963  -1.741 +8.63 +0.00    +0.010 C 
ENDBRANCH  12  89
BRANCH  19  91
ATOM     91  C82 UNL     1      24.869   8.624   5.640+99.99 +0.00    +0.037 C 
ATOM     92  C83 UNL     1      25.756   7.603   4.940 +4.62 +0.00    +0.010 C 
ENDBRANCH  19  91
BRANCH  11  93
ATOM     93  C59 UNL     1      24.527  12.045   0.610+32.42 +0.00    +0.037 C 
ATOM     94  C60 UNL     1      25.614  11.683   1.611 +6.14 +0.00    +0.010 C 
ENDBRANCH  11  93
BRANCH   9  95
ATOM     95  C61 UNL     1      25.329   9.484   2.761 -0.59 -0.00    -0.021 A 
ATOM     96  C62 UNL     1      25.886   8.418   2.047 -0.50 +0.00    +0.013 A 
ATOM     97  C63 UNL     1      27.269   8.235   2.011 -0.49 +0.00    +0.010 A 
ATOM     98  C64 UNL     1      28.120   9.131   2.676 +7.38 -0.00    -0.040 A 
ATOM     99  C65 UNL     1      27.563  10.221   3.362+31.04 +0.00    +0.010 A 
ATOM    100  C66 UNL     1      26.179  10.399   3.395 +2.62 +0.00    +0.013 A 
BRANCH  98 101
ATOM    101  C67 UNL     1      29.603   8.863   2.743+13.28 +0.00    +0.174 C 
BRANCH 101 102
ATOM    102  N8  UNL     1      29.966   7.838   1.788 -0.24 -0.00    -0.276 N 
ATOM    103  C68 UNL     1      29.671   7.906   0.455 -0.15 +0.00    +0.262 A 
ATOM    104  C69 UNL     1      30.021   6.606  -0.113 -0.15 +0.00    +0.049 A 
ATOM    105  O1  UNL     1      29.252   8.835  -0.208 -0.15 -0.00    -0.267 OA
ATOM    106  C70 UNL     1      30.574   5.835   0.915 -0.20 +0.00    +0.049 A 
ATOM    107  C75 UNL     1      29.881   6.141  -1.411 -0.12 +0.00    +0.035 A 
ATOM    108  C71 UNL     1      30.551   6.650   2.129 -0.18 +0.00    +0.262 A 
ATOM    109  C72 UNL     1      31.041   4.545   0.720 -0.16 +0.00    +0.036 A 
ATOM    110  O2  UNL     1      31.018   6.286   3.191 +0.35 -0.00    -0.267 OA
ATOM    111  C73 UNL     1      30.908   4.084  -0.578 -0.07 +0.00    +0.048 A 
ATOM    112  C74 UNL     1      30.345   4.855  -1.597 -0.06 +0.00    +0.032 A 
ATOM    113  C77 UNL     1      31.300   2.809  -1.202 -0.04 +0.00    +0.258 A 
ATOM    114  C76 UNL     1      30.418   3.986  -2.743 -0.03 +0.00    +0.154 A 
ATOM    115  N9  UNL     1      30.954   2.831  -2.547 -0.01 -0.00    -0.303 N 
ATOM    116  H9  UNL     1      31.093   2.089  -3.234 +0.04 +0.00    +0.171 HD
ATOM    117  O3  UNL     1      31.869   1.916  -0.600 -0.15 -0.00    -0.267 OA
BRANCH 114 118
ATOM    118  O4  UNL     1      29.956   4.402  -3.915 -0.06 -0.00    -0.345 OA
ATOM    119  HA2 UNL     1      29.648   5.319  -3.818 +0.05 +0.00    +0.219 HD
ENDBRANCH 114 118
ENDBRANCH 101 102
ENDBRANCH  98 101
ENDBRANCH   9  95
TORSDOF 22
TER
