USER    Run = 1
USER    DPF = ligand_291_receptor.dpf
USER  
USER    Estimated Free Energy of Binding    =   +9.64 kcal/mol  [=(1)+(2)+(3)-(4)]
USER    
USER    (1) Final Intermolecular Energy     =   +8.44 kcal/mol
USER        vdW + Hbond + desolv Energy     =   +8.44 kcal/mol
USER        Electrostatic Energy            =   +0.00 kcal/mol
USER    (2) Final Total Internal Energy     =   -4.65 kcal/mol
USER    (3) Torsional Free Energy           =   +1.19 kcal/mol
USER    (4) Unbound System's Energy  [=(2)] =   -4.65 kcal/mol
USER    
USER    
USER    NEWDPF move ligand_291.pdbqt
USER    NEWDPF about 0.000000 0.000000 0.000000
USER    NEWDPF tran0 17.318214 8.119890 3.956562
USER    NEWDPF quaternion0 0.311850 0.852388 -0.416175 0.054614
USER    NEWDPF axisangle0 0.312316 0.853662 -0.416797 173.738576
USER    NEWDPF quat0 0.312316 0.853662 -0.416797 173.738576
USER    NEWDPF dihe0 50.11 -178.72 -2.86 169.92 -165.95 -4.15 -4.12 1.07 105.90 -86.73 17.47 135.34 156.01 120.07 83.14 -91.60 180.00 -129.95 
USER  keepresnum = 1 
USER  
REMARK  18 active torsions:
REMARK  status: ('A' for Active; 'I' for Inactive)
REMARK    1  A    between atoms: C2_2  and  O1_44 
REMARK    2  A    between atoms: C3_3  and  N2_55 
REMARK    3  A    between atoms: C6_6  and  C8_8 
REMARK    4  A    between atoms: C7_7  and  O2_45 
REMARK       I    between atoms: C8_8  and  N1_54 
REMARK    5  A    between atoms: C9_9  and  N1_54 
REMARK    6  A    between atoms: C10_10  and  O7_50 
REMARK    7  A    between atoms: C11_11  and  O6_49 
REMARK    8  A    between atoms: C12_12  and  C15_15 
REMARK    9  A    between atoms: C15_15  and  O5_48 
REMARK   10  A    between atoms: C17_17  and  C18_18 
REMARK       I    between atoms: C17_17  and  N2_55 
REMARK   11  A    between atoms: C21_21  and  N3_56 
REMARK   12  A    between atoms: C24_24  and  C25_25 
REMARK       I    between atoms: C24_24  and  N3_56 
REMARK   13  A    between atoms: C25_25  and  C26_26 
REMARK   14  A    between atoms: C25_25  and  N7_62 
REMARK   15  A    between atoms: C26_26  and  C27_27 
REMARK   16  A    between atoms: C29_29  and  C30_30 
REMARK       I    between atoms: C29_29  and  N7_62 
REMARK   17  A    between atoms: C33_33  and  C36_36 
REMARK   18  A    between atoms: C37_37  and  C38_38 
USER                              x       y       z     vdW  Elec       q    Type
USER                           _______ _______ _______ _____ _____    ______ ____
ROOT
ATOM      1  C18 UNL     1      17.993   7.801   3.769 -0.42 +0.00    +0.032 A 
ATOM      2  C19 UNL     1      17.287   8.406   2.724 -0.53 +0.00    +0.019 A 
ATOM      3  C20 UNL     1      15.902   8.574   2.818 -0.48 +0.00    +0.030 A 
ATOM      4  C21 UNL     1      15.205   8.150   3.956 -0.49 +0.00    +0.034 A 
ATOM      5  C22 UNL     1      15.918   7.567   5.006 +0.33 +0.00    +0.030 A 
ATOM      6  C23 UNL     1      17.305   7.396   4.918 +2.75 +0.00    +0.019 A 
ENDROOT
BRANCH   4   7
ATOM      7  N3  UNL     1      13.815   8.359   3.965 -0.22 -0.00    -0.325 N 
ATOM      8  C24 UNL     1      12.895   8.054   2.979 +0.35 +0.00    +0.245 C 
ATOM      9  O9  UNL     1      13.169   7.617   1.862 +1.21 -0.00    -0.271 OA
ATOM     10  H32 UNL     1      13.435   8.797   4.808 +0.11 +0.00    +0.169 HD
BRANCH   8  11
ATOM     11  C25 UNL     1      11.437   8.441   3.319 +0.32 +0.00    +0.182 C 
BRANCH  11  12
ATOM     12  C26 UNL     1      11.332   8.758   4.818 +0.94 +0.00    +0.095 C 
BRANCH  12  13
ATOM     13  C27 UNL     1      11.291   7.538   5.665 -0.36 +0.00    +0.046 A 
ATOM     14  C28 UNL     1      12.261   7.048   6.560 -0.30 +0.00    +0.135 A 
ATOM     15  N6  UNL     1      11.835   5.910   7.115 -0.15 -0.00    -0.296 N 
ATOM     16  N5  UNL     1      10.622   5.777   6.551 -0.16 -0.00    -0.243 N 
ATOM     17  H6  UNL     1      12.305   5.304   7.788 +0.15 +0.00    +0.187 HD
ATOM     18  N4  UNL     1      10.241   6.703   5.653 -0.11 -0.00    -0.289 N 
ATOM     19  H33 UNL     1      10.015   4.998   6.793 +0.15 +0.00    +0.208 HD
ATOM     20  H4  UNL     1       9.381   6.756   5.106 +0.12 +0.00    +0.188 HD
ENDBRANCH  12  13
ENDBRANCH  11  12
BRANCH  11  21
ATOM     21  N7  UNL     1      10.432   7.484   2.812 -0.16 -0.00    -0.343 N 
ATOM     22  C29 UNL     1       9.088   7.752   2.713 -0.26 +0.00    +0.252 C 
ATOM     23  O10 UNL     1       8.585   8.767   3.184 -0.04 -0.00    -0.268 OA
ATOM     24  H34 UNL     1      10.809   6.755   2.219 +0.09 +0.00    +0.163 HD
BRANCH  22  25
ATOM     25  C30 UNL     1       8.254   6.756   1.987 -0.29 +0.00    +0.032 A 
ATOM     26  C31 UNL     1       6.858   6.738   2.096 -0.31 +0.00    +0.018 A 
ATOM     27  C32 UNL     1       6.116   5.784   1.393 -0.22 +0.00    +0.022 A 
ATOM     28  C33 UNL     1       6.762   4.852   0.576 -0.14 +0.00    +0.018 A 
ATOM     29  C34 UNL     1       8.153   4.879   0.456 -0.13 +0.00    +0.022 A 
ATOM     30  C35 UNL     1       8.898   5.832   1.155 -0.19 +0.00    +0.018 A 
BRANCH  28  31
ATOM     31  C36 UNL     1       5.999   3.879  -0.141 -0.12 -0.00    -0.061 C 
ATOM     32  C37 UNL     1       5.357   3.061  -0.743 -0.11 -0.00    -0.061 C 
BRANCH  32  33
ATOM     33  C38 UNL     1       4.592   2.089  -1.460 -0.08 +0.00    +0.018 A 
ATOM     34  C39 UNL     1       5.226   1.230  -2.365 -0.09 +0.00    +0.024 A 
ATOM     35  C40 UNL     1       4.479   0.281  -3.066 -0.08 +0.00    +0.044 A 
ATOM     36  C41 UNL     1       3.107   0.198  -2.855 -0.07 +0.00    +0.116 A 
ATOM     37  C42 UNL     1       2.466   1.046  -1.958 -0.07 +0.00    +0.044 A 
ATOM     38  F1  UNL     1       2.391  -0.714  -3.527 -0.03 -0.00    -0.206 F 
ATOM     39  C43 UNL     1       3.211   1.996  -1.257 -0.07 +0.00    +0.024 A 
ENDBRANCH  32  33
ENDBRANCH  28  31
ENDBRANCH  22  25
ENDBRANCH  11  21
ENDBRANCH   8  11
ENDBRANCH   4   7
BRANCH   1  40
ATOM     40  C17 UNL     1      19.468   7.634   3.629 +1.33 +0.00    +0.256 C 
ATOM     41  O8  UNL     1      20.003   6.678   4.175 +3.25 -0.00    -0.267 OA
ATOM     42  N2  UNL     1      20.102   8.631   2.915 +0.26 -0.00    -0.320 N 
ATOM     43  H31 UNL     1      19.553   9.432   2.624 +0.12 +0.00    +0.169 HD
BRANCH  42  44
ATOM     44  C3  UNL     1      21.470   8.709   2.572 +0.35 +0.00    +0.071 A 
ATOM     45  C2  UNL     1      22.327   9.384   3.454 -0.33 +0.00    +0.129 A 
ATOM     46  C7  UNL     1      23.679   9.599   3.142 -0.46 +0.00    +0.117 A 
ATOM     47  C6  UNL     1      24.227   9.068   1.970 -0.42 +0.00    +0.068 A 
ATOM     48  C5  UNL     1      23.374   8.354   1.110 -0.44 +0.00    +0.022 A 
ATOM     49  C4  UNL     1      22.011   8.185   1.400 +4.10 +0.00    +0.034 A 
BRANCH  45  50
ATOM     50  O1  UNL     1      21.842   9.898   4.640 +1.89 -0.00    -0.351 OA
ATOM     51  C1  UNL     1      22.795   9.671   5.688 +0.34 +0.00    +0.210 C 
ENDBRANCH  45  50
BRANCH  46  52
ATOM     52  O2  UNL     1      24.432  10.352   4.011 -0.84 -0.00    -0.357 OA
ATOM     53  H27 UNL     1      25.352  10.302   3.681 +0.16 +0.00    +0.217 HD
ENDBRANCH  46  52
BRANCH  47  54
ATOM     54  C8  UNL     1      25.664   9.208   1.558 -0.27 +0.00    +0.259 C 
ATOM     55  O3  UNL     1      26.323  10.128   2.034 +0.32 -0.00    -0.267 OA
ATOM     56  N1  UNL     1      26.135   8.272   0.664 -0.17 -0.00    -0.320 N 
ATOM     57  H30 UNL     1      25.473   7.554   0.370 +0.13 +0.00    +0.169 HD
BRANCH  56  58
ATOM     58  C9  UNL     1      27.415   8.177   0.080 -0.26 +0.00    +0.071 A 
ATOM     59  C10 UNL     1      27.566   7.330  -1.032 -0.20 +0.00    +0.129 A 
ATOM     60  C11 UNL     1      28.784   7.242  -1.722 -0.22 +0.00    +0.118 A 
ATOM     61  C12 UNL     1      29.894   7.940  -1.253 -0.20 +0.00    +0.073 A 
ATOM     62  C13 UNL     1      29.760   8.772  -0.133 -0.18 +0.00    +0.023 A 
ATOM     63  C14 UNL     1      28.528   8.890   0.527 +0.19 +0.00    +0.034 A 
BRANCH  59  64
ATOM     64  O7  UNL     1      26.495   6.601  -1.506 -0.21 -0.00    -0.351 OA
ATOM     65  C16 UNL     1      26.495   5.303  -0.896 -0.30 +0.00    +0.210 C 
ENDBRANCH  59  64
BRANCH  60  66
ATOM     66  O6  UNL     1      28.837   6.501  -2.873 -0.43 -0.00    -0.357 OA
ATOM     67  H29 UNL     1      29.740   6.601  -3.225 +0.06 +0.00    +0.217 HD
ENDBRANCH  60  66
BRANCH  61  68
ATOM     68  C15 UNL     1      31.218   7.880  -1.899 -0.12 +0.00    +0.179 C 
ATOM     69  O4  UNL     1      31.941   8.836  -2.116 -0.01 -0.00    -0.646 OA
BRANCH  68  70
ATOM     70  O5  UNL     1      31.619   6.622  -2.141 +0.08 -0.00    -0.773 OA
ATOM     71  H28 UNL     1      30.808   6.086  -2.035 +0.05 +0.00    +0.167 HD
ENDBRANCH  68  70
ENDBRANCH  61  68
ENDBRANCH  56  58
ENDBRANCH  47  54
ENDBRANCH  42  44
ENDBRANCH   1  40
TORSDOF 18
TER
