USER    Run = 1
USER    DPF = ligand_137_receptor.dpf
USER  
USER    Estimated Free Energy of Binding    =  +20.25 kcal/mol  [=(1)+(2)+(3)-(4)]
USER    
USER    (1) Final Intermolecular Energy     =  +19.05 kcal/mol
USER        vdW + Hbond + desolv Energy     =  +19.05 kcal/mol
USER        Electrostatic Energy            =   +0.00 kcal/mol
USER    (2) Final Total Internal Energy     =  +12.75 kcal/mol
USER    (3) Torsional Free Energy           =   +1.19 kcal/mol
USER    (4) Unbound System's Energy  [=(2)] =  +12.75 kcal/mol
USER    
USER    
USER    NEWDPF move ligand_137.pdbqt
USER    NEWDPF about 0.000000 0.000000 0.000000
USER    NEWDPF tran0 13.868931 10.595004 1.893042
USER    NEWDPF quaternion0 0.231396 0.720811 -0.650249 0.063741
USER    NEWDPF axisangle0 0.231868 0.722280 -0.651574 172.690827
USER    NEWDPF quat0 0.231868 0.722280 -0.651574 172.690827
USER    NEWDPF dihe0 158.73 155.82 180.00 137.70 -74.36 162.60 179.98 -74.14 37.55 180.00 178.91 180.00 -114.94 180.00 103.55 167.64 180.00 
USER  keepresnum = 1 
USER  
REMARK  17 active torsions:
REMARK  status: ('A' for Active; 'I' for Inactive)
REMARK    1  A    between atoms: C6_6  and  C7_7 
REMARK       I    between atoms: C7_7  and  N1_53 
REMARK    2  A    between atoms: C8_8  and  C9_9 
REMARK    3  A    between atoms: C8_8  and  N1_53 
REMARK    4  A    between atoms: C9_9  and  C10_10 
REMARK    5  A    between atoms: C10_10  and  C11_11 
REMARK    6  A    between atoms: C11_11  and  C12_12 
REMARK    7  A    between atoms: C12_12  and  C13_13 
REMARK       I    between atoms: C13_13  and  N2_54 
REMARK    8  A    between atoms: C14_14  and  C15_15 
REMARK    9  A    between atoms: C14_14  and  N2_54 
REMARK   10  A    between atoms: C16_16  and  C17_17 
REMARK   11  A    between atoms: C20_20  and  C22_22 
REMARK   12  A    between atoms: C23_23  and  O7_47 
REMARK   13  A    between atoms: C24_24  and  O6_46 
REMARK   14  A    between atoms: C25_25  and  C26_26 
REMARK   15  A    between atoms: C26_26  and  O5_45 
REMARK   16  A    between atoms: C32_32  and  O10_50 
REMARK   17  A    between atoms: C39_39  and  O12_52 
USER                              x       y       z     vdW  Elec       q    Type
USER                           _______ _______ _______ _____ _____    ______ ____
ROOT
ATOM      1  C8  UNL     1      13.685   7.592   2.607 +0.47 +0.00    +0.123 C 
ENDROOT
BRANCH   1   2
ATOM      2  C9  UNL     1      13.205   7.476   4.054 -0.51 +0.00    +0.020 C 
BRANCH   2   3
ATOM      3  C10 UNL     1      12.372   6.226   4.362 -0.34 +0.00    +0.002 C 
BRANCH   3   4
ATOM      4  C11 UNL     1      11.595   6.249   5.686 -0.39 +0.00    +0.009 C 
BRANCH   4   5
ATOM      5  C12 UNL     1      10.087   6.455   5.555 -0.21 +0.00    +0.103 C 
BRANCH   5   6
ATOM      6  C13 UNL     1       9.653   7.102   4.251 -0.18 +0.00    +0.218 C 
ATOM      7  O2  UNL     1       8.486   7.309   3.947 -0.13 -0.00    -0.274 OA
ATOM      8  N2  UNL     1      10.718   7.408   3.432 -0.17 -0.00    -0.351 N 
ATOM      9  H36 UNL     1      11.654   7.369   3.812 +0.10 +0.00    +0.163 HD
BRANCH   8  10
ATOM     10  C14 UNL     1      10.535   8.125   2.193 +3.18 +0.00    +0.217 C 
BRANCH  10  11
ATOM     11  C15 UNL     1      10.146   7.191   1.134 -0.22 -0.00    -0.081 C 
ATOM     12  C16 UNL     1       9.836   6.415   0.271 -0.28 -0.00    -0.064 C 
BRANCH  12  13
ATOM     13  C17 UNL     1       9.475   5.486  -0.742 -0.17 +0.00    +0.034 A 
ATOM     14  C18 UNL     1      10.291   5.237  -1.776 -0.16 +0.00    +0.112 A 
ATOM     15  N3  UNL     1       9.934   4.334  -2.745 -0.08 -0.00    -0.332 N 
ATOM     16  C19 UNL     1       8.755   3.629  -2.740 -0.05 +0.00    +0.254 A 
ATOM     17  H37 UNL     1      10.559   4.150  -3.521 +0.07 +0.00    +0.168 HD
ATOM     18  C20 UNL     1       7.824   3.894  -1.596 -0.10 +0.00    +0.043 A 
ATOM     19  O3  UNL     1       8.482   2.814  -3.617 +0.53 -0.00    -0.268 OA
ATOM     20  C21 UNL     1       8.206   4.791  -0.665 -0.12 +0.00    +0.037 A 
BRANCH  18  21
ATOM     21  C22 UNL     1       6.522   3.135  -1.612 -0.07 +0.00    +0.192 C 
ATOM     22  C23 UNL     1       5.280   4.045  -1.707 +0.02 +0.00    +0.183 C 
ATOM     23  C24 UNL     1       4.332   3.215  -2.554 -0.08 +0.00    +0.180 C 
ATOM     24  C25 UNL     1       5.301   2.521  -3.500 -0.08 +0.00    +0.177 C 
ATOM     25  O4  UNL     1       6.481   2.225  -2.739 -0.04 -0.00    -0.368 OA
BRANCH  22  26
ATOM     26  O7  UNL     1       4.708   4.317  -0.426 -0.13 -0.00    -0.390 OA
ATOM     27  H32 UNL     1       3.734   4.338  -0.549 +0.03 +0.00    +0.210 HD
ENDBRANCH  22  26
BRANCH  23  28
ATOM     28  O6  UNL     1       3.387   4.013  -3.261 -0.04 -0.00    -0.390 OA
ATOM     29  H31 UNL     1       3.182   4.767  -2.671 -0.46 +0.00    +0.210 HD
ENDBRANCH  23  28
BRANCH  24  30
ATOM     30  C26 UNL     1       4.714   1.253  -4.111 -0.03 +0.00    +0.198 C 
BRANCH  30  31
ATOM     31  O5  UNL     1       5.702   0.228  -4.173 -0.10 -0.00    -0.398 OA
ATOM     32  H30 UNL     1       6.532   0.620  -3.843 +0.05 +0.00    +0.209 HD
ENDBRANCH  30  31
ENDBRANCH  24  30
ENDBRANCH  18  21
ENDBRANCH  12  13
ENDBRANCH  10  11
ENDBRANCH   8  10
ENDBRANCH   5   6
ENDBRANCH   4   5
ENDBRANCH   3   4
ENDBRANCH   2   3
ENDBRANCH   1   2
BRANCH   1  33
ATOM     33  N1  UNL     1      15.112   7.842   2.508 +0.60 -0.00    -0.357 N 
ATOM     34  C7  UNL     1      15.609   9.116   2.318 -0.11 +0.00    +0.251 C 
ATOM     35  O1  UNL     1      14.907  10.118   2.258 +1.05 -0.00    -0.268 OA
ATOM     36  H35 UNL     1      15.713   7.045   2.362 +0.13 +0.00    +0.162 HD
BRANCH  34  37
ATOM     37  C6  UNL     1      17.084   9.235   2.148 -0.47 +0.00    +0.033 A 
ATOM     38  C1  UNL     1      17.902   8.228   2.708 -0.43 +0.00    +0.018 A 
ATOM     39  C2  UNL     1      19.295   8.274   2.580 +5.21 +0.00    +0.013 A 
ATOM     40  C3  UNL     1      19.857   9.332   1.881 +0.60 +0.00    +0.003 A 
ATOM     41  C4  UNL     1      19.047  10.303   1.328 -0.43 +0.00    +0.050 A 
ATOM     42  C28 UNL     1      21.288   9.653   1.573 -0.25 +0.00    +0.159 A 
ATOM     43  C5  UNL     1      17.665  10.288   1.433 -0.45 +0.00    +0.035 A 
ATOM     44  C27 UNL     1      19.880  11.283   0.652 -0.34 +0.00    +0.295 A 
ATOM     45  O8  UNL     1      19.486  12.272   0.069 -0.51 -0.00    -0.259 OA
ATOM     46  O9  UNL     1      21.176  10.884   0.805 -0.27 -0.00    -0.291 OA
ATOM     47  C29 UNL     1      22.096   9.935   2.825 -0.36 +0.00    +0.020 A 
ATOM     48  C36 UNL     1      21.941   8.597   0.703 +1.40 +0.00    +0.020 A 
ATOM     49  C30 UNL     1      23.021   8.983   3.267 -0.38 +0.00    +0.088 A 
ATOM     50  C34 UNL     1      21.915  11.101   3.594 +2.17 +0.00    +0.016 A 
ATOM     51  C31 UNL     1      23.738   9.169   4.453 -0.43 +0.00    +0.074 A 
ATOM     52  O11 UNL     1      23.281   7.816   2.587 -0.03 -0.00    -0.309 OA
ATOM     53  C32 UNL     1      23.540  10.327   5.194 -0.03 +0.00    +0.068 A 
ATOM     54  C33 UNL     1      22.637  11.294   4.773 +2.59 +0.00    +0.037 A 
ATOM     55  C35 UNL     1      22.877   7.727   1.276 +0.20 +0.00    +0.088 A 
ATOM     56  C40 UNL     1      23.454   6.696   0.530 -0.38 +0.00    +0.074 A 
ATOM     57  C39 UNL     1      23.106   6.543  -0.806 -0.43 +0.00    +0.068 A 
ATOM     58  C38 UNL     1      22.189   7.399  -1.402 +0.39 +0.00    +0.037 A 
ATOM     59  C37 UNL     1      21.605   8.421  -0.652 +2.09 +0.00    +0.016 A 
BRANCH  53  60
ATOM     60  O10 UNL     1      24.219  10.556   6.353 +6.76 -0.00    -0.361 OA
ATOM     61  H33 UNL     1      24.486  11.491   6.383 +0.47 +0.00    +0.217 HD
ENDBRANCH  53  60
BRANCH  57  62
ATOM     62  O12 UNL     1      23.646   5.556  -1.576 +0.23 -0.00    -0.361 OA
ATOM     63  H34 UNL     1      24.557   5.800  -1.807 +0.15 +0.00    +0.217 HD
ENDBRANCH  57  62
ENDBRANCH  34  37
ENDBRANCH   1  33
TORSDOF 17
TER
