USER    Run = 1
USER    DPF = ligand_525_receptor.dpf
USER  
USER    Estimated Free Energy of Binding    = +484.33 kcal/mol  [=(1)+(2)+(3)-(4)]
USER    
USER    (1) Final Intermolecular Energy     = +483.14 kcal/mol
USER        vdW + Hbond + desolv Energy     = +483.14 kcal/mol
USER        Electrostatic Energy            =   +0.00 kcal/mol
USER    (2) Final Total Internal Energy     =  +16.38 kcal/mol
USER    (3) Torsional Free Energy           =   +1.19 kcal/mol
USER    (4) Unbound System's Energy  [=(2)] =  +16.38 kcal/mol
USER    
USER    
USER    NEWDPF move ligand_525.pdbqt
USER    NEWDPF about 0.000000 0.000000 0.000000
USER    NEWDPF tran0 16.552188 7.817711 5.325475
USER    NEWDPF quaternion0 0.653339 -0.170085 -0.086881 0.732578
USER    NEWDPF axisangle0 0.959829 -0.249874 -0.127638 85.794111
USER    NEWDPF quat0 0.959829 -0.249874 -0.127638 85.794111
USER    NEWDPF dihe0 -3.97 -75.21 18.73 40.45 -36.58 -137.56 -179.98 -26.07 -180.00 144.19 -157.62 -50.89 11.39 140.12 140.13 160.35 180.00 -180.00 0.93 -74.54 
USER  keepresnum = 1 
USER  
REMARK  20 active torsions:
REMARK  status: ('A' for Active; 'I' for Inactive)
REMARK    1  A    between atoms: C2_2  and  C10_10 
REMARK    2  A    between atoms: C3_3  and  C4_4 
REMARK    3  A    between atoms: C7_7  and  O1_45 
REMARK       I    between atoms: C10_10  and  N1_57 
REMARK    4  A    between atoms: C11_11  and  N1_57 
REMARK    5  A    between atoms: C13_13  and  C16_16 
REMARK       I    between atoms: C16_16  and  N3_60 
REMARK    6  A    between atoms: C17_17  and  C18_18 
REMARK    7  A    between atoms: C17_17  and  C21_21 
REMARK    8  A    between atoms: C17_17  and  N3_60 
REMARK    9  A    between atoms: C18_18  and  C19_19 
REMARK       I    between atoms: C21_21  and  N7_66 
REMARK   10  A    between atoms: C22_22  and  N7_66 
REMARK   11  A    between atoms: C25_25  and  C28_28 
REMARK       I    between atoms: C28_28  and  N8_67 
REMARK   12  A    between atoms: C29_29  and  N8_67 
REMARK   13  A    between atoms: C30_30  and  O12_56 
REMARK   14  A    between atoms: C31_31  and  O11_55 
REMARK   15  A    between atoms: C32_32  and  C35_35 
REMARK       I    between atoms: C35_35  and  N9_68 
REMARK   16  A    between atoms: C36_36  and  N9_68 
REMARK   17  A    between atoms: C37_37  and  O10_54 
REMARK   18  A    between atoms: C38_38  and  O9_53 
REMARK   19  A    between atoms: C39_39  and  C42_42 
REMARK   20  A    between atoms: C42_42  and  O8_52 
USER                              x       y       z     vdW  Elec       q    Type
USER                           _______ _______ _______ _____ _____    ______ ____
ROOT
ATOM      1  C21 UNL     1      20.210   8.092   9.411+13.26 +0.00    +0.245 C 
ATOM      2  O4  UNL     1      19.610   9.113   9.736+10.45 -0.00    -0.271 OA
ATOM      3  N7  UNL     1      19.628   6.902   8.996 +7.36 -0.00    -0.325 N 
ATOM      4  H37 UNL     1      20.281   6.180   8.684 +0.33 +0.00    +0.169 HD
ENDROOT
BRANCH   3   5
ATOM      5  C22 UNL     1      18.261   6.598   8.879+46.01 +0.00    +0.034 A 
ATOM      6  C23 UNL     1      17.711   6.629   7.591+97.96 +0.00    +0.030 A 
ATOM      7  C24 UNL     1      16.357   6.345   7.387+17.90 +0.00    +0.019 A 
ATOM      8  C25 UNL     1      15.533   6.035   8.472+12.88 +0.00    +0.032 A 
ATOM      9  C26 UNL     1      16.082   5.978   9.758+51.94 +0.00    +0.019 A 
ATOM     10  C27 UNL     1      17.439   6.265   9.958+99.99 +0.00    +0.030 A 
BRANCH   8  11
ATOM     11  C28 UNL     1      14.092   5.745   8.213 -0.44 +0.00    +0.256 C 
ATOM     12  O5  UNL     1      13.276   6.031   9.081 -0.33 -0.00    -0.267 OA
ATOM     13  N8  UNL     1      13.827   5.140   7.001 -0.33 -0.00    -0.320 N 
ATOM     14  H38 UNL     1      14.615   4.845   6.435 +0.14 +0.00    +0.169 HD
BRANCH  13  15
ATOM     15  C29 UNL     1      12.571   4.747   6.487 -0.44 +0.00    +0.071 A 
ATOM     16  C30 UNL     1      11.435   5.025   7.263 -0.33 +0.00    +0.129 A 
ATOM     17  C31 UNL     1      10.141   4.755   6.792 -0.31 +0.00    +0.117 A 
ATOM     18  C32 UNL     1       9.955   4.121   5.559 -0.36 +0.00    +0.068 A 
ATOM     19  C33 UNL     1      11.099   3.796   4.808 -0.32 +0.00    +0.022 A 
ATOM     20  C34 UNL     1      12.390   4.111   5.262 +0.76 +0.00    +0.034 A 
BRANCH  16  21
ATOM     21  O12 UNL     1      11.573   5.624   8.501 -0.15 -0.00    -0.351 OA
ATOM     22  C44 UNL     1      11.588   4.616   9.521 +1.98 +0.00    +0.210 C 
ENDBRANCH  16  21
BRANCH  17  23
ATOM     23  O11 UNL     1       9.076   5.138   7.569 -0.23 -0.00    -0.357 OA
ATOM     24  H33 UNL     1       9.143   4.624   8.399 +0.15 +0.00    +0.217 HD
ENDBRANCH  17  23
BRANCH  18  25
ATOM     25  C35 UNL     1       8.620   3.767   4.972 -0.24 +0.00    +0.259 C 
ATOM     26  O6  UNL     1       7.745   3.343   5.723 -0.02 -0.00    -0.267 OA
ATOM     27  N9  UNL     1       8.481   3.953   3.614 -0.11 -0.00    -0.320 N 
ATOM     28  H39 UNL     1       9.293   4.315   3.113 +0.03 +0.00    +0.169 HD
BRANCH  27  29
ATOM     29  C36 UNL     1       7.362   3.696   2.792 -0.16 +0.00    +0.071 A 
ATOM     30  C37 UNL     1       6.920   4.745   1.957 -0.08 +0.00    +0.129 A 
ATOM     31  C38 UNL     1       5.837   4.548   1.084 -0.10 +0.00    +0.118 A 
ATOM     32  C39 UNL     1       5.164   3.315   1.074 -0.08 +0.00    +0.073 A 
ATOM     33  C40 UNL     1       5.589   2.288   1.927 -0.17 +0.00    +0.023 A 
ATOM     34  C41 UNL     1       6.683   2.477   2.776 -0.24 +0.00    +0.034 A 
BRANCH  30  35
ATOM     35  O10 UNL     1       7.657   5.910   2.024 -0.07 -0.00    -0.351 OA
ATOM     36  C43 UNL     1       6.932   7.034   2.519 -0.23 +0.00    +0.210 C 
ENDBRANCH  30  35
BRANCH  31  37
ATOM     37  O9  UNL     1       5.478   5.570   0.237 -0.16 -0.00    -0.357 OA
ATOM     38  H32 UNL     1       4.500   5.605   0.163 +0.04 +0.00    +0.217 HD
ENDBRANCH  31  37
BRANCH  32  39
ATOM     39  C42 UNL     1       4.020   3.108   0.157 -0.08 +0.00    +0.179 C 
ATOM     40  O7  UNL     1       3.368   2.078   0.097 +0.02 -0.00    -0.646 OA
BRANCH  39  41
ATOM     41  O8  UNL     1       3.747   4.164  -0.624 -0.10 -0.00    -0.773 OA
ATOM     42  H31 UNL     1       3.472   3.780  -1.483 +0.01 +0.00    +0.167 HD
ENDBRANCH  39  41
ENDBRANCH  32  39
ENDBRANCH  27  29
ENDBRANCH  18  25
ENDBRANCH  13  15
ENDBRANCH   8  11
ENDBRANCH   3   5
BRANCH   1  43
ATOM     43  C17 UNL     1      21.753   8.020   9.399 +9.90 +0.00    +0.183 C 
BRANCH  43  44
ATOM     44  C18 UNL     1      22.350   9.205  10.167+23.02 +0.00    +0.095 C 
BRANCH  44  45
ATOM     45  C19 UNL     1      21.727  10.499   9.775 +0.19 +0.00    +0.046 A 
ATOM     46  C20 UNL     1      20.397  10.933   9.933 +0.14 +0.00    +0.135 A 
ATOM     47  N6  UNL     1      20.258  12.166   9.438 -0.34 -0.00    -0.296 N 
ATOM     48  N5  UNL     1      21.505  12.419   9.006 -0.41 -0.00    -0.243 N 
ATOM     49  H6  UNL     1      19.428  12.757   9.398 -0.17 +0.00    +0.187 HD
ATOM     50  N4  UNL     1      22.436  11.463   9.170 -0.39 -0.00    -0.289 N 
ATOM     51  H36 UNL     1      21.737  13.307   8.566 +0.10 +0.00    +0.208 HD
ATOM     52  H4  UNL     1      23.420  11.468   8.904 +0.01 +0.00    +0.188 HD
ENDBRANCH  44  45
ENDBRANCH  43  44
BRANCH  43  53
ATOM     53  N3  UNL     1      22.211   7.992   8.006 +1.24 -0.00    -0.342 N 
ATOM     54  C16 UNL     1      22.279   9.118   7.216 +4.85 +0.00    +0.268 C 
ATOM     55  O3  UNL     1      21.960  10.233   7.614 -0.33 -0.00    -0.266 OA
ATOM     56  H35 UNL     1      22.695   7.174   7.640 +0.25 +0.00    +0.163 HD
BRANCH  54  57
ATOM     57  C13 UNL     1      22.831   8.877   5.846+10.85 +0.00    +0.100 A 
ATOM     58  C14 UNL     1      23.927   8.045   5.672+11.45 +0.00    +0.037 A 
ATOM     59  C15 UNL     1      24.401   7.846   4.375 +3.01 +0.00    +0.033 A 
ATOM     60  C11 UNL     1      23.775   8.474   3.295 -0.23 +0.00    +0.050 A 
ATOM     61  C12 UNL     1      22.680   9.290   3.578 -0.36 +0.00    +0.118 A 
ATOM     62  N2  UNL     1      22.190   9.508   4.826 +0.72 -0.00    -0.359 N 
ATOM     63  H2  UNL     1      21.385  10.112   4.991 +3.54 +0.00    +0.165 HD
BRANCH  60  64
ATOM     64  N1  UNL     1      24.302   8.236   2.007 -0.18 -0.00    -0.322 N 
ATOM     65  C10 UNL     1      23.950   8.886   0.842 -0.30 +0.00    +0.251 C 
ATOM     66  O2  UNL     1      23.095   9.759   0.745 -0.30 -0.00    -0.268 OA
ATOM     67  H34 UNL     1      24.974   7.485   1.937 +0.14 +0.00    +0.169 HD
BRANCH  65  68
ATOM     68  C2  UNL     1      24.716   8.427  -0.368 -0.12 +0.00    +0.007 C 
ATOM     69  C1  UNL     1      24.290   8.901  -1.727+11.65 +0.00    +0.054 C 
ATOM     70  C3  UNL     1      25.706   7.544  -0.129 -0.42 +0.00    +0.023 C 
BRANCH  70  71
ATOM     71  C4  UNL     1      26.561   6.950  -1.159 -0.27 -0.00    -0.035 A 
ATOM     72  C5  UNL     1      26.384   5.618  -1.556 -0.36 +0.00    +0.014 A 
ATOM     73  C6  UNL     1      27.205   5.061  -2.539 +1.41 +0.00    +0.037 A 
ATOM     74  C7  UNL     1      28.200   5.842  -3.120 +5.01 +0.00    +0.065 A 
ATOM     75  C8  UNL     1      28.384   7.166  -2.737 +2.88 +0.00    +0.037 A 
ATOM     76  C9  UNL     1      27.562   7.723  -1.756 +1.19 +0.00    +0.014 A 
BRANCH  74  77
ATOM     77  O1  UNL     1      29.025   5.340  -4.083 -0.09 -0.00    -0.361 OA
ATOM     78  H30 UNL     1      29.935   5.619  -3.890 +0.05 +0.00    +0.217 HD
ENDBRANCH  74  77
ENDBRANCH  70  71
ENDBRANCH  65  68
ENDBRANCH  60  64
ENDBRANCH  54  57
ENDBRANCH  43  53
ENDBRANCH   1  43
TORSDOF 20
TER
