USER    Run = 1
USER    DPF = ligand_113_receptor.dpf
USER  
USER    Estimated Free Energy of Binding    =  +50.95 kcal/mol  [=(1)+(2)+(3)-(4)]
USER    
USER    (1) Final Intermolecular Energy     =  +49.76 kcal/mol
USER        vdW + Hbond + desolv Energy     =  +49.76 kcal/mol
USER        Electrostatic Energy            =   +0.00 kcal/mol
USER    (2) Final Total Internal Energy     =   +2.44 kcal/mol
USER    (3) Torsional Free Energy           =   +1.19 kcal/mol
USER    (4) Unbound System's Energy  [=(2)] =   +2.44 kcal/mol
USER    
USER    
USER    NEWDPF move ligand_113.pdbqt
USER    NEWDPF about 0.000000 0.000000 0.000000
USER    NEWDPF tran0 16.413182 7.348872 2.521341
USER    NEWDPF quaternion0 0.767292 -0.171838 0.003196 0.617838
USER    NEWDPF axisangle0 0.975820 -0.218539 0.004064 103.683114
USER    NEWDPF quat0 0.975820 -0.218539 0.004064 103.683114
USER    NEWDPF dihe0 36.51 167.53 178.91 -177.73 135.81 66.32 125.39 179.86 101.64 29.69 149.56 149.56 -165.14 -178.57 153.41 -40.34 -23.56 7.04 67.81 -49.79 
USER  keepresnum = 1 
USER  
REMARK  20 active torsions:
REMARK  status: ('A' for Active; 'I' for Inactive)
REMARK    1  A    between atoms: C2_2  and  O1_61 
REMARK    2  A    between atoms: C3_3  and  O1_61 
REMARK    3  A    between atoms: C5_5  and  C54_54 
REMARK    4  A    between atoms: C7_7  and  N1_69 
REMARK    5  A    between atoms: C9_9  and  N2_71 
REMARK    6  A    between atoms: C10_10  and  O7_67 
REMARK    7  A    between atoms: C11_11  and  C19_19 
REMARK       I    between atoms: C19_19  and  N3_73 
REMARK    8  A    between atoms: C20_20  and  N3_73 
REMARK    9  A    between atoms: C23_23  and  N4_74 
REMARK   10  A    between atoms: C26_26  and  C27_27 
REMARK       I    between atoms: C26_26  and  N4_74 
REMARK   11  A    between atoms: C35_35  and  N5_75 
REMARK   12  A    between atoms: C36_36  and  O4_64 
REMARK   13  A    between atoms: C37_37  and  N6_77 
REMARK   14  A    between atoms: C39_39  and  O6_66 
REMARK   15  A    between atoms: C41_41  and  C43_43 
REMARK   16  A    between atoms: C43_43  and  O5_65 
REMARK   17  A    between atoms: C44_44  and  N7_79 
REMARK   18  A    between atoms: C50_50  and  O6_66 
REMARK   19  A    between atoms: C54_54  and  O8_68 
REMARK   20  A    between atoms: C55_55  and  N8_81 
USER                              x       y       z     vdW  Elec       q    Type
USER                           _______ _______ _______ _____ _____    ______ ____
ROOT
ATOM      1  C20 UNL     1      17.419   8.566   1.517 -0.40 +0.00    +0.041 C 
ATOM      2  C21 UNL     1      16.858   8.278   0.253 -0.36 -0.00    -0.027 C 
ATOM      3  C22 UNL     1      15.484   7.874   0.167 +0.29 -0.00    -0.027 C 
ATOM      4  C23 UNL     1      14.717   7.765   1.348 +7.69 +0.00    +0.041 C 
ATOM      5  C24 UNL     1      15.259   8.209   2.557 -0.12 +0.00    +0.032 C 
ATOM      6  C25 UNL     1      16.591   8.604   2.642 -0.57 +0.00    +0.032 C 
ATOM      7  C52 UNL     1      14.868   7.633  -1.192+20.73 +0.00    +0.051 C 
ATOM      8  C53 UNL     1      17.659   8.443  -1.019 +0.97 +0.00    +0.051 C 
ENDROOT
BRANCH   1   9
ATOM      9  N3  UNL     1      18.780   8.876   1.760 +0.76 -0.00    -0.322 N 
ATOM     10  C19 UNL     1      19.651   9.422   0.833 +2.70 +0.00    +0.259 C 
ATOM     11  O2  UNL     1      19.409   9.661  -0.345 +0.35 -0.00    -0.267 OA
ATOM     12  H49 UNL     1      19.225   8.323   2.481 +0.13 +0.00    +0.169 HD
BRANCH  10  13
ATOM     13  C11 UNL     1      21.046   9.642   1.311 -0.21 +0.00    +0.068 A 
ATOM     14  C10 UNL     1      22.125   9.133   0.577 -0.21 +0.00    +0.110 A 
ATOM     15  C9  UNL     1      23.449   9.319   1.023 -0.37 +0.00    +0.093 A 
ATOM     16  C18 UNL     1      23.693  10.022   2.234 -0.08 +0.00    +0.005 A 
ATOM     17  C13 UNL     1      22.599  10.561   2.954 +2.91 -0.00    -0.022 A 
ATOM     18  C17 UNL     1      24.992  10.218   2.757 -0.54 +0.00    +0.014 A 
ATOM     19  C12 UNL     1      21.292  10.373   2.481 -0.26 +0.00    +0.032 A 
ATOM     20  C14 UNL     1      22.830  11.279   4.140 +0.84 +0.00    +0.012 A 
ATOM     21  C15 UNL     1      24.123  11.461   4.629 +4.61 +0.00    +0.001 A 
ATOM     22  C16 UNL     1      25.204  10.928   3.940 +5.18 +0.00    +0.001 A 
BRANCH  14  23
ATOM     23  O7  UNL     1      21.932   8.429  -0.592 -0.07 -0.00    -0.357 OA
ATOM     24  H47 UNL     1      21.329   8.946  -1.171 +0.23 +0.00    +0.217 HD
ENDBRANCH  14  23
BRANCH  15  25
ATOM     25  N2  UNL     1      24.520   8.771   0.282 -0.10 -0.00    -0.297 N 
ATOM     26  N1  UNL     1      25.122   7.918   0.974 -0.18 -0.00    -0.300 N 
ATOM     27  H1  UNL     1      24.854   7.637   1.917 +0.15 +0.00    +0.187 HD
ATOM     28  H2  UNL     1      24.767   9.031  -0.673 +0.19 +0.00    +0.187 HD
BRANCH  26  29
ATOM     29  C7  UNL     1      26.221   7.403   0.263 -0.35 +0.00    +0.051 A 
ATOM     30  C6  UNL     1      26.130   6.195  -0.438 -0.35 +0.00    +0.046 A 
ATOM     31  C5  UNL     1      27.228   5.711  -1.154 -0.30 +0.00    +0.020 A 
ATOM     32  C4  UNL     1      28.415   6.454  -1.173 -0.24 +0.00    +0.052 A 
ATOM     33  C3  UNL     1      28.512   7.672  -0.496 -0.25 +0.00    +0.071 A 
ATOM     34  C8  UNL     1      27.411   8.141   0.220 -0.31 +0.00    +0.067 A 
BRANCH  31  35
ATOM     35  C54 UNL     1      27.170   4.431  -1.899 -0.25 +0.00    +0.151 C 
ATOM     36  N8  UNL     1      26.429   3.431  -1.549 -0.04 -0.00    -0.336 N 
ATOM     37  H8  UNL     1      25.843   3.502  -0.717 +0.11 +0.00    +0.168 HD
BRANCH  35  38
ATOM     38  O8  UNL     1      27.978   4.436  -2.978 +0.04 -0.00    -0.345 OA
ATOM     39  H48 UNL     1      28.291   5.331  -3.174 +0.09 +0.00    +0.219 HD
ENDBRANCH  35  38
BRANCH  36  40
ATOM     40  C55 UNL     1      26.426   2.253  -2.301 +0.20 +0.00    +0.034 A 
ATOM     41  C56 UNL     1      27.382   2.051  -3.299 -0.28 +0.00    +0.029 A 
ATOM     42  C57 UNL     1      27.385   0.872  -4.046 -0.23 +0.00    +0.002 A 
ATOM     43  C58 UNL     1      26.423  -0.108  -3.804 -0.25 +0.00    +0.000 A 
ATOM     44  C59 UNL     1      25.454   0.094  -2.821 -0.01 +0.00    +0.002 A 
ATOM     45  C60 UNL     1      25.454   1.274  -2.076 +4.29 +0.00    +0.029 A 
ENDBRANCH  36  40
ENDBRANCH  31  35
BRANCH  33  46
ATOM     46  O1  UNL     1      29.727   8.286  -0.604 -0.14 -0.00    -0.351 OA
BRANCH  46  47
ATOM     47  C2  UNL     1      30.885   7.622  -0.099 -0.14 +0.00    +0.171 C 
ATOM     48  C1  UNL     1      31.143   8.011   1.346 -0.30 +0.00    +0.034 C 
ENDBRANCH  46  47
ENDBRANCH  33  46
ENDBRANCH  26  29
ENDBRANCH  15  25
ENDBRANCH  10  13
ENDBRANCH   1   9
BRANCH   4  49
ATOM     49  N4  UNL     1      13.396   7.271   1.436 +1.09 -0.00    -0.322 N 
ATOM     50  C26 UNL     1      12.556   6.965   0.382 +0.11 +0.00    +0.259 C 
ATOM     51  O3  UNL     1      12.819   7.105  -0.809 -0.49 -0.00    -0.267 OA
ATOM     52  H50 UNL     1      13.151   6.800   2.304 -0.15 +0.00    +0.169 HD
BRANCH  50  53
ATOM     53  C27 UNL     1      11.226   6.374   0.749 -0.31 +0.00    +0.068 A 
ATOM     54  C28 UNL     1      10.318   6.137  -0.297 -0.26 +0.00    +0.032 A 
ATOM     55  C29 UNL     1       9.047   5.586  -0.065 -0.17 -0.00    -0.022 A 
ATOM     56  C30 UNL     1       8.165   5.356  -1.133 -0.02 +0.00    +0.012 A 
ATOM     57  C34 UNL     1       8.655   5.258   1.253 -0.16 +0.00    +0.005 A 
ATOM     58  C31 UNL     1       6.902   4.806  -0.914 +0.17 +0.00    +0.001 A 
ATOM     59  C32 UNL     1       6.505   4.479   0.376 -0.13 +0.00    +0.001 A 
ATOM     60  C33 UNL     1       7.371   4.702   1.448 -0.12 +0.00    +0.014 A 
ATOM     61  C35 UNL     1       9.560   5.500   2.316 -0.15 +0.00    +0.093 A 
ATOM     62  C36 UNL     1      10.835   6.043   2.049 -0.17 +0.00    +0.110 A 
BRANCH  61  63
ATOM     63  N5  UNL     1       9.230   5.156   3.648 -0.08 -0.00    -0.297 N 
ATOM     64  N6  UNL     1       9.655   6.032   4.433 -0.10 -0.00    -0.300 N 
ATOM     65  H6  UNL     1      10.157   6.871   4.140 +0.11 +0.00    +0.187 HD
ATOM     66  H5  UNL     1       8.722   4.317   3.927 +0.10 +0.00    +0.187 HD
BRANCH  64  67
ATOM     67  C37 UNL     1       9.354   5.716   5.772 -0.21 +0.00    +0.051 A 
ATOM     68  C38 UNL     1      10.307   5.774   6.799 -0.26 +0.00    +0.067 A 
ATOM     69  C39 UNL     1       9.982   5.436   8.118 +0.26 +0.00    +0.071 A 
ATOM     70  C40 UNL     1       8.686   5.025   8.415 -0.41 +0.00    +0.052 A 
ATOM     71  C41 UNL     1       7.732   4.939   7.395 -0.47 +0.00    +0.020 A 
ATOM     72  C42 UNL     1       8.064   5.284   6.081 -0.26 +0.00    +0.046 A 
BRANCH  69  73
ATOM     73  O6  UNL     1      11.020   5.555   8.999 +0.19 -0.00    -0.351 OA
BRANCH  73  74
ATOM     74  C50 UNL     1      12.284   6.019   8.528 -0.26 +0.00    +0.171 C 
ATOM     75  C51 UNL     1      13.177   4.856   8.135 -0.61 +0.00    +0.034 C 
ENDBRANCH  73  74
ENDBRANCH  69  73
BRANCH  71  76
ATOM     76  C43 UNL     1       6.358   4.504   7.693 +0.42 +0.00    +0.151 C 
ATOM     77  N7  UNL     1       5.256   5.149   7.863 +0.78 -0.00    -0.336 N 
ATOM     78  H7  UNL     1       4.387   4.635   8.007 +0.07 +0.00    +0.168 HD
BRANCH  76  79
ATOM     79  O5  UNL     1       6.300   3.164   7.773 +0.86 -0.00    -0.345 OA
ATOM     80  H46 UNL     1       6.828   2.817   7.033 -0.09 +0.00    +0.219 HD
ENDBRANCH  76  79
BRANCH  77  81
ATOM     81  C44 UNL     1       5.238   6.550   7.853 +0.47 +0.00    +0.034 A 
ATOM     82  C45 UNL     1       6.269   7.302   8.426 +2.75 +0.00    +0.029 A 
ATOM     83  C46 UNL     1       6.213   8.697   8.425 +1.76 +0.00    +0.002 A 
ATOM     84  C47 UNL     1       5.115   9.351   7.868 +0.62 +0.00    +0.000 A 
ATOM     85  C48 UNL     1       4.070   8.609   7.318 -0.18 +0.00    +0.002 A 
ATOM     86  C49 UNL     1       4.131   7.214   7.318 -0.29 +0.00    +0.029 A 
ENDBRANCH  77  81
ENDBRANCH  71  76
ENDBRANCH  64  67
ENDBRANCH  61  63
BRANCH  62  87
ATOM     87  O4  UNL     1      11.698   6.228   3.111 -0.19 -0.00    -0.357 OA
ATOM     88  H45 UNL     1      11.885   5.330   3.462 +0.02 +0.00    +0.217 HD
ENDBRANCH  62  87
ENDBRANCH  50  53
ENDBRANCH   4  49
TORSDOF 20
TER
