USER    Run = 1
USER    DPF = ligand_50_receptor.dpf
USER  
USER    Estimated Free Energy of Binding    =  +3.44e+004 kcal/mol  [=(1)+(2)+(3)-(4)]
USER    
USER    (1) Final Intermolecular Energy     =  +3.44e+004 kcal/mol
USER        vdW + Hbond + desolv Energy     =  +3.44e+004 kcal/mol
USER        Electrostatic Energy            =   +0.00 kcal/mol
USER    (2) Final Total Internal Energy     =   +0.00 kcal/mol
USER    (3) Torsional Free Energy           =   +1.19 kcal/mol
USER    (4) Unbound System's Energy  [=(2)] =   +0.00 kcal/mol
USER    
USER    
USER    NEWDPF move ligand_50.pdbqt
USER    NEWDPF about 0.000000 0.000000 0.000000
USER    NEWDPF tran0 13.536984 6.555650 3.365776
USER    NEWDPF quaternion0 0.086401 -0.261247 0.067466 -0.959027
USER    NEWDPF axisangle0 0.304965 -0.922111 0.238133 -32.916201
USER    NEWDPF quat0 0.304965 -0.922111 0.238133 -32.916201
USER  keepresnum = 1 
USER  
REMARK  0 active torsions:
REMARK  status: ('A' for Active; 'I' for Inactive)
REMARK       I    between atoms: O11_11  and  C23_44 
REMARK       I    between atoms: O12_12  and  C28_49 
REMARK       I    between atoms: O14_14  and  C38_59 
REMARK       I    between atoms: O19_19  and  C54_75 
REMARK       I    between atoms: O21_21  and  C65_86 
REMARK       I    between atoms: C1_22  and  C45_66 
REMARK       I    between atoms: C1_22  and  N1_88 
REMARK       I    between atoms: C2_23  and  C3_24 
REMARK       I    between atoms: C2_23  and  C40_61 
REMARK       I    between atoms: C2_23  and  N1_88 
REMARK       I    between atoms: C3_24  and  N2_89 
REMARK       I    between atoms: C4_25  and  N2_89 
REMARK       I    between atoms: C6_27  and  C38_59 
REMARK       I    between atoms: C10_31  and  C34_55 
REMARK       I    between atoms: C13_34  and  C31_52 
REMARK       I    between atoms: C15_36  and  C23_44 
REMARK       I    between atoms: C23_44  and  C25_46 
REMARK       I    between atoms: C31_52  and  C32_53 
REMARK       I    between atoms: C32_53  and  C33_54 
REMARK       I    between atoms: C33_54  and  N9_96 
REMARK       I    between atoms: C34_55  and  C35_56 
REMARK       I    between atoms: C40_61  and  C42_63 
REMARK       I    between atoms: C42_63  and  C43_64 
REMARK       I    between atoms: C43_64  and  N10_97 
REMARK       I    between atoms: C45_66  and  N11_98 
REMARK       I    between atoms: C48_69  and  C49_70 
REMARK       I    between atoms: C48_69  and  N11_98 
REMARK       I    between atoms: C49_70  and  C65_86 
REMARK       I    between atoms: C49_70  and  N12_99 
REMARK       I    between atoms: C50_71  and  C51_72 
REMARK       I    between atoms: C50_71  and  N12_99 
REMARK       I    between atoms: C51_72  and  C63_84 
REMARK       I    between atoms: C51_72  and  N13_100 
REMARK       I    between atoms: C52_73  and  C53_74 
REMARK       I    between atoms: C52_73  and  N13_100 
REMARK       I    between atoms: C53_74  and  C54_75 
REMARK       I    between atoms: C54_75  and  C55_76 
REMARK       I    between atoms: C56_77  and  C57_78 
REMARK       I    between atoms: C57_78  and  C59_80 
REMARK       I    between atoms: C59_80  and  C60_81 
REMARK       I    between atoms: C63_84  and  C64_85 
REMARK       I    between atoms: C64_85  and  N14_101 
USER                              x       y       z     vdW  Elec       q    Type
USER                           _______ _______ _______ _____ _____    ______ ____
ROOT
ATOM      1  O1  UNL     1      13.732   5.579   6.324 -0.37 -0.00    -0.266 OA
ATOM      2  O2  UNL     1      14.245   9.418   5.011 +1.39 -0.00    -0.271 OA
ATOM      3  O3  UNL     1      13.425  10.394   1.121+99.99 -0.00    -0.271 OA
ATOM      4  O4  UNL     1      12.693   6.455  -1.166 -0.41 -0.00    -0.271 OA
ATOM      5  O5  UNL     1       8.347   6.952  -1.495 -0.16 -0.00    -0.272 OA
ATOM      6  O6  UNL     1       8.391   3.949  -0.010 -0.06 -0.00    -0.271 OA
ATOM      7  O7  UNL     1      10.097   5.879   1.632 -0.16 -0.00    -0.271 OA
ATOM      8  O8  UNL     1      10.013   7.812   4.175 -0.30 -0.00    -0.271 OA
ATOM      9  O9  UNL     1       9.862   9.642   1.324+99.99 -0.00    -0.263 OA
ATOM     10  O10 UNL     1       9.875  10.854   3.257+99.99 -0.00    -0.312 OA
ATOM     11  O11 UNL     1       7.460   6.317   6.097 +2.29 -0.00    -0.383 OA
ATOM     12  O12 UNL     1       9.520   0.638   8.051+99.99 -0.00    -0.361 OA
ATOM     13  O13 UNL     1       7.699   2.616   3.590 -0.22 -0.00    -0.280 OA
ATOM     14  O14 UNL     1      14.595   6.453   2.642+99.99 -0.00    -0.393 OA
ATOM     15  O15 UNL     1       9.916  10.760   8.672+15.75 -0.00    -0.273 OA
ATOM     16  O16 UNL     1      18.661   7.682   6.199+99.99 -0.00    -0.271 OA
ATOM     17  O17 UNL     1      18.781   8.160   2.524 +0.34 -0.00    -0.271 OA
ATOM     18  O18 UNL     1      23.548   8.471   1.640 -0.28 -0.00    -0.274 OA
ATOM     19  O19 UNL     1      24.362   5.876   0.275 -0.22 -0.00    -0.391 OA
ATOM     20  O20 UNL     1      21.421   9.623   5.712+19.68 -0.00    -0.274 OA
ATOM     21  O21 UNL     1      18.389  11.069   6.552+17.75 -0.00    -0.393 OA
ATOM     22  C1  UNL     1      14.386   6.563   6.636 -0.25 +0.00    +0.268 C 
ATOM     23  C2  UNL     1      12.615   8.236   6.383 -0.31 +0.00    +0.181 C 
ATOM     24  C3  UNL     1      13.055   9.141   5.201 +5.15 +0.00    +0.241 C 
ATOM     25  C4  UNL     1      12.332  10.511   3.272+99.99 +0.00    +0.205 C 
ATOM     26  C5  UNL     1      12.845   9.779   2.017+99.99 +0.00    +0.243 C 
ATOM     27  C6  UNL     1      13.221   7.596   0.920+20.27 +0.00    +0.200 C 
ATOM     28  C7  UNL     1      12.368   7.306  -0.331 +1.31 +0.00    +0.243 C 
ATOM     29  C8  UNL     1      10.476   8.083  -1.727 +0.24 +0.00    +0.225 C 
ATOM     30  C9  UNL     1       9.541   6.870  -1.767 -0.22 +0.00    +0.236 C 
ATOM     31  C10 UNL     1       9.570   4.376  -2.077 -0.15 +0.00    +0.177 C 
ATOM     32  C11 UNL     1       9.483   3.957  -0.588 -0.08 +0.00    +0.243 C 
ATOM     33  C12 UNL     1      11.939   3.343  -0.536 +6.01 +0.00    +0.153 C 
ATOM     34  C13 UNL     1      10.618   3.498   1.576+99.99 +0.00    +0.179 C 
ATOM     35  C14 UNL     1      10.058   4.801   2.231 +1.60 +0.00    +0.241 C 
ATOM     36  C15 UNL     1       8.739   5.725   4.116 -0.17 +0.00    +0.210 C 
ATOM     37  C16 UNL     1       9.019   7.210   3.740 -0.16 +0.00    +0.245 C 
ATOM     38  C17 UNL     1       7.214   7.192   1.982 -0.34 +0.00    +0.153 C 
ATOM     39  C18 UNL     1       8.047   9.336   2.945+20.89 +0.00    +0.182 C 
ATOM     40  C19 UNL     1       9.347   9.948   2.393+99.99 +0.00    +0.282 C 
ATOM     41  C20 UNL     1      11.150  11.438   2.905+49.62 +0.00    +0.159 C 
ATOM     42  C21 UNL     1      11.231  12.744   3.696+17.46 +0.00    +0.042 C 
ATOM     43  C22 UNL     1       7.627   9.854   4.323+99.99 +0.00    +0.043 C 
ATOM     44  C23 UNL     1       8.720   5.742   5.684 -0.04 +0.00    +0.185 C 
ATOM     45  C24 UNL     1       7.553   7.009   7.338+87.40 +0.00    +0.202 C 
ATOM     46  C25 UNL     1       8.899   4.377   6.332 -0.38 -0.00    -0.027 A 
ATOM     47  C26 UNL     1       7.816   3.512   6.542 +0.28 +0.00    +0.012 A 
ATOM     48  C27 UNL     1       8.008   2.254   7.120+49.80 +0.00    +0.037 A 
ATOM     49  C28 UNL     1       9.289   1.859   7.491+36.50 +0.00    +0.065 A 
ATOM     50  C29 UNL     1      10.377   2.698   7.293 +0.24 +0.00    +0.037 A 
ATOM     51  C30 UNL     1      10.186   3.953   6.714 -0.46 +0.00    +0.012 A 
ATOM     52  C31 UNL     1      10.158   2.109   2.061+10.88 +0.00    +0.044 C 
ATOM     53  C32 UNL     1       8.765   1.621   1.675 -0.17 +0.00    +0.099 C 
ATOM     54  C33 UNL     1       7.670   2.374   2.389 -0.20 +0.00    +0.195 C 
ATOM     55  C34 UNL     1       8.215   4.294  -2.809 -0.15 +0.00    +0.038 C 
ATOM     56  C35 UNL     1       7.694   2.855  -3.025 -0.16 -0.00    -0.020 C 
ATOM     57  C36 UNL     1       8.588   2.039  -3.960+99.99 +0.00    +0.009 C 
ATOM     58  C37 UNL     1       6.272   2.904  -3.593 -0.17 +0.00    +0.009 C 
ATOM     59  C38 UNL     1      13.705   6.273   1.531+99.99 +0.00    +0.202 C 
ATOM     60  C39 UNL     1      15.903   6.846   2.245+99.99 +0.00    +0.201 C 
ATOM     61  C40 UNL     1      11.650   8.901   7.394 +0.35 +0.00    +0.026 C 
ATOM     62  C41 UNL     1      11.114   7.801   8.338+99.99 +0.00    +0.013 C 
ATOM     63  C42 UNL     1      12.221  10.060   8.269 -0.08 +0.00    +0.080 C 
ATOM     64  C43 UNL     1      11.089  10.756   9.029+11.11 +0.00    +0.219 C 
ATOM     65  C44 UNL     1      12.983  11.147   7.511 +9.78 +0.00    +0.020 C 
ATOM     66  C45 UNL     1      15.892   6.639   6.559 +4.98 +0.00    +0.099 C 
ATOM     67  C46 UNL     1      16.649   5.695   7.139+99.99 +0.00    +0.004 C 
ATOM     68  C47 UNL     1      16.177   4.513   7.928+99.99 +0.00    +0.038 C 
ATOM     69  C48 UNL     1      17.663   8.177   5.676+99.99 +0.00    +0.247 C 
ATOM     70  C49 UNL     1      17.756   9.450   4.796 +0.70 +0.00    +0.205 C 
ATOM     71  C50 UNL     1      19.553   8.796   3.247 -0.15 +0.00    +0.241 C 
ATOM     72  C51 UNL     1      21.084   8.711   3.073 +0.19 +0.00    +0.185 C 
ATOM     73  C52 UNL     1      22.508   8.076   1.122 +0.74 +0.00    +0.221 C 
ATOM     74  C53 UNL     1      22.504   7.369  -0.214 +0.62 +0.00    +0.138 C 
ATOM     75  C54 UNL     1      22.978   5.921  -0.060 -0.16 +0.00    +0.149 C 
ATOM     76  C55 UNL     1      22.149   5.129   0.923+26.56 +0.00    +0.001 C 
ATOM     77  C56 UNL     1      22.593   4.528   2.040 +3.90 -0.00    -0.024 C 
ATOM     78  C57 UNL     1      21.776   3.780   3.078 +5.56 +0.00    +0.004 C 
ATOM     79  C58 UNL     1      22.120   2.291   3.003 +0.66 +0.00    +0.014 C 
ATOM     80  C59 UNL     1      20.251   4.026   2.997+99.99 +0.00    +0.012 C 
ATOM     81  C60 UNL     1      19.406   3.408   4.133+18.57 -0.00    -0.022 C 
ATOM     82  C61 UNL     1      17.930   3.756   3.921+74.01 +0.00    +0.009 C 
ATOM     83  C62 UNL     1      19.847   3.875   5.521+33.89 +0.00    +0.009 C 
ATOM     84  C63 UNL     1      21.674   7.791   4.147+99.99 +0.00    +0.137 C 
ATOM     85  C64 UNL     1      21.845   8.499   5.469+99.99 +0.00    +0.217 C 
ATOM     86  C65 UNL     1      17.348  10.672   5.649 +4.19 +0.00    +0.146 C 
ATOM     87  C66 UNL     1      17.019  11.876   4.776+99.99 +0.00    +0.042 C 
ATOM     88  N1  UNL     1      13.846   7.778   7.021 +0.31 -0.00    -0.342 N 
ATOM     89  N2  UNL     1      12.046   9.625   4.407+23.58 -0.00    -0.344 N 
ATOM     90  N3  UNL     1      12.585   8.434   1.937+57.03 -0.00    -0.344 N 
ATOM     91  N4  UNL     1      11.286   8.122  -0.528+10.32 -0.00    -0.350 N 
ATOM     92  N5  UNL     1      10.187   5.703  -2.141 -0.06 -0.00    -0.346 N 
ATOM     93  N6  UNL     1      10.662   3.647   0.098 +5.30 -0.00    -0.341 N 
ATOM     94  N7  UNL     1       9.692   4.746   3.557 -0.07 -0.00    -0.343 N 
ATOM     95  N8  UNL     1       8.101   7.865   2.923 -0.18 -0.00    -0.341 N 
ATOM     96  N9  UNL     1       6.620   2.760   1.613 -0.06 -0.00    -0.273 NA
ATOM     97  N10 UNL     1      11.475  11.444  10.143+12.19 -0.00    -0.370 N 
ATOM     98  N11 UNL     1      16.364   7.739   5.855+24.07 -0.00    -0.321 N 
ATOM     99  N12 UNL     1      19.118   9.579   4.286 +7.04 -0.00    -0.344 N 
ATOM    100  N13 UNL     1      21.283   8.163   1.728+15.80 -0.00    -0.347 N 
ATOM    101  N14 UNL     1      22.503   7.775   6.419+99.99 -0.00    -0.370 N 
ATOM    102  H1  UNL     1       8.674   0.165   8.108+72.81 +0.00    +0.217 HD
ATOM    103  H2  UNL     1      24.523   6.554   0.960 +0.16 +0.00    +0.210 HD
ATOM    104  H3  UNL     1      18.832  10.274   6.902 +1.55 +0.00    +0.210 HD
ATOM    105  H90 UNL     1      14.527   8.507   7.197 +2.45 +0.00    +0.163 HD
ATOM    106  H91 UNL     1      11.163   9.109   4.400 +0.08 +0.00    +0.163 HD
ATOM    107  H92 UNL     1      11.953   7.996   2.600 -0.01 +0.00    +0.163 HD
ATOM    108  H93 UNL     1      10.916   8.639   0.274 +1.93 +0.00    +0.163 HD
ATOM    109  H94 UNL     1      11.197   5.742  -2.000 +0.08 +0.00    +0.163 HD
ATOM    110  H95 UNL     1       9.501   3.812   3.911 +0.07 +0.00    +0.163 HD
ATOM    111  H96 UNL     1       6.892   3.111   0.691 +0.05 +0.00    +0.127 HD
ATOM    112  H97 UNL     1       5.959   3.363   2.084 +0.05 +0.00    +0.127 HD
ATOM    113  H98 UNL     1      12.392  11.348  10.555 -0.26 +0.00    +0.159 HD
ATOM    114  H99 UNL     1      10.746  11.878  10.694 +2.89 +0.00    +0.159 HD
ATOM    115  HA0 UNL     1      15.636   8.262   5.357 +0.20 +0.00    +0.169 HD
ATOM    116  HA1 UNL     1      19.822   9.917   4.947+83.78 +0.00    +0.163 HD
ATOM    117  HA2 UNL     1      20.457   7.769   1.283+99.99 +0.00    +0.163 HD
ATOM    118  HA3 UNL     1      22.552   8.170   7.349 +0.26 +0.00    +0.159 HD
ATOM    119  HA4 UNL     1      22.645   6.778   6.324+66.31 +0.00    +0.159 HD
ENDROOT
TORSDOF 34
TER
