USER    Run = 1
USER    DPF = ligand_428_receptor.dpf
USER  
USER    Estimated Free Energy of Binding    = +773.17 kcal/mol  [=(1)+(2)+(3)-(4)]
USER    
USER    (1) Final Intermolecular Energy     = +771.98 kcal/mol
USER        vdW + Hbond + desolv Energy     = +771.98 kcal/mol
USER        Electrostatic Energy            =   +0.00 kcal/mol
USER    (2) Final Total Internal Energy     =   +0.00 kcal/mol
USER    (3) Torsional Free Energy           =   +1.19 kcal/mol
USER    (4) Unbound System's Energy  [=(2)] =   +0.00 kcal/mol
USER    
USER    
USER    NEWDPF move ligand_428.pdbqt
USER    NEWDPF about 0.000000 0.000000 0.000000
USER    NEWDPF tran0 12.397316 6.396568 2.769409
USER    NEWDPF quaternion0 0.485302 0.074086 -0.087134 0.866834
USER    NEWDPF axisangle0 0.973335 0.148588 -0.174759 59.814401
USER    NEWDPF quat0 0.973335 0.148588 -0.174759 59.814401
USER  keepresnum = 1 
USER  
REMARK  0 active torsions:
REMARK  status: ('A' for Active; 'I' for Inactive)
REMARK       I    between atoms: C2_2  and  C3_3 
REMARK       I    between atoms: C2_2  and  C5_5 
REMARK       I    between atoms: C3_3  and  C4_4 
REMARK       I    between atoms: C3_3  and  O2_43 
REMARK       I    between atoms: C4_4  and  O1_42 
REMARK       I    between atoms: C5_5  and  C6_6 
REMARK       I    between atoms: C5_5  and  O12_53 
REMARK       I    between atoms: C6_6  and  C7_7 
REMARK       I    between atoms: C6_6  and  O11_52 
REMARK       I    between atoms: C7_7  and  C8_8 
REMARK       I    between atoms: C7_7  and  O10_51 
REMARK       I    between atoms: C8_8  and  N1_54 
REMARK       I    between atoms: C9_9  and  C10_10 
REMARK       I    between atoms: C9_9  and  N1_54 
REMARK       I    between atoms: C10_10  and  C11_11 
REMARK       I    between atoms: C11_11  and  N2_55 
REMARK       I    between atoms: C12_12  and  C13_13 
REMARK       I    between atoms: C12_12  and  C35_35 
REMARK       I    between atoms: C12_12  and  N2_55 
REMARK       I    between atoms: C13_13  and  C14_14 
REMARK       I    between atoms: C14_14  and  C15_15 
REMARK       I    between atoms: C22_22  and  C25_25 
REMARK       I    between atoms: C25_25  and  C26_26 
REMARK       I    between atoms: C26_26  and  C27_27 
REMARK       I    between atoms: C27_27  and  C28_28 
REMARK       I    between atoms: C28_28  and  N3_56 
REMARK       I    between atoms: C29_29  and  N4_58 
REMARK       I    between atoms: C29_29  and  N5_59 
REMARK       I    between atoms: C30_30  and  C31_31 
REMARK       I    between atoms: C30_30  and  N5_59 
REMARK       I    between atoms: C32_32  and  N9_65 
REMARK       I    between atoms: C33_33  and  N8_64 
REMARK       I    between atoms: C35_35  and  N10_66 
REMARK       I    between atoms: C36_36  and  C37_37 
REMARK       I    between atoms: C36_36  and  N1_54 
REMARK       I    between atoms: C37_37  and  C38_38 
REMARK       I    between atoms: C37_37  and  O9_50 
REMARK       I    between atoms: C38_38  and  C39_39 
REMARK       I    between atoms: C38_38  and  O8_49 
REMARK       I    between atoms: C39_39  and  C40_40 
REMARK       I    between atoms: C39_39  and  O7_48 
REMARK       I    between atoms: C40_40  and  C41_41 
REMARK       I    between atoms: C40_40  and  O6_47 
REMARK       I    between atoms: C41_41  and  O5_46 
USER                              x       y       z     vdW  Elec       q    Type
USER                           _______ _______ _______ _____ _____    ______ ____
ROOT
ATOM      1  C1  UNL     1       2.831   3.462  -0.687 -0.10 +0.00    +0.015 C 
ATOM      2  C2  UNL     1       4.106   2.717  -0.272 -0.11 +0.00    +0.044 C 
ATOM      3  C3  UNL     1       3.894   1.191  -0.380 -0.12 +0.00    +0.148 C 
ATOM      4  C4  UNL     1       3.829   0.601  -1.794 -0.07 +0.00    +0.196 C 
ATOM      5  C5  UNL     1       5.353   3.204  -1.044 -0.09 +0.00    +0.155 C 
ATOM      6  C6  UNL     1       5.789   4.660  -0.746 +0.03 +0.00    +0.177 C 
ATOM      7  C7  UNL     1       6.254   4.908   0.698 -0.13 +0.00    +0.177 C 
ATOM      8  C8  UNL     1       6.546   6.406   0.949 -0.19 +0.00    +0.306 C 
ATOM      9  C9  UNL     1       7.852   7.835   2.426 -0.19 +0.00    +0.274 C 
ATOM     10  C10 UNL     1       9.300   7.500   2.034 -0.31 +0.00    +0.060 C 
ATOM     11  C11 UNL     1      10.194   8.736   2.148+42.15 +0.00    +0.272 C 
ATOM     12  C12 UNL     1      12.433   7.619   2.470 +0.34 +0.00    +0.311 C 
ATOM     13  C13 UNL     1      12.356   7.832   3.994 -0.44 +0.00    +0.050 C 
ATOM     14  C14 UNL     1      13.449   7.117   4.806 -0.49 +0.00    +0.042 C 
ATOM     15  C15 UNL     1      14.859   7.530   4.446 -0.44 -0.00    -0.051 A 
ATOM     16  C16 UNL     1      15.429   8.762   4.817 +0.71 -0.00    -0.045 A 
ATOM     17  C17 UNL     1      14.691   9.803   5.631+28.62 +0.00    +0.040 C 
ATOM     18  C18 UNL     1      15.588  10.395   6.718+99.02 +0.00    +0.005 C 
ATOM     19  C19 UNL     1      16.983  10.795   6.228 +9.44 +0.00    +0.005 C 
ATOM     20  C20 UNL     1      17.236  10.486   4.755 +0.34 +0.00    +0.040 C 
ATOM     21  C21 UNL     1      16.744   9.101   4.390 -0.28 -0.00    -0.045 A 
ATOM     22  C22 UNL     1      17.496   8.197   3.614 -0.54 -0.00    -0.051 A 
ATOM     23  C23 UNL     1      16.917   6.968   3.272 +2.12 +0.00    +0.008 A 
ATOM     24  C24 UNL     1      15.625   6.639   3.680+34.50 +0.00    +0.008 A 
ATOM     25  C25 UNL     1      18.904   8.483   3.137 -0.33 +0.00    +0.039 C 
ATOM     26  C26 UNL     1      19.977   8.306   4.219 +1.59 +0.00    +0.006 C 
ATOM     27  C27 UNL     1      20.189   6.869   4.716+99.99 +0.00    +0.020 C 
ATOM     28  C28 UNL     1      20.613   5.865   3.643+43.59 +0.00    +0.122 C 
ATOM     29  C29 UNL     1      22.453   5.583   2.174+31.51 +0.00    +0.153 C 
ATOM     30  C30 UNL     1      24.271   7.240   1.822 -0.03 +0.00    +0.277 C 
ATOM     31  C31 UNL     1      25.706   7.205   1.400 -0.30 +0.00    +0.141 A 
ATOM     32  C32 UNL     1      26.564   8.302   1.613 -0.39 +0.00    +0.112 A 
ATOM     33  C33 UNL     1      28.279   7.112   0.600 -0.25 +0.00    +0.118 A 
ATOM     34  C34 UNL     1      27.390   6.042   0.400 -0.18 +0.00    +0.142 A 
ATOM     35  C35 UNL     1      12.162   6.163   2.030 +0.07 +0.00    +0.248 C 
ATOM     36  C36 UNL     1       5.794   6.794   3.231 +0.79 +0.00    +0.306 C 
ATOM     37  C37 UNL     1       6.125   6.549   4.722 +5.75 +0.00    +0.177 C 
ATOM     38  C38 UNL     1       4.919   6.649   5.679 +1.93 +0.00    +0.179 C 
ATOM     39  C39 UNL     1       3.775   5.656   5.368 -0.16 +0.00    +0.180 C 
ATOM     40  C40 UNL     1       2.760   5.484   6.524 -0.18 +0.00    +0.173 C 
ATOM     41  C41 UNL     1       3.261   4.569   7.648 -0.18 +0.00    +0.198 C 
ATOM     42  O1  UNL     1       3.515  -0.796  -1.683 +4.66 -0.00    -0.398 OA
ATOM     43  O2  UNL     1       4.947   0.530   0.339 +0.21 -0.00    -0.393 OA
ATOM     44  O3  UNL     1      23.775   8.285   2.225 -0.28 -0.00    -0.265 OA
ATOM     45  O4  UNL     1      12.013   5.208   2.783 +3.53 -0.00    -0.271 OA
ATOM     46  O5  UNL     1       4.126   5.308   8.509+23.13 -0.00    -0.398 OA
ATOM     47  O6  UNL     1       2.420   6.775   7.075 -0.10 -0.00    -0.391 OA
ATOM     48  O7  UNL     1       3.032   6.155   4.233 -0.08 -0.00    -0.390 OA
ATOM     49  O8  UNL     1       4.407   7.995   5.665+36.53 -0.00    -0.390 OA
ATOM     50  O9  UNL     1       6.738   5.259   4.857 -0.09 -0.00    -0.391 OA
ATOM     51  O10 UNL     1       7.478   4.176   0.902 -0.00 -0.00    -0.391 OA
ATOM     52  O11 UNL     1       6.893   4.944  -1.640 +2.03 -0.00    -0.390 OA
ATOM     53  O12 UNL     1       5.089   3.134  -2.459 -0.06 -0.00    -0.392 OA
ATOM     54  N1  UNL     1       6.998   6.627   2.356 -0.25 +0.00    +0.093 N 
ATOM     55  N2  UNL     1      11.572   8.549   1.674+62.61 +0.00    +0.097 N 
ATOM     56  N3  UNL     1      21.839   6.328   3.009+40.12 -0.00    -0.367 N 
ATOM     57  H3  UNL     1      22.209   7.252   3.233 +0.23 +0.00    +0.162 HD
ATOM     58  N4  UNL     1      22.089   4.336   1.768+16.05 -0.00    -0.274 NA
ATOM     59  N5  UNL     1      23.617   6.031   1.603 +0.31 -0.00    -0.298 N 
ATOM     60  N6  UNL     1      27.857   8.236   1.215 -0.20 -0.00    -0.334 N 
ATOM     61  H6  UNL     1      28.494   9.016   1.377 +0.12 +0.00    +0.168 HD
ATOM     62  N7  UNL     1      26.096   6.047   0.786 -0.14 -0.00    -0.337 N 
ATOM     63  H7  UNL     1      25.467   5.258   0.634 +0.11 +0.00    +0.167 HD
ATOM     64  N8  UNL     1      29.623   7.075   0.190 -0.10 -0.00    -0.286 NA
ATOM     65  N9  UNL     1      26.192   9.465   2.308 -0.31 -0.00    -0.286 NA
ATOM     66  N10 UNL     1      12.126   5.997   0.670 -0.22 -0.00    -0.368 N 
ATOM     67 CL1  UNL     1      27.872   4.584  -0.374 -0.42 -0.00    -0.061 Cl
ATOM     68  H50 UNL     1       2.569  -0.858  -1.461 +0.05 +0.00    +0.209 HD
ATOM     69  H51 UNL     1       4.930  -0.399   0.033 +0.39 +0.00    +0.210 HD
ATOM     70  H52 UNL     1       4.505   4.672   9.144 +7.51 +0.00    +0.209 HD
ATOM     71  H53 UNL     1       2.839   6.785   7.963 +0.08 +0.00    +0.210 HD
ATOM     72  H54 UNL     1       2.783   7.071   4.473 +0.06 +0.00    +0.210 HD
ATOM     73  H55 UNL     1       3.653   7.996   6.294 +0.09 +0.00    +0.210 HD
ATOM     74  H56 UNL     1       7.388   5.221   4.127 +0.11 +0.00    +0.210 HD
ATOM     75  H57 UNL     1       7.846   4.534   1.736 +0.09 +0.00    +0.210 HD
ATOM     76  H58 UNL     1       7.667   4.523  -1.205 +0.01 +0.00    +0.210 HD
ATOM     77  H59 UNL     1       5.804   3.663  -2.873 +0.01 +0.00    +0.210 HD
ATOM     78  H60 UNL     1      12.031   9.463   1.699+75.29 +0.00    +0.317 HD
ATOM     79  H61 UNL     1      22.331   4.103   0.812 +0.11 +0.00    +0.127 HD
ATOM     80  H62 UNL     1      21.130   4.091   1.977+35.13 +0.00    +0.127 HD
ATOM     81  H63 UNL     1      24.182   5.324   1.149 +0.12 +0.00    +0.171 HD
ATOM     82  H64 UNL     1      29.674   6.919  -0.814 +0.05 +0.00    +0.125 HD
ATOM     83  H65 UNL     1      30.100   6.298   0.640 +0.06 +0.00    +0.125 HD
ATOM     84  H66 UNL     1      25.275   9.774   1.972 +0.09 +0.00    +0.125 HD
ATOM     85  H67 UNL     1      26.025   9.234   3.285 +0.02 +0.00    +0.125 HD
ATOM     86  H68 UNL     1      11.788   5.104   0.341 -0.00 +0.00    +0.159 HD
ATOM     87  H69 UNL     1      11.867   6.824   0.140 +0.08 +0.00    +0.159 HD
ENDROOT
TORSDOF 40
TER
