USER    Run = 1
USER    DPF = ligand_194_receptor.dpf
USER  
USER    Estimated Free Energy of Binding    =  +7.76e+003 kcal/mol  [=(1)+(2)+(3)-(4)]
USER    
USER    (1) Final Intermolecular Energy     =  +7.76e+003 kcal/mol
USER        vdW + Hbond + desolv Energy     =  +7.76e+003 kcal/mol
USER        Electrostatic Energy            =   +0.00 kcal/mol
USER    (2) Final Total Internal Energy     =  +10.41 kcal/mol
USER    (3) Torsional Free Energy           =   +1.19 kcal/mol
USER    (4) Unbound System's Energy  [=(2)] =  +10.41 kcal/mol
USER    
USER    
USER    NEWDPF move ligand_194.pdbqt
USER    NEWDPF about 0.000000 0.000000 0.000000
USER    NEWDPF tran0 19.186208 10.733006 7.761882
USER    NEWDPF quaternion0 -0.770995 0.202415 -0.119185 -0.591938
USER    NEWDPF axisangle0 -0.956588 0.251141 -0.147875 -107.410757
USER    NEWDPF quat0 -0.956588 0.251141 -0.147875 -107.410757
USER    NEWDPF dihe0 -162.64 109.78 164.30 17.00 127.23 -177.95 116.76 -115.94 -99.17 33.91 -180.00 169.26 -9.76 179.91 -135.73 175.26 
USER  keepresnum = 1 
USER  
REMARK  16 active torsions:
REMARK  status: ('A' for Active; 'I' for Inactive)
REMARK    1  A    between atoms: C3_3  and  C35_35 
REMARK    2  A    between atoms: C5_5  and  N2_47 
REMARK    3  A    between atoms: C6_6  and  C7_7 
REMARK       I    between atoms: C6_6  and  N2_47 
REMARK    4  A    between atoms: C9_9  and  N4_49 
REMARK       I    between atoms: C11_11  and  N4_49 
REMARK       I    between atoms: C11_11  and  N5_50 
REMARK    5  A    between atoms: C12_12  and  N5_50 
REMARK    6  A    between atoms: C14_14  and  C17_17 
REMARK       I    between atoms: C17_17  and  N7_52 
REMARK    7  A    between atoms: C18_18  and  N7_52 
REMARK    8  A    between atoms: C20_20  and  C23_23 
REMARK       I    between atoms: C23_23  and  N9_54 
REMARK    9  A    between atoms: C24_24  and  N9_54 
REMARK   10  A    between atoms: C25_25  and  S3_81 
REMARK   11  A    between atoms: C29_29  and  S2_80 
REMARK   12  A    between atoms: C31_31  and  S1_79 
REMARK       I    between atoms: C35_35  and  N10_55 
REMARK   13  A    between atoms: C36_36  and  N10_55 
REMARK   14  A    between atoms: C37_37  and  S6_84 
REMARK   15  A    between atoms: C41_41  and  S5_83 
REMARK   16  A    between atoms: C43_43  and  S4_82 
USER                              x       y       z     vdW  Elec       q    Type
USER                           _______ _______ _______ _____ _____    ______ ____
ROOT
ATOM      1  C11 UNL     1      18.755  10.309   7.412+99.99 +0.00    +0.327 C 
ATOM      2  N4  UNL     1      17.774  10.999   8.117+71.98 -0.00    -0.294 N 
ATOM      3  N5  UNL     1      19.639   9.729   8.316+12.13 -0.00    -0.294 N 
ATOM      4  O2  UNL     1      18.824  10.223   6.195+99.99 -0.00    -0.247 OA
ATOM      5  H30 UNL     1      18.089  11.392   8.995+98.05 +0.00    +0.172 HD
ATOM      6  H31 UNL     1      19.218   9.486   9.204 +5.86 +0.00    +0.172 HD
ENDROOT
BRANCH   2   7
ATOM      7  C9  UNL     1      16.623  11.559   7.583 +6.01 +0.00    +0.111 A 
ATOM      8  C10 UNL     1      15.559  10.838   7.061+22.41 +0.00    +0.067 A 
ATOM      9  C7  UNL     1      14.562  11.745   6.589+99.99 +0.00    +0.051 A 
ATOM     10  C8  UNL     1      15.088  13.005   6.813+26.99 +0.00    +0.109 A 
ATOM     11  N3  UNL     1      16.336  12.891   7.381 +6.02 -0.00    -0.346 N 
ATOM     12  C34 UNL     1      17.202  14.037   7.548+99.99 +0.00    +0.157 C 
BRANCH   9  13
ATOM     13  C6  UNL     1      13.255  11.495   5.956+99.99 +0.00    +0.258 C 
ATOM     14  N2  UNL     1      12.889  10.161   5.986+99.99 -0.00    -0.309 N 
ATOM     15  H29 UNL     1      13.450   9.544   6.548 +0.14 +0.00    +0.170 HD
ATOM     16  O1  UNL     1      12.587  12.422   5.518+99.99 -0.00    -0.267 OA
BRANCH  14  17
ATOM     17  C5  UNL     1      11.745   9.645   5.396+99.99 +0.00    +0.110 A 
ATOM     18  C4  UNL     1      11.126   8.408   5.486 -0.12 +0.00    +0.067 A 
ATOM     19  C3  UNL     1       9.959   8.416   4.654 +0.21 +0.00    +0.051 A 
ATOM     20  C2  UNL     1       9.926   9.676   4.079 +4.13 +0.00    +0.109 A 
ATOM     21  N1  UNL     1      10.975  10.410   4.546+99.99 -0.00    -0.346 N 
ATOM     22  C1  UNL     1      11.230  11.777   4.153+99.99 +0.00    +0.157 C 
BRANCH  19  23
ATOM     23  C35 UNL     1       8.942   7.388   4.364 +1.32 +0.00    +0.257 C 
ATOM     24  N10 UNL     1       9.318   6.449   3.432 -0.11 -0.00    -0.321 N 
ATOM     25  H34 UNL     1      10.297   6.475   3.123 +0.09 +0.00    +0.169 HD
ATOM     26  O14 UNL     1       7.887   7.407   4.990+27.81 -0.00    -0.267 OA
BRANCH  24  27
ATOM     27  C36 UNL     1       8.594   5.324   2.951 -0.17 +0.00    +0.060 A 
ATOM     28  C37 UNL     1       8.026   4.417   3.856 -0.18 +0.00    +0.108 A 
ATOM     29  C38 UNL     1       7.314   3.295   3.401 -0.23 +0.00    +0.041 A 
ATOM     30  C39 UNL     1       7.151   3.035   2.033 -0.17 -0.00    -0.021 A 
ATOM     31  C40 UNL     1       6.427   1.895   1.639 -0.20 +0.00    +0.038 A 
ATOM     32  C44 UNL     1       7.713   3.912   1.069 -0.12 +0.00    +0.001 A 
ATOM     33  C41 UNL     1       6.245   1.587   0.290 -0.12 +0.00    +0.083 A 
ATOM     34  C42 UNL     1       6.774   2.419  -0.693 -0.07 +0.00    +0.053 A 
ATOM     35  C43 UNL     1       7.505   3.564  -0.312 -0.06 +0.00    +0.093 A 
ATOM     36  C45 UNL     1       8.425   5.053   1.574 -0.13 +0.00    +0.045 A 
BRANCH  28  37
ATOM     37  S6  UNL     1       8.120   4.604   5.664 -0.39 +0.00    +0.140 S 
ATOM     38  O21 UNL     1       7.690   3.304   6.186 +0.36 -0.00    -0.591 OA
ATOM     39  O22 UNL     1       9.530   4.910   5.890 +0.02 -0.00    -0.591 OA
ATOM     40  O23 UNL     1       7.192   5.701   5.932 +0.04 -0.00    -0.591 OA
ENDBRANCH  28  37
BRANCH  33  41
ATOM     41  S5  UNL     1       5.274   0.122  -0.169 +5.23 +0.00    +0.137 S 
ATOM     42  O18 UNL     1       4.569  -0.203   1.068+12.09 -0.00    -0.591 OA
ATOM     43  O19 UNL     1       4.414   0.597  -1.253 -0.03 -0.00    -0.591 OA
ATOM     44  O20 UNL     1       6.276  -0.856  -0.590+10.39 -0.00    -0.591 OA
ENDBRANCH  33  41
BRANCH  35  45
ATOM     45  S4  UNL     1       8.201   4.587  -1.661 -0.12 +0.00    +0.138 S 
ATOM     46  O15 UNL     1       7.124   4.627  -2.646 +1.48 -0.00    -0.591 OA
ATOM     47  O16 UNL     1       8.476   5.885  -1.041 +0.04 -0.00    -0.591 OA
ATOM     48  O17 UNL     1       9.402   3.852  -2.050 +0.02 -0.00    -0.591 OA
ENDBRANCH  35  45
ENDBRANCH  24  27
ENDBRANCH  19  23
ENDBRANCH  14  17
ENDBRANCH   9  13
ENDBRANCH   2   7
BRANCH   3  49
ATOM     49  C12 UNL     1      20.777   9.006   7.991 +2.21 +0.00    +0.111 A 
ATOM     50  C13 UNL     1      21.459   9.114   6.794 +4.65 +0.00    +0.067 A 
ATOM     51  C14 UNL     1      22.594   8.247   6.812+44.58 +0.00    +0.051 A 
ATOM     52  C15 UNL     1      22.537   7.600   8.033 +7.24 +0.00    +0.109 A 
ATOM     53  N6  UNL     1      21.416   8.028   8.721 -0.01 -0.00    -0.346 N 
ATOM     54  C16 UNL     1      20.985   7.395   9.949+99.99 +0.00    +0.157 C 
BRANCH  51  55
ATOM     55  C17 UNL     1      23.591   8.126   5.736+17.06 +0.00    +0.258 C 
ATOM     56  N7  UNL     1      23.441   9.037   4.710 -0.10 -0.00    -0.309 N 
ATOM     57  H32 UNL     1      22.839   9.833   4.885 +0.10 +0.00    +0.170 HD
ATOM     58  O3  UNL     1      24.471   7.277   5.830 +4.39 -0.00    -0.267 OA
BRANCH  56  59
ATOM     59  C18 UNL     1      24.203   9.133   3.553 -0.50 +0.00    +0.110 A 
ATOM     60  C19 UNL     1      25.163   8.203   3.176 -0.48 +0.00    +0.067 A 
ATOM     61  C20 UNL     1      25.732   8.587   1.926 -0.46 +0.00    +0.051 A 
ATOM     62  C21 UNL     1      25.100   9.775   1.599 -0.15 +0.00    +0.109 A 
ATOM     63  N8  UNL     1      24.227  10.126   2.602 -0.14 -0.00    -0.346 N 
ATOM     64  C22 UNL     1      23.605  11.431   2.629+99.99 +0.00    +0.157 C 
BRANCH  61  65
ATOM     65  C23 UNL     1      26.767   7.958   1.079 -0.30 +0.00    +0.257 C 
ATOM     66  N9  UNL     1      26.800   6.583   1.146 -0.08 -0.00    -0.321 N 
ATOM     67  H33 UNL     1      26.112   6.135   1.758 +0.12 +0.00    +0.169 HD
ATOM     68  O4  UNL     1      27.501   8.671   0.405 -0.26 -0.00    -0.267 OA
BRANCH  66  69
ATOM     69  C24 UNL     1      27.660   5.655   0.502 -0.13 +0.00    +0.060 A 
ATOM     70  C25 UNL     1      29.033   5.661   0.798 -0.03 +0.00    +0.108 A 
ATOM     71  C26 UNL     1      29.907   4.756   0.173 -0.17 +0.00    +0.041 A 
ATOM     72  C27 UNL     1      29.448   3.823  -0.766 -0.17 -0.00    -0.021 A 
ATOM     73  C28 UNL     1      30.373   2.944  -1.359 -0.12 +0.00    +0.038 A 
ATOM     74  C32 UNL     1      28.070   3.772  -1.107 -0.27 +0.00    +0.001 A 
ATOM     75  C29 UNL     1      29.965   2.002  -2.306 -0.12 +0.00    +0.083 A 
ATOM     76  C30 UNL     1      28.624   1.908  -2.665 -0.05 +0.00    +0.053 A 
ATOM     77  C31 UNL     1      27.687   2.785  -2.080 -0.20 +0.00    +0.093 A 
ATOM     78  C33 UNL     1      27.206   4.710  -0.444 -0.30 +0.00    +0.045 A 
BRANCH  70  79
ATOM     79  S3  UNL     1      29.809   6.806   1.983 -0.30 +0.00    +0.140 S 
ATOM     80  O11 UNL     1      30.478   7.777   1.120 -0.04 -0.00    -0.591 OA
ATOM     81  O12 UNL     1      28.689   7.357   2.751 +0.16 -0.00    -0.591 OA
ATOM     82  O13 UNL     1      30.694   5.938   2.754 +0.43 -0.00    -0.591 OA
ENDBRANCH  70  79
BRANCH  75  83
ATOM     83  S2  UNL     1      31.195   0.874  -3.023 -0.17 +0.00    +0.137 S 
ATOM     84  O8  UNL     1      32.117   0.649  -1.912 +0.06 -0.00    -0.591 OA
ATOM     85  O9  UNL     1      30.410  -0.298  -3.411 -0.05 -0.00    -0.591 OA
ATOM     86  O10 UNL     1      31.751   1.618  -4.152 +0.03 -0.00    -0.591 OA
ENDBRANCH  75  83
BRANCH  77  87
ATOM     87  S1  UNL     1      25.948   2.618  -2.622 -0.15 +0.00    +0.138 S 
ATOM     88  O5  UNL     1      25.600   1.258  -2.219 +0.54 -0.00    -0.591 OA
ATOM     89  O6  UNL     1      25.225   3.654  -1.882 -0.16 -0.00    -0.591 OA
ATOM     90  O7  UNL     1      26.022   2.864  -4.060 -0.03 -0.00    -0.591 OA
ENDBRANCH  77  87
ENDBRANCH  66  69
ENDBRANCH  61  65
ENDBRANCH  56  59
ENDBRANCH  51  55
ENDBRANCH   3  49
TORSDOF 16
TER
