USER    Run = 1
USER    DPF = ligand_447_receptor.dpf
USER  
USER    Estimated Free Energy of Binding    =  +45.97 kcal/mol  [=(1)+(2)+(3)-(4)]
USER    
USER    (1) Final Intermolecular Energy     =  +44.78 kcal/mol
USER        vdW + Hbond + desolv Energy     =  +44.78 kcal/mol
USER        Electrostatic Energy            =   +0.00 kcal/mol
USER    (2) Final Total Internal Energy     =  +43.99 kcal/mol
USER    (3) Torsional Free Energy           =   +1.19 kcal/mol
USER    (4) Unbound System's Energy  [=(2)] =  +43.99 kcal/mol
USER    
USER    
USER    NEWDPF move ligand_447.pdbqt
USER    NEWDPF about 0.000000 0.000000 0.000000
USER    NEWDPF tran0 8.102903 4.371048 0.080777
USER    NEWDPF quaternion0 0.242874 0.420586 -0.427651 -0.762387
USER    NEWDPF axisangle0 0.375315 0.649934 -0.660851 -80.649818
USER    NEWDPF quat0 0.375315 0.649934 -0.660851 -80.649818
USER    NEWDPF dihe0 1.22 145.05 -25.68 -134.24 -78.93 -50.63 125.61 60.20 71.17 113.33 165.61 124.49 -39.73 78.37 -58.08 98.61 60.42 -65.12 6.17 
USER  keepresnum = 1 
USER  
REMARK  19 active torsions:
REMARK  status: ('A' for Active; 'I' for Inactive)
REMARK    1  A    between atoms: C6_6  and  S1_53 
REMARK    2  A    between atoms: C8_8  and  S1_53 
REMARK    3  A    between atoms: C12_12  and  C14_14 
REMARK       I    between atoms: C14_14  and  N1_62 
REMARK    4  A    between atoms: C15_15  and  N1_62 
REMARK    5  A    between atoms: C19_19  and  C21_21 
REMARK    6  A    between atoms: C24_24  and  C27_27 
REMARK    7  A    between atoms: C27_27  and  C28_28 
REMARK    8  A    between atoms: C28_28  and  C29_29 
REMARK    9  A    between atoms: C29_29  and  C30_30 
REMARK   10  A    between atoms: C30_30  and  N2_63 
REMARK   11  A    between atoms: C31_31  and  C32_32 
REMARK   12  A    between atoms: C31_31  and  N2_63 
REMARK   13  A    between atoms: C32_32  and  C33_33 
REMARK   14  A    between atoms: C32_32  and  O6_59 
REMARK   15  A    between atoms: C39_39  and  O5_58 
REMARK   16  A    between atoms: C42_42  and  N6_68 
REMARK   17  A    between atoms: C43_43  and  C45_45 
REMARK       I    between atoms: C45_45  and  N5_67 
REMARK   18  A    between atoms: C46_46  and  N6_68 
REMARK   19  A    between atoms: C48_48  and  O8_61 
USER                              x       y       z     vdW  Elec       q    Type
USER                           _______ _______ _______ _____ _____    ______ ____
ROOT
ATOM      1  C14 UNL     1      10.509   5.389   4.187 -0.17 +0.00    +0.256 C 
ATOM      2  O3  UNL     1      10.974   6.523   4.187 -0.19 -0.00    -0.267 OA
ATOM      3  N1  UNL     1      10.053   4.694   3.078 +0.07 -0.00    -0.323 N 
ATOM      4  H43 UNL     1       9.814   3.721   3.199 -0.21 +0.00    +0.169 HD
ENDROOT
BRANCH   1   5
ATOM      5  C12 UNL     1      10.448   4.652   5.489 -0.34 +0.00    +0.033 A 
ATOM      6  C11 UNL     1      11.585   3.931   5.891 -0.45 +0.00    +0.017 A 
ATOM      7  C10 UNL     1      11.589   3.205   7.086 +0.44 +0.00    +0.003 A 
ATOM      8  C9  UNL     1      10.458   3.195   7.898 -0.18 +0.00    +0.024 A 
ATOM      9  C8  UNL     1       9.335   3.934   7.518 -0.48 +0.00    +0.065 A 
ATOM     10  C13 UNL     1       9.322   4.667   6.322 -0.35 +0.00    +0.040 A 
BRANCH   9  11
ATOM     11  S1  UNL     1       7.865   3.876   8.521 +1.85 +0.00    +0.206 S 
ATOM     12  O1  UNL     1       8.123   4.687   9.699 +2.25 -0.00    -0.217 OA
ATOM     13  O2  UNL     1       7.496   2.479   8.660 +0.71 -0.00    -0.217 OA
BRANCH  11  14
ATOM     14  C6  UNL     1       6.581   4.672   7.590 +0.01 +0.00    +0.065 A 
ATOM     15  C5  UNL     1       6.766   4.887   6.228 -0.37 +0.00    +0.040 A 
ATOM     16  C4  UNL     1       5.779   5.534   5.452 -0.23 +0.00    +0.020 A 
ATOM     17  C3  UNL     1       4.558   5.905   6.064 -0.26 +0.00    +0.050 A 
ATOM     18  C42 UNL     1       5.955   5.814   4.067 -0.10 +0.00    +0.062 A 
ATOM     19  C2  UNL     1       4.382   5.659   7.436 -0.03 -0.00    -0.033 A 
ATOM     20  N4  UNL     1       3.565   6.484   5.363 -0.05 -0.00    -0.364 N 
ATOM     21  C1  UNL     1       3.087   6.044   8.105 +1.74 +0.00    +0.050 C 
ATOM     22  C7  UNL     1       5.391   5.049   8.200+12.28 +0.00    +0.033 A 
ATOM     23  C44 UNL     1       3.743   6.705   4.040 -0.09 +0.00    +0.107 A 
ATOM     24  H4  UNL     1       2.694   6.751   5.821 +0.06 +0.00    +0.165 HD
ATOM     25  C43 UNL     1       4.906   6.415   3.353 -0.06 +0.00    +0.074 A 
BRANCH  25  26
ATOM     26  C45 UNL     1       5.020   6.704   1.906 +0.08 +0.00    +0.253 C 
ATOM     27  O7  UNL     1       5.146   7.854   1.499 +3.25 -0.00    -0.268 OA
ATOM     28  N5  UNL     1       4.948   5.654   1.031 -0.09 -0.00    -0.366 N 
ATOM     29  H46 UNL     1       4.556   4.757   1.286 +0.04 +0.00    +0.159 HD
ATOM     30  H47 UNL     1       4.902   5.904   0.051 +0.00 +0.00    +0.159 HD
ENDBRANCH  25  26
BRANCH  18  31
ATOM     31  N6  UNL     1       7.217   5.584   3.435 -0.05 -0.00    -0.355 N 
ATOM     32  H48 UNL     1       7.168   4.749   2.832 +0.08 +0.00    +0.166 HD
BRANCH  31  33
ATOM     33  C46 UNL     1       8.043   6.558   2.813 -0.25 +0.00    +0.035 A 
ATOM     34  C47 UNL     1       7.767   7.102   1.548 -0.32 +0.00    +0.066 A 
ATOM     35  C48 UNL     1       8.565   8.115   1.013 +1.15 +0.00    +0.070 A 
ATOM     36  C49 UNL     1       9.657   8.585   1.744+18.60 +0.00    +0.037 A 
ATOM     37  C50 UNL     1       9.940   8.065   3.004 -0.24 +0.00    +0.005 A 
ATOM     38  C51 UNL     1       9.132   7.062   3.538 -0.31 +0.00    +0.029 A 
BRANCH  35  39
ATOM     39  O8  UNL     1       8.386   8.721  -0.200 +1.09 -0.00    -0.356 OA
ATOM     40  C52 UNL     1       7.187   8.420  -0.903 +0.62 +0.00    +0.210 C 
ENDBRANCH  35  39
ENDBRANCH  31  33
ENDBRANCH  18  31
ENDBRANCH  11  14
ENDBRANCH   9  11
ENDBRANCH   1   5
BRANCH   3  41
ATOM     41  C15 UNL     1       9.911   5.183   1.761 +0.09 +0.00    +0.035 A 
ATOM     42  C16 UNL     1      10.313   6.452   1.349 -0.28 +0.00    +0.029 A 
ATOM     43  C17 UNL     1      10.110   6.863   0.029 -0.29 +0.00    +0.003 A 
ATOM     44  C18 UNL     1       9.500   6.007  -0.888 -0.22 +0.00    +0.012 A 
ATOM     45  C19 UNL     1       9.085   4.725  -0.505 -0.14 -0.00    -0.024 A 
ATOM     46  C20 UNL     1       9.300   4.329   0.828 +0.02 +0.00    +0.042 A 
BRANCH  45  47
ATOM     47  C21 UNL     1       8.437   3.820  -1.467 -0.12 -0.00    -0.026 A 
ATOM     48  C22 UNL     1       7.927   2.577  -1.061 -0.09 +0.00    +0.013 A 
ATOM     49  C23 UNL     1       7.310   1.717  -1.975 -0.11 +0.00    +0.008 A 
ATOM     50  C24 UNL     1       7.194   2.073  -3.324 -0.10 -0.00    -0.058 A 
ATOM     51  C25 UNL     1       7.686   3.317  -3.733 -0.09 +0.00    +0.008 A 
ATOM     52  C26 UNL     1       8.304   4.175  -2.817 -0.15 +0.00    +0.013 A 
BRANCH  50  53
ATOM     53  C27 UNL     1       6.518   1.145  -4.301 +0.09 +0.00    +0.038 C 
BRANCH  53  54
ATOM     54  C28 UNL     1       6.912  -0.335  -4.198 +0.08 +0.00    +0.006 C 
BRANCH  54  55
ATOM     55  C29 UNL     1       7.153  -0.852  -2.774 -0.21 +0.00    +0.030 C 
BRANCH  55  56
ATOM     56  C30 UNL     1       6.071  -0.443  -1.770 +1.34 +0.00    +0.270 C 
BRANCH  56  57
ATOM     57  N2  UNL     1       5.133   0.558  -2.288 -0.12 +0.00    +0.086 N 
ATOM     58  H44 UNL     1       4.678   0.182  -3.120 +0.07 +0.00    +0.315 HD
BRANCH  57  59
ATOM     59  C31 UNL     1       4.093   0.997  -1.340 -0.07 +0.00    +0.306 C 
BRANCH  59  60
ATOM     60  C32 UNL     1       3.925   2.531  -1.185 -0.07 +0.00    +0.180 C 
BRANCH  60  61
ATOM     61  C33 UNL     1       3.610   2.907   0.258 -0.09 -0.00    -0.015 A 
ATOM     62  C34 UNL     1       4.180   2.225   1.356 -0.13 +0.00    +0.003 A 
ATOM     63  C35 UNL     1       5.137   1.113   1.227 -0.05 +0.00    +0.020 A 
ATOM     64  C38 UNL     1       3.836   2.628   2.661 -0.09 +0.00    +0.079 A 
ATOM     65  C36 UNL     1       5.629   0.497   2.310 +1.79 +0.00    +0.075 A 
ATOM     66  C37 UNL     1       5.241   0.907   3.678 -0.22 +0.00    +0.245 A 
ATOM     67  O4  UNL     1       5.692   0.327   4.659 +0.73 -0.00    -0.268 OA
ATOM     68  N3  UNL     1       4.373   1.954   3.769 -0.11 -0.00    -0.321 N 
ATOM     69  H45 UNL     1       4.098   2.265   4.692 +0.05 +0.00    +0.169 HD
ATOM     70  C39 UNL     1       2.964   3.696   2.883 -0.08 +0.00    +0.093 A 
ATOM     71  C40 UNL     1       2.422   4.389   1.811 +1.85 +0.00    +0.039 A 
ATOM     72  C41 UNL     1       2.749   3.999   0.511 +2.02 +0.00    +0.013 A 
BRANCH  70  73
ATOM     73  O5  UNL     1       2.664   4.045   4.172 -0.02 -0.00    -0.358 OA
ATOM     74  H41 UNL     1       2.627   3.239   4.713 +0.07 +0.00    +0.217 HD
ENDBRANCH  70  73
ENDBRANCH  60  61
BRANCH  60  75
ATOM     75  O6  UNL     1       5.125   3.204  -1.599 -0.05 -0.00    -0.389 OA
ATOM     76  H42 UNL     1       4.844   4.075  -1.927 -0.02 +0.00    +0.210 HD
ENDBRANCH  60  75
ENDBRANCH  59  60
ENDBRANCH  57  59
ENDBRANCH  56  57
ENDBRANCH  55  56
ENDBRANCH  54  55
ENDBRANCH  53  54
ENDBRANCH  50  53
ENDBRANCH  45  47
ENDBRANCH   3  41
TORSDOF 19
TER
