USER    Run = 1
USER    DPF = ligand_114_receptor.dpf
USER  
USER    Estimated Free Energy of Binding    =  +60.13 kcal/mol  [=(1)+(2)+(3)-(4)]
USER    
USER    (1) Final Intermolecular Energy     =  +58.93 kcal/mol
USER        vdW + Hbond + desolv Energy     =  +58.93 kcal/mol
USER        Electrostatic Energy            =   +0.00 kcal/mol
USER    (2) Final Total Internal Energy     =   -5.10 kcal/mol
USER    (3) Torsional Free Energy           =   +1.19 kcal/mol
USER    (4) Unbound System's Energy  [=(2)] =   -5.10 kcal/mol
USER    
USER    
USER    NEWDPF move ligand_114.pdbqt
USER    NEWDPF about 0.000000 0.000000 0.000000
USER    NEWDPF tran0 17.497335 11.478065 3.776164
USER    NEWDPF quaternion0 -0.010146 -0.780958 -0.299849 0.547806
USER    NEWDPF axisangle0 -0.012127 -0.933485 -0.358412 113.566749
USER    NEWDPF quat0 -0.012127 -0.933485 -0.358412 113.566749
USER    NEWDPF dihe0 -114.37 169.63 -82.72 -109.66 172.90 -179.96 159.85 164.31 -180.00 53.66 -154.93 123.92 21.14 -56.67 -3.12 -134.78 32.14 16.20 -88.52 -97.17 -64.79 117.60 -180.00 -149.96 79.33 89.29 138.16 180.00 
USER  keepresnum = 1 
USER  
REMARK  28 active torsions:
REMARK  status: ('A' for Active; 'I' for Inactive)
REMARK    1  A    between atoms: C3_3  and  N4_57 
REMARK    2  A    between atoms: C5_5  and  C6_6 
REMARK       I    between atoms: C6_6  and  N2_55 
REMARK    3  A    between atoms: C7_7  and  N2_55 
REMARK    4  A    between atoms: C11_11  and  C13_13 
REMARK    5  A    between atoms: C13_13  and  C14_14 
REMARK       I    between atoms: C14_14  and  N3_56 
REMARK    6  A    between atoms: C15_15  and  C16_16 
REMARK    7  A    between atoms: C15_15  and  C19_19 
REMARK    8  A    between atoms: C15_15  and  N3_56 
REMARK    9  A    between atoms: C16_16  and  C17_17 
REMARK   10  A    between atoms: C17_17  and  C18_18 
REMARK   11  A    between atoms: C18_18  and  O4_67 
REMARK   12  A    between atoms: C19_19  and  O6_69 
REMARK   13  A    between atoms: C20_20  and  C21_21 
REMARK       I    between atoms: C20_20  and  N4_57 
REMARK   14  A    between atoms: C23_23  and  N5_58 
REMARK       I    between atoms: C27_27  and  N5_58 
REMARK       I    between atoms: C27_27  and  N6_59 
REMARK   15  A    between atoms: C28_28  and  N6_59 
REMARK   16  A    between atoms: C32_32  and  C34_34 
REMARK       I    between atoms: C34_34  and  N7_60 
REMARK   17  A    between atoms: C35_35  and  N7_60 
REMARK   18  A    between atoms: C37_37  and  C39_39 
REMARK       I    between atoms: C39_39  and  N9_62 
REMARK   19  A    between atoms: C40_40  and  N9_62 
REMARK   20  A    between atoms: C44_44  and  C46_46 
REMARK   21  A    between atoms: C46_46  and  C47_47 
REMARK       I    between atoms: C47_47  and  N10_63 
REMARK   22  A    between atoms: C48_48  and  C49_49 
REMARK   23  A    between atoms: C48_48  and  C52_52 
REMARK   24  A    between atoms: C48_48  and  N10_63 
REMARK   25  A    between atoms: C49_49  and  C50_50 
REMARK   26  A    between atoms: C50_50  and  C51_51 
REMARK   27  A    between atoms: C51_51  and  O13_76 
REMARK   28  A    between atoms: C52_52  and  O15_78 
USER                              x       y       z     vdW  Elec       q    Type
USER                           _______ _______ _______ _____ _____    ______ ____
ROOT
ATOM      1  C27 UNL     1      16.499   8.301   3.046 -0.36 +0.00    +0.325 C 
ATOM      2  N5  UNL     1      15.460   7.555   3.590 -0.23 -0.00    -0.309 N 
ATOM      3  N6  UNL     1      16.202   8.647   1.736 -0.26 -0.00    -0.309 N 
ATOM      4  O8  UNL     1      17.526   8.598   3.643 -0.41 -0.00    -0.247 OA
ATOM      5  H44 UNL     1      14.856   7.095   2.925 -0.48 +0.00    +0.170 HD
ATOM      6  H45 UNL     1      15.232   8.556   1.475 -0.36 +0.00    +0.170 HD
ENDROOT
BRANCH   2   7
ATOM      7  C23 UNL     1      15.336   7.140   4.933 -0.12 +0.00    +0.037 A 
ATOM      8  C22 UNL     1      14.108   6.876   5.545 -0.44 +0.00    +0.046 A 
ATOM      9  C21 UNL     1      14.053   6.485   6.890 -0.48 +0.00    +0.034 A 
ATOM     10  C26 UNL     1      15.240   6.309   7.610 +0.73 +0.00    +0.017 A 
ATOM     11  C25 UNL     1      16.470   6.545   6.998+13.29 +0.00    +0.003 A 
ATOM     12  C24 UNL     1      16.516   6.960   5.666 +5.98 +0.00    +0.029 A 
BRANCH   9  13
ATOM     13  C20 UNL     1      12.758   6.217   7.582 -0.33 +0.00    +0.256 C 
ATOM     14  N4  UNL     1      11.882   5.391   6.902 -0.15 -0.00    -0.322 N 
ATOM     15  H43 UNL     1      12.122   5.059   5.977 +0.12 +0.00    +0.169 HD
ATOM     16  O7  UNL     1      12.555   6.756   8.666 -0.28 -0.00    -0.267 OA
BRANCH  14  17
ATOM     17  C3  UNL     1      10.641   5.005   7.372 -0.36 +0.00    +0.053 A 
ATOM     18  C2  UNL     1      10.149   5.399   8.592 +1.10 +0.00    +0.120 A 
ATOM     19  N1  UNL     1       8.903   4.847   8.752 -0.17 -0.00    -0.354 N 
ATOM     20  C1  UNL     1       8.075   5.056   9.923+21.35 +0.00    +0.156 C 
ATOM     21  C5  UNL     1       8.561   4.096   7.638 -0.47 +0.00    +0.105 A 
ATOM     22  C4  UNL     1       9.652   4.188   6.779 -0.40 +0.00    +0.066 A 
BRANCH  21  23
ATOM     23  C6  UNL     1       7.300   3.371   7.484 +0.38 +0.00    +0.273 C 
ATOM     24  N2  UNL     1       6.393   3.988   6.640 -0.25 -0.00    -0.322 N 
ATOM     25  H41 UNL     1       6.682   4.869   6.240 +0.09 +0.00    +0.169 HD
ATOM     26  O1  UNL     1       7.090   2.312   8.068 +6.06 -0.00    -0.266 OA
BRANCH  24  27
ATOM     27  C7  UNL     1       5.101   3.554   6.276 -0.29 +0.00    +0.035 A 
ATOM     28  C8  UNL     1       4.032   4.027   7.048 -0.38 +0.00    +0.029 A 
ATOM     29  C9  UNL     1       2.720   3.659   6.752 -0.29 +0.00    +0.003 A 
ATOM     30  C10 UNL     1       2.458   2.811   5.680 -0.20 +0.00    +0.007 A 
ATOM     31  C11 UNL     1       3.511   2.321   4.898 -0.24 -0.00    -0.047 A 
ATOM     32  C12 UNL     1       4.830   2.698   5.205 -0.11 +0.00    +0.037 A 
BRANCH  31  33
ATOM     33  C13 UNL     1       3.228   1.415   3.722 -0.20 +0.00    +0.141 C 
BRANCH  33  34
ATOM     34  C14 UNL     1       3.335   2.091   2.363 -0.08 +0.00    +0.222 C 
ATOM     35  N3  UNL     1       4.353   3.013   2.238 -0.01 -0.00    -0.346 N 
ATOM     36  H42 UNL     1       5.105   2.941   2.915 +0.06 +0.00    +0.163 HD
ATOM     37  O2  UNL     1       2.598   1.782   1.429 -0.05 -0.00    -0.273 OA
BRANCH  35  38
ATOM     38  C15 UNL     1       4.698   3.576   0.931 -0.09 +0.00    +0.182 C 
BRANCH  38  39
ATOM     39  C16 UNL     1       5.758   4.672   1.124 -0.16 +0.00    +0.046 C 
BRANCH  39  40
ATOM     40  C17 UNL     1       6.837   4.335   2.155 -0.11 +0.00    +0.112 C 
BRANCH  40  41
ATOM     41  C18 UNL     1       6.737   5.176   3.397 -0.16 +0.00    +0.139 C 
ATOM     42  O3  UNL     1       7.484   5.163   4.360 +0.05 -0.00    -0.650 OA
BRANCH  41  43
ATOM     43  O4  UNL     1       5.695   6.027   3.349 +0.08 -0.00    -0.776 OA
ATOM     44  H49 UNL     1       4.908   5.442   3.345 +0.06 +0.00    +0.167 HD
ENDBRANCH  41  43
ENDBRANCH  40  41
ENDBRANCH  39  40
ENDBRANCH  38  39
BRANCH  38  45
ATOM     45  C19 UNL     1       5.238   2.472   0.008 -0.08 +0.00    +0.163 C 
ATOM     46  O5  UNL     1       5.491   1.322   0.333 +0.00 -0.00    -0.648 OA
BRANCH  45  47
ATOM     47  O6  UNL     1       5.351   2.836  -1.290 +0.07 -0.00    -0.775 OA
ATOM     48  H50 UNL     1       4.876   3.691  -1.337 +0.03 +0.00    +0.167 HD
ENDBRANCH  45  47
ENDBRANCH  38  45
ENDBRANCH  35  38
ENDBRANCH  33  34
ENDBRANCH  31  33
ENDBRANCH  24  27
ENDBRANCH  21  23
ENDBRANCH  14  17
ENDBRANCH   9  13
ENDBRANCH   2   7
BRANCH   3  49
ATOM     49  C28 UNL     1      17.037   9.317   0.815 -0.48 +0.00    +0.037 A 
ATOM     50  C29 UNL     1      16.608   9.784  -0.429 +1.22 +0.00    +0.029 A 
ATOM     51  C30 UNL     1      17.498  10.424  -1.297 +5.48 +0.00    +0.003 A 
ATOM     52  C31 UNL     1      18.826  10.618  -0.923 +7.06 +0.00    +0.017 A 
ATOM     53  C32 UNL     1      19.259  10.187   0.332 -0.37 +0.00    +0.034 A 
ATOM     54  C33 UNL     1      18.370   9.527   1.196 -0.24 +0.00    +0.046 A 
BRANCH  53  55
ATOM     55  C34 UNL     1      20.679  10.415   0.711 -0.36 +0.00    +0.256 C 
ATOM     56  N7  UNL     1      21.331   9.299   1.201 +0.03 -0.00    -0.322 N 
ATOM     57  H46 UNL     1      20.802   8.456   1.378 +0.94 +0.00    +0.169 HD
ATOM     58  O9  UNL     1      21.144  11.543   0.595 -0.14 -0.00    -0.267 OA
BRANCH  56  59
ATOM     59  C35 UNL     1      22.660   9.272   1.579 -0.41 +0.00    +0.053 A 
ATOM     60  C36 UNL     1      23.340  10.384   2.009 +3.14 +0.00    +0.120 A 
ATOM     61  N8  UNL     1      24.628  10.011   2.307 -0.21 -0.00    -0.354 N 
ATOM     62  C37 UNL     1      24.805   8.657   2.069 -0.40 +0.00    +0.105 A 
ATOM     63  C53 UNL     1      25.644  10.928   2.780 +2.78 +0.00    +0.156 C 
ATOM     64  C38 UNL     1      23.569   8.192   1.626 -0.39 +0.00    +0.066 A 
BRANCH  62  65
ATOM     65  C39 UNL     1      26.059   7.935   2.282 -0.36 +0.00    +0.273 C 
ATOM     66  N9  UNL     1      27.166   8.549   1.723 -0.25 -0.00    -0.322 N 
ATOM     67  H47 UNL     1      27.005   9.443   1.281 +0.11 +0.00    +0.169 HD
ATOM     68  O10 UNL     1      26.093   6.885   2.916 -0.04 -0.00    -0.266 OA
BRANCH  66  69
ATOM     69  C40 UNL     1      28.505   8.109   1.734 -0.33 +0.00    +0.035 A 
ATOM     70  C41 UNL     1      29.461   8.522   2.663 +2.11 +0.00    +0.029 A 
ATOM     71  C42 UNL     1      30.769   8.031   2.600 +0.74 +0.00    +0.003 A 
ATOM     72  C43 UNL     1      31.135   7.119   1.613 -0.30 +0.00    +0.007 A 
ATOM     73  C44 UNL     1      30.191   6.686   0.677 -0.21 -0.00    -0.047 A 
ATOM     74  C45 UNL     1      28.881   7.191   0.743 -0.29 +0.00    +0.037 A 
BRANCH  73  75
ATOM     75  C46 UNL     1      30.568   5.678  -0.385 -0.08 +0.00    +0.141 C 
BRANCH  75  76
ATOM     76  C47 UNL     1      29.572   4.538  -0.520 -0.10 +0.00    +0.222 C 
ATOM     77  N10 UNL     1      29.752   3.741  -1.627 -0.01 -0.00    -0.346 N 
ATOM     78  H48 UNL     1      30.667   3.757  -2.074 +0.05 +0.00    +0.163 HD
ATOM     79  O11 UNL     1      28.648   4.380   0.273 -0.24 -0.00    -0.273 OA
BRANCH  77  80
ATOM     80  C48 UNL     1      28.999   2.498  -1.813 -0.15 +0.00    +0.182 C 
BRANCH  80  81
ATOM     81  C49 UNL     1      27.505   2.714  -1.561 +0.37 +0.00    +0.046 C 
BRANCH  81  82
ATOM     82  C50 UNL     1      26.914   3.825  -2.430 -0.24 +0.00    +0.112 C 
BRANCH  82  83
ATOM     83  C51 UNL     1      26.268   4.890  -1.586 -0.37 +0.00    +0.139 C 
ATOM     84  O12 UNL     1      26.147   6.072  -1.856 -0.00 -0.00    -0.650 OA
BRANCH  83  85
ATOM     85  O13 UNL     1      25.816   4.403  -0.415 -0.43 -0.00    -0.776 OA
ATOM     86  H51 UNL     1      26.530   4.612   0.224 +0.09 +0.00    +0.167 HD
ENDBRANCH  83  85
ENDBRANCH  82  83
ENDBRANCH  81  82
ENDBRANCH  80  81
BRANCH  80  87
ATOM     87  C52 UNL     1      29.203   1.980  -3.244 -0.12 +0.00    +0.163 C 
ATOM     88  O14 UNL     1      29.591   2.629  -4.202 +0.04 -0.00    -0.648 OA
BRANCH  87  89
ATOM     89  O15 UNL     1      28.938   0.659  -3.381 +0.11 -0.00    -0.775 OA
ATOM     90  H52 UNL     1      27.965   0.601  -3.271 -0.30 +0.00    +0.167 HD
ENDBRANCH  87  89
ENDBRANCH  80  87
ENDBRANCH  77  80
ENDBRANCH  75  76
ENDBRANCH  73  75
ENDBRANCH  66  69
ENDBRANCH  62  65
ENDBRANCH  56  59
ENDBRANCH  53  55
ENDBRANCH   3  49
TORSDOF 28
TER
