USER    Run = 1
USER    DPF = ligand_54_receptor.dpf
USER  
USER    Estimated Free Energy of Binding    =  +3.04e+006 kcal/mol  [=(1)+(2)+(3)-(4)]
USER    
USER    (1) Final Intermolecular Energy     =  +3.04e+006 kcal/mol
USER        vdW + Hbond + desolv Energy     =  +1.54e+006 kcal/mol
USER        Electrostatic Energy            =  +1.50e+006 kcal/mol
USER    (2) Final Total Internal Energy     =   +0.00 kcal/mol
USER    (3) Torsional Free Energy           =   +1.19 kcal/mol
USER    (4) Unbound System's Energy  [=(2)] =   +0.00 kcal/mol
USER    
USER    
USER    NEWDPF move ligand_54.pdbqt
USER    NEWDPF about 0.000000 0.000000 0.000000
USER    NEWDPF tran0 14.067911 5.253715 3.602683
USER    NEWDPF quaternion0 0.809160 0.187103 0.015937 -0.556775
USER    NEWDPF axisangle0 0.974113 0.225245 0.019185 -112.333814
USER    NEWDPF quat0 0.974113 0.225245 0.019185 -112.333814
USER  keepresnum = 1 
USER  
REMARK  0 active torsions:
REMARK  status: ('A' for Active; 'I' for Inactive)
REMARK       I    between atoms: C3_3  and  C17_17 
REMARK       I    between atoms: C5_5  and  C6_6 
REMARK       I    between atoms: C6_6  and  C7_7 
REMARK       I    between atoms: C7_7  and  C8_8 
REMARK       I    between atoms: C8_8  and  C9_9 
REMARK       I    between atoms: C9_9  and  C10_10 
REMARK       I    between atoms: C10_10  and  C11_11 
REMARK       I    between atoms: C11_11  and  C12_12 
REMARK       I    between atoms: C12_12  and  C13_13 
REMARK       I    between atoms: C13_13  and  C14_14 
REMARK       I    between atoms: C14_14  and  N2_59 
REMARK       I    between atoms: C17_17  and  C18_18 
REMARK       I    between atoms: C18_18  and  C19_19 
REMARK       I    between atoms: C21_21  and  C24_24 
REMARK       I    between atoms: C24_24  and  C25_25 
REMARK       I    between atoms: C25_25  and  C26_26 
REMARK       I    between atoms: C27_27  and  N6_64 
REMARK       I    between atoms: C30_30  and  C31_31 
REMARK       I    between atoms: C30_30  and  N6_64 
REMARK       I    between atoms: C31_31  and  C32_32 
REMARK       I    between atoms: C32_32  and  C33_33 
REMARK       I    between atoms: C33_33  and  C34_34 
REMARK       I    between atoms: C34_34  and  C35_35 
REMARK       I    between atoms: C35_35  and  N7_65 
REMARK       I    between atoms: C36_36  and  C37_37 
REMARK       I    between atoms: C36_36  and  N7_65 
REMARK       I    between atoms: C39_39  and  N9_67 
REMARK       I    between atoms: C42_42  and  C43_43 
REMARK       I    between atoms: C42_42  and  N9_67 
REMARK       I    between atoms: C44_44  and  N12_71 
REMARK       I    between atoms: C47_47  and  C48_48 
REMARK       I    between atoms: C47_47  and  N12_71 
REMARK       I    between atoms: C49_49  and  N15_75 
REMARK       I    between atoms: C52_52  and  C53_53 
REMARK       I    between atoms: C52_52  and  N15_75 
REMARK       I    between atoms: C53_53  and  C54_54 
REMARK       I    between atoms: C54_54  and  N16_76 
REMARK       I    between atoms: C55_55  and  C56_56 
REMARK       I    between atoms: C55_55  and  N16_76 
REMARK       I    between atoms: C56_56  and  C57_57 
REMARK       I    between atoms: C57_57  and  N17_77 
USER                              x       y       z     vdW  Elec       q    Type
USER                           _______ _______ _______ _____ _____    ______ ____
ROOT
ATOM      1  C1  UNL     1       4.576   5.708   6.624 -0.32 +0.00    +0.156 C 
ATOM      2  C2  UNL     1       5.432   6.235   4.365 +0.53 +0.00    +0.098 A 
ATOM      3  C3  UNL     1       5.305   5.764   3.077 -0.19 -0.00    -0.033 A 
ATOM      4  C4  UNL     1       4.484   4.612   3.166 -0.13 +0.00    +0.042 A 
ATOM      5  C5  UNL     1       4.164   4.374   4.498 -0.13 +0.00    +0.080 A 
ATOM      6  C6  UNL     1       3.367   3.239   4.963 -0.16 +0.00    +0.176 C 
ATOM      7  C7  UNL     1       3.472   2.817   6.419 -0.35 +0.00    +0.086 C 
ATOM      8  C8  UNL     1       2.884   1.425   6.671 +0.05 +0.00    +0.015 C 
ATOM      9  C9  UNL     1       3.120   0.944   8.099+15.13 +0.00    +0.079 C 
ATOM     10  C10 UNL     1       2.376   1.794   9.111 +8.06 +0.00    +0.127 C 
ATOM     11  C11 UNL     1       0.964   1.354   9.462+99.99+99.99    +0.078 C 
ATOM     12  C12 UNL     1       0.280   2.308  10.436+99.99+99.99    +0.009 C 
ATOM     13  C13 UNL     1      -1.221   2.058  10.623+99.99+99.99    +0.030 C 
ATOM     14  C14 UNL     1      -1.585   0.750  11.342+99.99+99.99    +0.271 C 
ATOM     15  C15 UNL     1      -1.424  -1.648  11.451+99.99+99.99    +0.309 C 
ATOM     16  C16 UNL     1      -2.231  -0.627   9.443+99.99+99.99    +0.309 C 
ATOM     17  C17 UNL     1       5.888   6.359   1.836 -0.25 +0.00    +0.125 C 
ATOM     18  C18 UNL     1       7.411   6.399   1.868 -0.21 +0.00    +0.180 C 
ATOM     19  C19 UNL     1       8.143   5.168   1.567 -0.12 +0.00    +0.081 A 
ATOM     20  C20 UNL     1       7.651   3.922   1.202 -0.10 +0.00    +0.042 A 
ATOM     21  C21 UNL     1       8.741   3.031   1.003 -0.15 -0.00    -0.033 A 
ATOM     22  C22 UNL     1       9.882   3.761   1.259+11.20 +0.00    +0.098 A 
ATOM     23  C23 UNL     1      10.466   6.082   1.936 -0.22 +0.00    +0.156 C 
ATOM     24  C24 UNL     1       8.662   1.595   0.599 -0.22 +0.00    +0.127 C 
ATOM     25  C25 UNL     1       8.587   1.450  -0.912 -0.10 +0.00    +0.197 C 
ATOM     26  C26 UNL     1       9.850   1.300  -1.622 -0.14 +0.00    +0.155 A 
ATOM     27  C27 UNL     1      11.948   1.053  -2.018 +0.09 +0.00    +0.125 A 
ATOM     28  C28 UNL     1      11.351   1.111  -3.248 +0.38 +0.00    +0.140 A 
ATOM     29  C29 UNL     1       8.981   1.379  -3.986+99.99 +0.00    +0.157 C 
ATOM     30  C30 UNL     1      14.310   0.789  -2.565+99.99 +0.00    +0.223 C 
ATOM     31  C31 UNL     1      15.656   0.673  -1.873+99.99 +0.00    +0.103 C 
ATOM     32  C32 UNL     1      16.116   1.996  -1.263+12.85 +0.00    +0.009 C 
ATOM     33  C33 UNL     1      16.284   3.144  -2.267+99.99 +0.00    +0.002 C 
ATOM     34  C34 UNL     1      17.371   2.882  -3.314+99.99 +0.00    +0.020 C 
ATOM     35  C35 UNL     1      17.530   4.041  -4.301+16.22 +0.00    +0.123 C 
ATOM     36  C36 UNL     1      19.264   5.472  -3.281+17.77 +0.00    +0.268 C 
ATOM     37  C37 UNL     1      19.477   6.692  -2.532+10.27 +0.00    +0.104 A 
ATOM     38  C38 UNL     1      20.282   6.839  -1.409+99.99 +0.00    +0.066 A 
ATOM     39  C39 UNL     1      20.192   8.177  -0.959+37.29 +0.00    +0.053 A 
ATOM     40  C40 UNL     1      19.366   8.836  -1.837+99.99 +0.00    +0.120 A 
ATOM     41  C41 UNL     1      18.222   8.333  -3.985+10.91 +0.00    +0.156 C 
ATOM     42  C42 UNL     1      20.769   9.979   0.626 -0.21 +0.00    +0.290 C 
ATOM     43  C43 UNL     1      21.586  10.140   1.822 -0.10 +0.00    +0.178 A 
ATOM     44  C44 UNL     1      22.907   9.653   3.443 -0.43 +0.00    +0.125 A 
ATOM     45  C45 UNL     1      22.617  10.986   3.594 +2.35 +0.00    +0.140 A 
ATOM     46  C46 UNL     1      21.194  12.579   2.288+64.80 +0.00    +0.157 C 
ATOM     47  C47 UNL     1      24.023   7.595   4.126+29.83 +0.00    +0.291 C 
ATOM     48  C48 UNL     1      24.934   7.157   5.177 +6.84 +0.00    +0.178 A 
ATOM     49  C49 UNL     1      26.196   7.236   6.912+99.99 +0.00    +0.125 A 
ATOM     50  C50 UNL     1      26.263   5.938   6.468 +4.35 +0.00    +0.140 A 
ATOM     51  C51 UNL     1      25.205   4.743   4.535+54.08 +0.00    +0.157 C 
ATOM     52  C52 UNL     1      26.798   9.041   8.432+99.99 +0.00    +0.224 C 
ATOM     53  C53 UNL     1      27.638   9.254   9.680 +1.76 +0.00    +0.123 C 
ATOM     54  C54 UNL     1      27.623  10.705  10.146 -0.47 +0.00    +0.132 C 
ATOM     55  C55 UNL     1      29.642  11.685   9.108 +1.15 +0.00    +0.219 C 
ATOM     56  C56 UNL     1      30.099  12.602   7.991 -0.28 +0.00    +0.132 C 
ATOM     57  C57 UNL     1      31.610  12.580   7.766 +0.75 +0.00    +0.276 C 
ATOM     58  N1  UNL     1       4.728   5.414   5.215 -0.07 -0.00    -0.358 N 
ATOM     59  N2  UNL     1      -1.313  -0.477  10.575+99.99+99.99    +0.080 N 
ATOM     60  N3  UNL     1       9.519   5.038   1.598 -0.01 -0.00    -0.358 N 
ATOM     61  N4  UNL     1      11.023   1.167  -1.019 -0.16 -0.00    -0.324 N 
ATOM     62  H4  UNL     1      11.200   1.153  -0.014 -0.01 +0.00    +0.169 HD
ATOM     63  N5  UNL     1      10.018   1.264  -2.989 +3.20 -0.00    -0.341 N 
ATOM     64  N6  UNL     1      13.264   0.907  -1.678 +0.32 -0.00    -0.312 N 
ATOM     65  N7  UNL     1      17.956   5.272  -3.668 +1.02 -0.00    -0.356 N 
ATOM     66  N8  UNL     1      18.974   7.948  -2.809 +7.76 -0.00    -0.354 N 
ATOM     67  N9  UNL     1      20.831   8.683   0.151+20.17 -0.00    -0.319 N 
ATOM     68  N10 UNL     1      22.271   9.139   2.355 -0.21 -0.00    -0.323 N 
ATOM     69  H10 UNL     1      22.314   8.177   2.017 +0.12 +0.00    +0.169 HD
ATOM     70  N11 UNL     1      21.774  11.286   2.558+13.18 -0.00    -0.339 N 
ATOM     71  N12 UNL     1      23.724   8.932   4.267 -0.28 -0.00    -0.305 N 
ATOM     72  N13 UNL     1      25.380   7.979   6.117+99.99 -0.00    -0.323 N 
ATOM     73  H13 UNL     1      25.156   8.969   6.222+40.48 +0.00    +0.169 HD
ATOM     74  N14 UNL     1      25.457   5.900   5.360 +2.31 -0.00    -0.339 N 
ATOM     75  N15 UNL     1      26.858   7.726   8.009+99.99 -0.00    -0.312 N 
ATOM     76  N16 UNL     1      28.269  11.604   9.208 +0.52 -0.00    -0.361 N 
ATOM     77  N17 UNL     1      32.372  13.217   8.838 -0.19 +0.00    +0.078 N 
ATOM     78  O1  UNL     1       2.641   2.610   4.191 -0.05 -0.00    -0.291 OA
ATOM     79  O2  UNL     1       2.901   2.805   9.581+27.02 -0.00    -0.298 OA
ATOM     80  O3  UNL     1       7.984   7.457   2.142 -0.28 -0.00    -0.290 OA
ATOM     81  O4  UNL     1       7.495   1.480  -1.487 -0.05 -0.00    -0.289 OA
ATOM     82  O5  UNL     1      14.231   0.791  -3.790+99.99 -0.00    -0.273 OA
ATOM     83  O6  UNL     1      20.151   4.655  -3.501+99.99 -0.00    -0.266 OA
ATOM     84  O7  UNL     1      20.121  10.898   0.132 -0.40 -0.00    -0.264 OA
ATOM     85  O8  UNL     1      23.604   6.836   3.258+99.99 -0.00    -0.264 OA
ATOM     86  O9  UNL     1      26.172   9.957   7.908+99.99 -0.00    -0.273 OA
ATOM     87  O10 UNL     1      30.403  11.091   9.864 +6.88 -0.00    -0.274 OA
ATOM     88  H70 UNL     1      13.430   0.890  -0.682 -0.34 +0.00    +0.170 HD
ATOM     89  H71 UNL     1      17.250   5.839  -3.220 -0.44 +0.00    +0.162 HD
ATOM     90  H72 UNL     1      21.423   8.053   0.691 +1.30 +0.00    +0.169 HD
ATOM     91  H73 UNL     1      24.162   9.404   5.054 +0.11 +0.00    +0.170 HD
ATOM     92  H74 UNL     1      27.436   7.069   8.515 +0.61 +0.00    +0.170 HD
ATOM     93  H75 UNL     1      27.704  11.912   8.423+65.49 +0.00    +0.162 HD
ATOM     94  H76 UNL     1      31.990  14.139   9.042 +0.11 +0.00    +0.312 HD
ATOM     95  H77 UNL     1      32.235  12.666   9.691 +0.06 +0.00    +0.312 HD
ENDROOT
TORSDOF 35
TER
