USER    Run = 1
USER    DPF = ligand_224_receptor.dpf
USER  
USER    Estimated Free Energy of Binding    =   +7.28 kcal/mol  [=(1)+(2)+(3)-(4)]
USER    
USER    (1) Final Intermolecular Energy     =   +6.09 kcal/mol
USER        vdW + Hbond + desolv Energy     =   +6.09 kcal/mol
USER        Electrostatic Energy            =   +0.00 kcal/mol
USER    (2) Final Total Internal Energy     =   -1.30 kcal/mol
USER    (3) Torsional Free Energy           =   +1.19 kcal/mol
USER    (4) Unbound System's Energy  [=(2)] =   -1.30 kcal/mol
USER    
USER    
USER    NEWDPF move ligand_224.pdbqt
USER    NEWDPF about 0.000000 0.000000 0.000000
USER    NEWDPF tran0 6.438733 5.114331 3.163510
USER    NEWDPF quaternion0 -0.139130 0.799378 0.571319 -0.123415
USER    NEWDPF axisangle0 -0.140202 0.805537 0.575721 -165.821574
USER    NEWDPF quat0 -0.140202 0.805537 0.575721 -165.821574
USER    NEWDPF dihe0 -96.06 -174.10 75.12 -156.66 167.00 85.10 95.45 -175.94 180.00 -0.02 48.58 -167.47 -38.42 159.87 43.34 165.88 2.75 -8.92 
USER  keepresnum = 1 
USER  
REMARK  18 active torsions:
REMARK  status: ('A' for Active; 'I' for Inactive)
REMARK    1  A    between atoms: C2_2  and  C4_4 
REMARK    2  A    between atoms: C7_7  and  C30_30 
REMARK    3  A    between atoms: C16_16  and  O1_45 
REMARK       I    between atoms: C30_30  and  N1_51 
REMARK    4  A    between atoms: C31_31  and  C32_32 
REMARK    5  A    between atoms: C31_31  and  N1_51 
REMARK    6  A    between atoms: C32_32  and  C33_33 
REMARK    7  A    between atoms: C33_33  and  C34_34 
REMARK    8  A    between atoms: C34_34  and  C35_35 
REMARK    9  A    between atoms: C35_35  and  C36_36 
REMARK   10  A    between atoms: C36_36  and  C37_37 
REMARK   11  A    between atoms: C37_37  and  C38_38 
REMARK   12  A    between atoms: C38_38  and  C39_39 
REMARK       I    between atoms: C39_39  and  N2_52 
REMARK   13  A    between atoms: C40_40  and  C41_41 
REMARK   14  A    between atoms: C40_40  and  C44_44 
REMARK   15  A    between atoms: C40_40  and  N2_52 
REMARK   16  A    between atoms: C41_41  and  C42_42 
REMARK   17  A    between atoms: C42_42  and  C43_43 
REMARK       I    between atoms: C43_43  and  N3_53 
REMARK   18  A    between atoms: C44_44  and  O6_50 
USER                              x       y       z     vdW  Elec       q    Type
USER                           _______ _______ _______ _____ _____    ______ ____
ROOT
ATOM      1  C4  UNL     1       8.633   4.238   0.241 -0.16 +0.00    +0.019 C 
ATOM      2  C5  UNL     1       8.196   4.893  -1.094 -0.14 +0.00    +0.010 C 
ATOM      3  C6  UNL     1       8.881   6.266  -1.172 -0.26 +0.00    +0.020 C 
ATOM      4  C7  UNL     1       9.176   6.642   0.284 -0.30 +0.00    +0.045 C 
ATOM      5  C8  UNL     1       9.615   5.270   0.847 -0.18 +0.00    +0.016 C 
ATOM      6  C9  UNL     1       9.855   5.360   2.368 -0.18 +0.00    +0.000 C 
ATOM      7  C10 UNL     1      10.079   4.010   3.057 +2.59 +0.00    +0.006 C 
ATOM      8  C11 UNL     1      10.224   4.154   4.575 -0.40 +0.00    +0.006 C 
ATOM      9  C12 UNL     1      11.329   5.158   4.980 -0.37 +0.00    +0.003 C 
ATOM     10  C13 UNL     1      11.714   5.121   6.527 -0.44 -0.00    -0.035 C 
ATOM     11  C14 UNL     1      12.247   3.682   6.866 -0.31 +0.00    +0.012 C 
ATOM     12  C15 UNL     1      13.516   3.630   7.724 -0.16 +0.00    +0.033 C 
ATOM     13  C16 UNL     1      13.558   4.694   8.814 +1.38 +0.00    +0.126 C 
ATOM     14  C17 UNL     1      13.499   6.141   8.225 -0.66 -0.00    -0.017 C 
ATOM     15  C18 UNL     1      12.874   6.147   6.771 -0.51 +0.00    +0.004 C 
ATOM     16  C19 UNL     1      12.525   7.552   6.242 -0.48 +0.00    +0.007 C 
ATOM     17  C20 UNL     1      12.236   7.528   4.738 -0.45 +0.00    +0.011 C 
ATOM     18  C21 UNL     1      11.082   6.576   4.323 -0.36 -0.00    -0.032 C 
ATOM     19  C22 UNL     1      11.011   6.393   2.704 -0.35 -0.00    -0.032 C 
ATOM     20  C23 UNL     1      10.738   7.747   1.954 +0.73 +0.00    +0.011 C 
ATOM     21  C24 UNL     1      10.371   7.602   0.457 +0.56 +0.00    +0.020 C 
ATOM     22  C25 UNL     1      12.380   5.880   2.139 +1.15 +0.00    +0.016 C 
ATOM     23  C26 UNL     1       9.761   7.224   4.841 +0.18 +0.00    +0.016 C 
ATOM     24  C27 UNL     1      12.801   7.119   9.194 -0.01 +0.00    +0.018 C 
ATOM     25  C28 UNL     1      14.972   6.633   8.103 +0.37 +0.00    +0.018 C 
ATOM     26  C29 UNL     1      10.488   5.383   7.432 -0.37 +0.00    +0.016 C 
ENDROOT
BRANCH   4  27
ATOM     27  C30 UNL     1       7.912   7.373   0.838 -0.30 +0.00    +0.226 C 
ATOM     28  O2  UNL     1       7.869   8.603   0.913 +2.17 -0.00    -0.273 OA
ATOM     29  N1  UNL     1       6.802   6.618   1.132 -0.14 -0.00    -0.360 N 
ATOM     30  H70 UNL     1       6.965   5.683   1.465 +0.07 +0.00    +0.162 HD
BRANCH  29  31
ATOM     31  C31 UNL     1       5.606   7.255   1.652 +0.03 +0.00    +0.122 C 
BRANCH  31  32
ATOM     32  C32 UNL     1       4.445   6.267   1.719 +0.37 +0.00    +0.020 C 
BRANCH  32  33
ATOM     33  C33 UNL     1       4.749   4.999   0.919 -0.21 +0.00    +0.002 C 
BRANCH  33  34
ATOM     34  C34 UNL     1       3.615   4.587  -0.022 +0.87 +0.00    +0.000 C 
BRANCH  34  35
ATOM     35  C35 UNL     1       3.782   5.119  -1.448 +1.27 +0.00    +0.000 C 
BRANCH  35  36
ATOM     36  C36 UNL     1       3.227   4.130  -2.476 +0.13 +0.00    +0.000 C 
BRANCH  36  37
ATOM     37  C37 UNL     1       2.382   3.044  -1.804 -0.10 +0.00    +0.009 C 
BRANCH  37  38
ATOM     38  C38 UNL     1       2.752   1.640  -2.280 -0.05 +0.00    +0.103 C 
BRANCH  38  39
ATOM     39  C39 UNL     1       4.065   1.134  -1.714 -0.08 +0.00    +0.218 C 
ATOM     40  O3  UNL     1       4.609   0.092  -2.061 -0.01 -0.00    -0.274 OA
ATOM     41  N2  UNL     1       4.606   1.981  -0.776 -0.03 -0.00    -0.347 N 
ATOM     42  H71 UNL     1       4.084   2.786  -0.445 +0.04 +0.00    +0.163 HD
BRANCH  41  43
ATOM     43  C40 UNL     1       5.858   1.673  -0.082 -0.11 +0.00    +0.182 C 
BRANCH  43  44
ATOM     44  C41 UNL     1       5.570   0.947   1.237 +0.33 +0.00    +0.045 C 
BRANCH  44  45
ATOM     45  C42 UNL     1       4.767   1.808   2.213 -0.19 +0.00    +0.105 C 
BRANCH  45  46
ATOM     46  C43 UNL     1       5.667   2.548   3.179 -0.18 +0.00    +0.215 C 
ATOM     47  O4  UNL     1       5.284   3.373   4.000 -0.11 -0.00    -0.274 OA
ATOM     48  N3  UNL     1       6.984   2.200   3.095 -0.14 -0.00    -0.370 N 
ATOM     49  H72 UNL     1       7.632   2.715   3.676 +0.01 +0.00    +0.159 HD
ATOM     50  H73 UNL     1       7.353   1.665   2.321 +0.02 +0.00    +0.159 HD
ENDBRANCH  45  46
ENDBRANCH  44  45
ENDBRANCH  43  44
BRANCH  43  51
ATOM     51  C44 UNL     1       6.747   0.809  -0.986 -0.12 +0.00    +0.163 C 
ATOM     52  O5  UNL     1       6.653   0.692  -2.197 +0.03 -0.00    -0.648 OA
BRANCH  51  53
ATOM     53  O6  UNL     1       7.730   0.155  -0.322 +0.10 -0.00    -0.775 OA
ATOM     54  H69 UNL     1       7.287  -0.660  -0.000 +0.25 +0.00    +0.167 HD
ENDBRANCH  51  53
ENDBRANCH  43  51
ENDBRANCH  41  43
ENDBRANCH  38  39
ENDBRANCH  37  38
ENDBRANCH  36  37
ENDBRANCH  35  36
ENDBRANCH  34  35
ENDBRANCH  33  34
ENDBRANCH  32  33
ENDBRANCH  31  32
ENDBRANCH  29  31
ENDBRANCH   4  27
BRANCH   1  55
ATOM     55  C2  UNL     1       9.095   2.803   0.010 -0.14 -0.00    -0.089 C 
ATOM     56  C1  UNL     1       8.992   2.331  -1.421 -0.16 +0.00    +0.043 C 
ATOM     57  C3  UNL     1       9.570   1.970   0.952 +0.05 +0.00    +0.014 C 
ENDBRANCH   1  55
BRANCH  13  58
ATOM     58  O1  UNL     1      12.505   4.416   9.733 +1.29 -0.00    -0.395 OA
ATOM     59  H68 UNL     1      11.941   3.729   9.341 +0.26 +0.00    +0.210 HD
ENDBRANCH  13  58
TORSDOF 18
TER
