USER    Run = 1
USER    DPF = ligand_313_receptor.dpf
USER  
USER    Estimated Free Energy of Binding    =  -11.83 kcal/mol  [=(1)+(2)+(3)-(4)]
USER    Estimated Inhibition Constant, Ki   =    2.12 nM (nanomolar)  [Temperature = 298.15 K]
USER    
USER    (1) Final Intermolecular Energy     =  -13.03 kcal/mol
USER        vdW + Hbond + desolv Energy     =  -13.03 kcal/mol
USER        Electrostatic Energy            =   +0.00 kcal/mol
USER    (2) Final Total Internal Energy     =   -2.39 kcal/mol
USER    (3) Torsional Free Energy           =   +1.19 kcal/mol
USER    (4) Unbound System's Energy  [=(2)] =   -2.39 kcal/mol
USER    
USER    
USER    NEWDPF move ligand_313.pdbqt
USER    NEWDPF about 0.000000 0.000000 0.000000
USER    NEWDPF tran0 15.528616 9.472778 2.511539
USER    NEWDPF quaternion0 0.178809 -0.876115 -0.436878 -0.097913
USER    NEWDPF axisangle0 0.179672 -0.880346 -0.438987 -168.761950
USER    NEWDPF quat0 0.179672 -0.880346 -0.438987 -168.761950
USER    NEWDPF dihe0 -180.00 180.00 -43.21 -55.85 154.95 82.17 76.11 148.16 135.89 136.54 167.47 167.47 54.67 -78.10 
USER  keepresnum = 1 
USER  
REMARK  14 active torsions:
REMARK  status: ('A' for Active; 'I' for Inactive)
REMARK    1  A    between atoms: C3_3  and  N6_37 
REMARK    2  A    between atoms: C5_5  and  C6_6 
REMARK       I    between atoms: C6_6  and  N2_32 
REMARK    3  A    between atoms: C7_7  and  C8_8 
REMARK    4  A    between atoms: C7_7  and  N2_32 
REMARK    5  A    between atoms: C8_8  and  N3_33 
REMARK    6  A    between atoms: C9_9  and  N4_35 
REMARK    7  A    between atoms: C10_10  and  C11_11 
REMARK       I    between atoms: C10_10  and  N6_37 
REMARK    8  A    between atoms: C13_13  and  N8_39 
REMARK    9  A    between atoms: C16_16  and  C17_17 
REMARK       I    between atoms: C16_16  and  N8_39 
REMARK   10  A    between atoms: C19_19  and  N10_41 
REMARK   11  A    between atoms: C22_22  and  C23_23 
REMARK       I    between atoms: C22_22  and  N10_41 
REMARK   12  A    between atoms: C25_25  and  N12_43 
REMARK   13  A    between atoms: C28_28  and  C29_29 
REMARK       I    between atoms: C28_28  and  N12_43 
REMARK   14  A    between atoms: N4_35  and  N5_36 
USER                              x       y       z     vdW  Elec       q    Type
USER                           _______ _______ _______ _____ _____    ______ ____
ROOT
ATOM      1  C11 UNL     1      13.734   7.529   4.165 -0.40 +0.00    +0.105 A 
ATOM      2  C12 UNL     1      14.534   8.252   3.283 -0.36 +0.00    +0.066 A 
ATOM      3  C13 UNL     1      15.882   8.169   3.711 -0.49 +0.00    +0.053 A 
ATOM      4  C14 UNL     1      15.888   7.390   4.839 -0.04 +0.00    +0.120 A 
ATOM      5  C15 UNL     1      14.230   6.169   6.235 -0.39 +0.00    +0.156 C 
ATOM      6  N7  UNL     1      14.601   7.000   5.107 -0.23 -0.00    -0.354 N 
ENDROOT
BRANCH   3   7
ATOM      7  N8  UNL     1      16.957   8.758   3.074 -0.27 -0.00    -0.320 N 
ATOM      8  C16 UNL     1      17.543   9.963   3.418 -0.32 +0.00    +0.273 C 
ATOM      9  O3  UNL     1      17.136  10.734   4.280 -0.25 -0.00    -0.266 OA
ATOM     10  H33 UNL     1      17.286   8.303   2.235 +0.10 +0.00    +0.169 HD
BRANCH   8  11
ATOM     11  C17 UNL     1      18.696  10.284   2.594 -0.34 +0.00    +0.105 A 
ATOM     12  C18 UNL     1      19.841   9.515   2.441 -0.27 +0.00    +0.066 A 
ATOM     13  C19 UNL     1      20.731  10.196   1.575 -0.42 +0.00    +0.053 A 
ATOM     14  C20 UNL     1      20.095  11.350   1.187 -0.46 +0.00    +0.120 A 
ATOM     15  N9  UNL     1      18.848  11.373   1.759 -0.23 -0.00    -0.354 N 
ATOM     16  C21 UNL     1      17.837  12.357   1.434 -0.62 +0.00    +0.156 C 
BRANCH  13  17
ATOM     17  N10 UNL     1      21.987   9.742   1.216 -0.20 -0.00    -0.320 N 
ATOM     18  C22 UNL     1      22.933   9.201   2.069 -0.31 +0.00    +0.273 C 
ATOM     19  O4  UNL     1      22.783   9.074   3.281 -0.34 -0.00    -0.266 OA
ATOM     20  H34 UNL     1      22.233   9.870   0.247 +0.13 +0.00    +0.169 HD
BRANCH  18  21
ATOM     21  C23 UNL     1      24.169   8.796   1.399 -0.36 +0.00    +0.105 A 
ATOM     22  C24 UNL     1      25.496   9.066   1.724 -0.43 +0.00    +0.066 A 
ATOM     23  C25 UNL     1      26.339   8.458   0.760 -0.33 +0.00    +0.053 A 
ATOM     24  C26 UNL     1      25.517   7.833  -0.142 -0.25 +0.00    +0.120 A 
ATOM     25  N11 UNL     1      24.216   8.044   0.237 -0.17 -0.00    -0.354 N 
ATOM     26  C27 UNL     1      23.075   7.519  -0.486 -0.45 +0.00    +0.156 C 
BRANCH  23  27
ATOM     27  N12 UNL     1      27.721   8.517   0.760 -0.19 -0.00    -0.321 N 
ATOM     28  C28 UNL     1      28.570   7.423   0.788 -0.23 +0.00    +0.266 C 
ATOM     29  O5  UNL     1      28.246   6.242   0.861 -0.15 -0.00    -0.266 OA
ATOM     30  H35 UNL     1      28.124   9.443   0.780 +0.13 +0.00    +0.169 HD
BRANCH  28  31
ATOM     31  C29 UNL     1      30.018   7.810   0.755 -0.29 +0.00    +0.092 C 
ATOM     32  C30 UNL     1      30.927   7.278   1.584 -0.34 +0.00    +0.042 C 
ATOM     33 CL1  UNL     1      30.468   9.047  -0.361 -0.33 -0.00    -0.079 Cl
ENDBRANCH  28  31
ENDBRANCH  23  27
ENDBRANCH  18  21
ENDBRANCH  13  17
ENDBRANCH   8  11
ENDBRANCH   3   7
BRANCH   1  34
ATOM     34  C10 UNL     1      12.289   7.306   4.157 -0.28 +0.00    +0.273 C 
ATOM     35  N6  UNL     1      11.751   7.157   2.891 -0.20 -0.00    -0.320 N 
ATOM     36  H32 UNL     1      12.356   7.274   2.093 +0.04 +0.00    +0.169 HD
ATOM     37  O2  UNL     1      11.631   7.270   5.193 -0.22 -0.00    -0.266 OA
BRANCH  35  38
ATOM     38  C3  UNL     1      10.420   6.921   2.612 -0.31 +0.00    +0.053 A 
ATOM     39  C2  UNL     1       9.516   6.533   3.571 -0.22 +0.00    +0.120 A 
ATOM     40  N1  UNL     1       8.288   6.389   2.973 -0.08 -0.00    -0.354 N 
ATOM     41  C1  UNL     1       7.089   5.985   3.680 -0.15 +0.00    +0.156 C 
ATOM     42  C5  UNL     1       8.375   6.675   1.620 -0.23 +0.00    +0.104 A 
ATOM     43  C4  UNL     1       9.707   7.011   1.395 -0.26 +0.00    +0.066 A 
BRANCH  42  44
ATOM     44  C6  UNL     1       7.249   6.630   0.696 -0.22 +0.00    +0.268 C 
ATOM     45  N2  UNL     1       6.355   5.605   0.922 -0.07 -0.00    -0.354 N 
ATOM     46  H28 UNL     1       6.514   4.974   1.692 +0.07 +0.00    +0.162 HD
ATOM     47  O1  UNL     1       7.112   7.433  -0.222 -0.36 -0.00    -0.266 OA
BRANCH  45  48
ATOM     48  C7  UNL     1       5.263   5.299   0.011 -0.18 +0.00    +0.142 C 
BRANCH  48  49
ATOM     49  C8  UNL     1       4.592   3.952   0.328 -0.13 +0.00    +0.140 C 
BRANCH  49  50
ATOM     50  N3  UNL     1       5.027   3.474   1.644 +0.00 -0.00    -0.384 N 
ATOM     51  C9  UNL     1       5.879   2.512   1.618 -0.11 +0.00    +0.187 C 
ATOM     52  H3  UNL     1       4.680   3.876   2.515 +0.05 +0.00    +0.160 HD
BRANCH  51  53
ATOM     53  N4  UNL     1       6.330   1.813   2.718 -0.16 -0.00    -0.320 N 
ATOM     54  H29 UNL     1       6.101   0.818   2.732 +0.07 +0.00    +0.181 HD
BRANCH  53  55
ATOM     55  N5  UNL     1       6.154   2.497   3.955 -0.14 -0.00    -0.249 NA
ATOM     56  H30 UNL     1       7.049   2.465   4.470 -0.45 +0.00    +0.143 HD
ATOM     57  H31 UNL     1       5.562   1.899   4.547 -0.37 +0.00    +0.143 HD
ENDBRANCH  53  55
ENDBRANCH  51  53
ENDBRANCH  49  50
ENDBRANCH  48  49
ENDBRANCH  45  48
ENDBRANCH  42  44
ENDBRANCH  35  38
ENDBRANCH   1  34
TORSDOF 14
TER
