USER    Run = 1
USER    DPF = ligand_443_receptor.dpf
USER  
USER    Estimated Free Energy of Binding    = +611.44 kcal/mol  [=(1)+(2)+(3)-(4)]
USER    
USER    (1) Final Intermolecular Energy     = +610.25 kcal/mol
USER        vdW + Hbond + desolv Energy     = +610.25 kcal/mol
USER        Electrostatic Energy            =   +0.00 kcal/mol
USER    (2) Final Total Internal Energy     = +188.37 kcal/mol
USER    (3) Torsional Free Energy           =   +1.19 kcal/mol
USER    (4) Unbound System's Energy  [=(2)] = +188.37 kcal/mol
USER    
USER    
USER    NEWDPF move ligand_443.pdbqt
USER    NEWDPF about 0.000000 0.000000 0.000000
USER    NEWDPF tran0 13.112067 9.257750 -0.275701
USER    NEWDPF quaternion0 -0.059585 0.545863 -0.610932 -0.570303
USER    NEWDPF axisangle0 -0.072538 0.664524 -0.743738 -110.457294
USER    NEWDPF quat0 -0.072538 0.664524 -0.743738 -110.457294
USER    NEWDPF dihe0 180.00 39.33 180.00 157.76 -141.99 -144.27 120.87 180.00 -31.82 148.67 131.58 4.53 180.00 34.18 -8.70 149.35 -177.75 110.54 -180.00 99.83 -129.20 -5.26 131.58 
USER  keepresnum = 1 
USER  
REMARK  23 active torsions:
REMARK  status: ('A' for Active; 'I' for Inactive)
REMARK    1  A    between atoms: C2_2  and  C3_3 
REMARK    2  A    between atoms: C2_2  and  N11_92 
REMARK       I    between atoms: C3_3  and  N1_82 
REMARK    3  A    between atoms: C4_4  and  C5_5 
REMARK    4  A    between atoms: C4_4  and  C68_68 
REMARK    5  A    between atoms: C4_4  and  N1_82 
REMARK       I    between atoms: C5_5  and  N2_83 
REMARK    6  A    between atoms: C7_7  and  N4_85 
REMARK    7  A    between atoms: C9_9  and  C10_10 
REMARK       I    between atoms: C10_10  and  N3_84 
REMARK    8  A    between atoms: C11_11  and  N3_84 
REMARK    9  A    between atoms: C21_21  and  C22_22 
REMARK       I    between atoms: C21_21  and  N4_85 
REMARK   10  A    between atoms: C25_25  and  C28_28 
REMARK       I    between atoms: C28_28  and  N5_86 
REMARK   11  A    between atoms: C29_29  and  N5_86 
REMARK   12  A    between atoms: C34_34  and  C55_55 
REMARK   13  A    between atoms: C36_36  and  C37_37 
REMARK       I    between atoms: C36_36  and  N6_87 
REMARK   14  A    between atoms: C37_37  and  C38_38 
REMARK   15  A    between atoms: C37_37  and  N8_89 
REMARK   16  A    between atoms: C38_38  and  S1_93 
REMARK   17  A    between atoms: C41_41  and  C42_42 
REMARK   18  A    between atoms: C41_41  and  S1_93 
REMARK       I    between atoms: C42_42  and  N7_88 
REMARK   19  A    between atoms: C44_44  and  C45_45 
REMARK   20  A    between atoms: C44_44  and  N7_88 
REMARK   21  A    between atoms: C51_51  and  C52_52 
REMARK       I    between atoms: C51_51  and  N8_89 
REMARK   22  A    between atoms: C52_52  and  N9_90 
REMARK       I    between atoms: C55_55  and  N10_91 
REMARK   23  A    between atoms: C56_56  and  N10_91 
USER                              x       y       z     vdW  Elec       q    Type
USER                           _______ _______ _______ _____ _____    ______ ____
ROOT
ATOM      1  C29 UNL     1      12.754   7.106   0.736 +0.95 +0.00    +0.035 A 
ATOM      2  C30 UNL     1      12.257   5.816   0.540 -0.17 +0.00    +0.039 A 
ATOM      3  C31 UNL     1      10.917   5.515   0.826 +0.14 -0.00    -0.032 A 
ATOM      4  C32 UNL     1      10.073   6.514   1.365 -0.26 -0.00    -0.048 A 
ATOM      5  C33 UNL     1       8.590   6.258   1.590 -0.24 +0.00    +0.074 C 
ATOM      6  C34 UNL     1       8.215   4.783   1.374 -0.10 +0.00    +0.184 C 
ATOM      7  C35 UNL     1      10.379   4.125   0.541+12.47 +0.00    +0.166 C 
ATOM      8  C36 UNL     1       8.613   4.653  -1.086 -0.07 +0.00    +0.245 C 
ATOM      9  C66 UNL     1      10.593   7.785   1.618 +1.61 +0.00    +0.010 A 
ATOM     10  C67 UNL     1      11.920   8.078   1.299+39.16 +0.00    +0.030 A 
ATOM     11  O6  UNL     1       7.698   5.462  -1.251 +0.12 -0.00    -0.271 OA
ATOM     12  N6  UNL     1       8.957   4.226   0.216 -0.02 -0.00    -0.332 N 
ENDROOT
BRANCH   1  13
ATOM     13  N5  UNL     1      14.058   7.506   0.382 +1.62 -0.00    -0.323 N 
ATOM     14  C28 UNL     1      14.437   8.680  -0.246+26.96 +0.00    +0.256 C 
ATOM     15  O5  UNL     1      13.705   9.610  -0.561+91.67 -0.00    -0.267 OA
ATOM     16  H86 UNL     1      14.799   6.914   0.737+12.82 +0.00    +0.169 HD
BRANCH  14  17
ATOM     17  C25 UNL     1      15.901   8.803  -0.507 +0.07 +0.00    +0.032 A 
ATOM     18  C24 UNL     1      16.713   7.674  -0.676 +0.55 +0.00    +0.018 A 
ATOM     19  C23 UNL     1      18.088   7.825  -0.868+72.48 +0.00    +0.018 A 
ATOM     20  C22 UNL     1      18.650   9.108  -0.912 +4.27 +0.00    +0.032 A 
ATOM     21  C27 UNL     1      17.839  10.239  -0.809 +0.51 +0.00    +0.018 A 
ATOM     22  C26 UNL     1      16.464  10.085  -0.599 +8.81 +0.00    +0.018 A 
BRANCH  20  23
ATOM     23  C21 UNL     1      20.112   9.267  -1.089+71.41 +0.00    +0.252 C 
ATOM     24  O4  UNL     1      20.841   8.293  -1.199 +1.73 -0.00    -0.268 OA
ATOM     25  N4  UNL     1      20.548  10.576  -1.098+33.01 -0.00    -0.351 N 
ATOM     26  H85 UNL     1      19.840  11.286  -0.902 +0.15 +0.00    +0.163 HD
BRANCH  25  27
ATOM     27  C7  UNL     1      21.929  10.911  -0.769 +3.43 +0.00    +0.105 C 
ATOM     28  C6  UNL     1      22.803   9.652  -0.790 +0.85 +0.00    +0.152 C 
ATOM     29  N2  UNL     1      22.656   9.080   0.547 -0.21 -0.00    -0.335 N 
ATOM     30  C5  UNL     1      23.041   7.785   0.802 -0.19 +0.00    +0.244 C 
ATOM     31  C9  UNL     1      22.097  10.059   1.484 -0.04 +0.00    +0.181 C 
ATOM     32  O2  UNL     1      23.433   7.048  -0.112 -0.35 -0.00    -0.271 OA
ATOM     33  C8  UNL     1      22.073  11.373   0.687+24.10 +0.00    +0.061 C 
BRANCH  30  34
ATOM     34  C4  UNL     1      22.941   7.230   2.247 +2.88 +0.00    +0.184 C 
BRANCH  34  35
ATOM     35  C68 UNL     1      24.031   7.790   3.212 +2.26 -0.00    -0.022 C 
ATOM     36  C69 UNL     1      24.942   8.761   2.428 -0.59 +0.00    +0.017 C 
ATOM     37  C70 UNL     1      24.913   6.645   3.744+51.96 +0.00    +0.017 C 
ATOM     38  C71 UNL     1      23.441   8.550   4.415 +1.23 +0.00    +0.017 C 
ENDBRANCH  34  35
BRANCH  34  39
ATOM     39  N1  UNL     1      23.047   5.777   2.077 +5.77 -0.00    -0.345 N 
ATOM     40  C3  UNL     1      24.256   5.173   1.798 +1.36 +0.00    +0.251 C 
ATOM     41  O1  UNL     1      25.239   5.799   1.408 -0.29 -0.00    -0.271 OA
ATOM     42  H83 UNL     1      22.368   5.238   2.606 +0.85 +0.00    +0.163 HD
BRANCH  40  43
ATOM     43  C2  UNL     1      24.266   3.647   2.033+12.40 +0.00    +0.307 C 
ATOM     44  C1  UNL     1      23.582   2.962   0.852+11.45 +0.00    +0.053 C 
BRANCH  43  45
ATOM     45  N11 UNL     1      23.543   3.287   3.270 +3.40 +0.00    +0.092 N 
ATOM     46  C72 UNL     1      22.237   2.705   2.983 +0.22 +0.00    +0.307 C 
ATOM     47  H90 UNL     1      24.099   2.583   3.769 +3.05 +0.00    +0.316 HD
ENDBRANCH  43  45
ENDBRANCH  40  43
ENDBRANCH  34  39
ENDBRANCH  30  34
BRANCH  31  48
ATOM     48  C10 UNL     1      20.651   9.721   1.907 -0.22 +0.00    +0.241 C 
ATOM     49  O3  UNL     1      19.821   9.276   1.115 +0.79 -0.00    -0.271 OA
ATOM     50  N3  UNL     1      20.363  10.050   3.210 +0.40 -0.00    -0.351 N 
ATOM     51  H84 UNL     1      21.086  10.397   3.828 +0.24 +0.00    +0.163 HD
BRANCH  50  52
ATOM     52  C11 UNL     1      19.059   9.796   3.808 +4.90 +0.00    +0.118 C 
ATOM     53  C12 UNL     1      18.793   8.287   3.908 -0.51 +0.00    +0.030 C 
ATOM     54  C13 UNL     1      18.473   7.693   2.539 +2.61 +0.00    +0.007 C 
ATOM     55  C14 UNL     1      17.205   8.320   1.967 -0.51 +0.00    +0.039 C 
ATOM     56  C15 UNL     1      17.169   9.824   2.088 -0.44 -0.00    -0.050 A 
ATOM     57  C16 UNL     1      16.232  10.544   1.331 -0.50 +0.00    +0.007 A 
ATOM     58  C20 UNL     1      18.002  10.513   2.989 -0.41 -0.00    -0.029 A 
ATOM     59  C17 UNL     1      16.131  11.930   1.451 -0.12 +0.00    +0.001 A 
ATOM     60  C18 UNL     1      16.960  12.613   2.336 -0.31 +0.00    +0.001 A 
ATOM     61  C19 UNL     1      17.890  11.911   3.100 +0.04 +0.00    +0.010 A 
ENDBRANCH  50  52
ENDBRANCH  31  48
ENDBRANCH  25  27
ENDBRANCH  20  23
ENDBRANCH  14  17
ENDBRANCH   1  13
BRANCH   6  62
ATOM     62  C55 UNL     1       6.695   4.565   1.562 -0.06 +0.00    +0.241 C 
ATOM     63  O9  UNL     1       5.912   4.888   0.665 -0.11 -0.00    -0.271 OA
ATOM     64  N10 UNL     1       6.284   3.923   2.697 -0.01 -0.00    -0.351 N 
ATOM     65  H89 UNL     1       6.997   3.393   3.194 +0.07 +0.00    +0.163 HD
BRANCH  64  66
ATOM     66  C56 UNL     1       4.909   3.499   2.916 -0.12 +0.00    +0.118 C 
ATOM     67  C57 UNL     1       4.005   4.046   1.803 -0.13 +0.00    +0.030 C 
ATOM     68  C58 UNL     1       3.735   5.536   1.986 +0.19 +0.00    +0.007 C 
ATOM     69  C59 UNL     1       3.019   5.799   3.307 -0.16 +0.00    +0.039 C 
ATOM     70  C60 UNL     1       3.599   5.043   4.477 -0.13 -0.00    -0.050 A 
ATOM     71  C61 UNL     1       3.223   5.421   5.776 -0.19 +0.00    +0.007 A 
ATOM     72  C65 UNL     1       4.450   3.936   4.298 -0.16 -0.00    -0.029 A 
ATOM     73  C62 UNL     1       3.692   4.720   6.887 -0.34 +0.00    +0.001 A 
ATOM     74  C63 UNL     1       4.538   3.630   6.713 -0.33 +0.00    +0.001 A 
ATOM     75  C64 UNL     1       4.914   3.240   5.428 -0.27 +0.00    +0.010 A 
ENDBRANCH  64  66
ENDBRANCH   6  62
BRANCH   8  76
ATOM     76  C37 UNL     1       9.459   4.103  -2.283 -0.14 +0.00    +0.194 C 
BRANCH  76  77
ATOM     77  C38 UNL     1      10.573   3.048  -1.954 -0.00 +0.00    +0.030 C 
ATOM     78  C39 UNL     1      10.094   1.886  -1.068 -0.27 +0.00    +0.029 C 
ATOM     79  C40 UNL     1      11.745   3.737  -1.218 +9.18 +0.00    +0.029 C 
BRANCH  77  80
ATOM     80  S1  UNL     1      11.326   2.237  -3.472 +8.15 -0.00    -0.148 SA
BRANCH  80  81
ATOM     81  C41 UNL     1      11.301   0.470  -3.023 -0.35 +0.00    +0.177 C 
BRANCH  81  82
ATOM     82  C42 UNL     1      10.943   0.286  -1.555 -0.28 +0.00    +0.229 C 
ATOM     83  O7  UNL     1      11.848   0.126  -0.729 -0.22 -0.00    -0.273 OA
ATOM     84  N7  UNL     1       9.602   0.265  -1.185 -0.05 -0.00    -0.352 N 
ATOM     85  C43 UNL     1       8.487   0.594  -2.065 -0.14 +0.00    +0.153 C 
BRANCH  84  86
ATOM     86  C44 UNL     1       9.277   0.049   0.220 -0.29 +0.00    +0.164 C 
BRANCH  86  87
ATOM     87  C45 UNL     1      10.384   0.521   1.137 -0.35 -0.00    -0.037 A 
ATOM     88  C46 UNL     1      10.148   1.505   2.107 +2.10 +0.00    +0.051 A 
ATOM     89  C47 UNL     1      11.184   1.927   2.935+27.50 +0.00    +0.117 A 
ATOM     90  C48 UNL     1      12.459   1.387   2.825+29.98 +0.00    +0.042 A 
ATOM     91  F1  UNL     1      10.948   2.871   3.856 +0.11 -0.00    -0.206 F 
ATOM     92  C49 UNL     1      12.704   0.406   1.868 +7.38 +0.00    +0.004 A 
ATOM     93  C50 UNL     1      11.672  -0.030   1.035+21.70 +0.00    +0.009 A 
ENDBRANCH  86  87
ENDBRANCH  84  86
ENDBRANCH  81  82
ENDBRANCH  80  81
ENDBRANCH  77  80
ENDBRANCH  76  77
BRANCH  76  94
ATOM     94  N8  UNL     1       9.889   5.215  -3.142 -0.08 -0.00    -0.344 N 
ATOM     95  C51 UNL     1      10.044   6.514  -2.703 -0.18 +0.00    +0.251 C 
ATOM     96  O8  UNL     1       9.695   6.909  -1.597 -0.20 -0.00    -0.271 OA
ATOM     97  H87 UNL     1      10.409   5.009  -3.993 +0.07 +0.00    +0.163 HD
BRANCH  95  98
ATOM     98  C52 UNL     1      10.638   7.449  -3.778 -0.17 +0.00    +0.307 C 
ATOM     99  C53 UNL     1      12.012   6.906  -4.169 -0.05 +0.00    +0.053 C 
BRANCH  98 100
ATOM    100  N9  UNL     1      10.694   8.825  -3.213 -0.42 +0.00    +0.092 N 
ATOM    101  C54 UNL     1      10.277   9.833  -4.184 -0.26 +0.00    +0.307 C 
ATOM    102  H88 UNL     1      10.031   8.858  -2.433 +0.13 +0.00    +0.316 HD
ENDBRANCH  98 100
ENDBRANCH  95  98
ENDBRANCH  76  94
ENDBRANCH   8  76
TORSDOF 23
TER
