USER    Run = 1
USER    DPF = ligand_499_receptor.dpf
USER  
USER    Estimated Free Energy of Binding    =  +3.16e+005 kcal/mol  [=(1)+(2)+(3)-(4)]
USER    
USER    (1) Final Intermolecular Energy     =  +3.16e+005 kcal/mol
USER        vdW + Hbond + desolv Energy     =  +3.16e+005 kcal/mol
USER        Electrostatic Energy            =   +0.00 kcal/mol
USER    (2) Final Total Internal Energy     =   +0.00 kcal/mol
USER    (3) Torsional Free Energy           =   +1.19 kcal/mol
USER    (4) Unbound System's Energy  [=(2)] =   +0.00 kcal/mol
USER    
USER    
USER    NEWDPF move ligand_499.pdbqt
USER    NEWDPF about 0.000000 0.000000 0.000000
USER    NEWDPF tran0 17.145599 4.982897 1.895320
USER    NEWDPF quaternion0 -0.035006 -0.894099 0.443701 -0.049916
USER    NEWDPF axisangle0 -0.035050 -0.895215 0.444255 -174.277694
USER    NEWDPF quat0 -0.035050 -0.895215 0.444255 -174.277694
USER  keepresnum = 1 
USER  
REMARK  0 active torsions:
REMARK  status: ('A' for Active; 'I' for Inactive)
REMARK       I    between atoms: C2_2  and  C3_3 
REMARK       I    between atoms: C3_3  and  C5_5 
REMARK       I    between atoms: C5_5  and  C6_6 
REMARK       I    between atoms: C5_5  and  N11_104 
REMARK       I    between atoms: C6_6  and  C7_7 
REMARK       I    between atoms: C6_6  and  O15_91 
REMARK       I    between atoms: C7_7  and  C8_8 
REMARK       I    between atoms: C8_8  and  N1_94 
REMARK       I    between atoms: C10_10  and  O14_90 
REMARK       I    between atoms: C12_12  and  C13_13 
REMARK       I    between atoms: C13_13  and  C14_14 
REMARK       I    between atoms: C13_13  and  O13_89 
REMARK       I    between atoms: C14_14  and  C16_16 
REMARK       I    between atoms: C16_16  and  N2_95 
REMARK       I    between atoms: C17_17  and  C19_19 
REMARK       I    between atoms: C17_17  and  N2_95 
REMARK       I    between atoms: C19_19  and  C20_20 
REMARK       I    between atoms: C19_19  and  N3_96 
REMARK       I    between atoms: C23_23  and  O3_79 
REMARK       I    between atoms: C27_27  and  O5_81 
REMARK       I    between atoms: C27_27  and  N3_96 
REMARK       I    between atoms: C28_28  and  C29_29 
REMARK       I    between atoms: C28_28  and  O5_81 
REMARK       I    between atoms: C32_32  and  N4_97 
REMARK       I    between atoms: C35_35  and  C36_36 
REMARK       I    between atoms: C35_35  and  N4_97 
REMARK       I    between atoms: C36_36  and  C37_37 
REMARK       I    between atoms: C36_36  and  N7_100 
REMARK       I    between atoms: C37_37  and  C38_38 
REMARK       I    between atoms: C38_38  and  C39_39 
REMARK       I    between atoms: C39_39  and  N5_98 
REMARK       I    between atoms: C40_40  and  N5_98 
REMARK       I    between atoms: C40_40  and  N6_99 
REMARK       I    between atoms: C41_41  and  C42_42 
REMARK       I    between atoms: C41_41  and  N7_100 
REMARK       I    between atoms: C42_42  and  C43_43 
REMARK       I    between atoms: C42_42  and  N8_101 
REMARK       I    between atoms: C46_46  and  C47_47 
REMARK       I    between atoms: C46_46  and  N8_101 
REMARK       I    between atoms: C47_47  and  C48_48 
REMARK       I    between atoms: C48_48  and  C49_49 
REMARK       I    between atoms: C49_49  and  C50_50 
REMARK       I    between atoms: C50_50  and  C51_51 
REMARK       I    between atoms: C51_51  and  N9_102 
REMARK       I    between atoms: C54_54  and  S1_107 
REMARK       I    between atoms: C56_56  and  C57_57 
REMARK       I    between atoms: C56_56  and  S1_107 
REMARK       I    between atoms: C57_57  and  C60_60 
REMARK       I    between atoms: C60_60  and  C61_61 
REMARK       I    between atoms: C61_61  and  N10_103 
REMARK       I    between atoms: C65_65  and  C66_66 
REMARK       I    between atoms: C65_65  and  N11_104 
REMARK       I    between atoms: C66_66  and  C67_67 
REMARK       I    between atoms: C66_66  and  N12_105 
REMARK       I    between atoms: C70_70  and  C71_71 
REMARK       I    between atoms: C70_70  and  N12_105 
REMARK       I    between atoms: C71_71  and  C72_72 
REMARK       I    between atoms: C71_71  and  N13_106 
USER                              x       y       z     vdW  Elec       q    Type
USER                           _______ _______ _______ _____ _____    ______ ____
ROOT
ATOM      1  C1  UNL     1      26.768   6.396  -3.182+99.99 +0.00    +0.005 C 
ATOM      2  C2  UNL     1      25.297   6.750  -3.355+41.69 +0.00    +0.002 C 
ATOM      3  C3  UNL     1      24.600   7.428  -2.154 +0.49 +0.00    +0.006 C 
ATOM      4  C4  UNL     1      25.532   8.394  -1.411+54.39 +0.00    +0.012 C 
ATOM      5  C5  UNL     1      23.806   6.494  -1.162 -0.52 +0.00    +0.119 C 
ATOM      6  C6  UNL     1      22.578   5.796  -1.851+36.88 +0.00    +0.152 C 
ATOM      7  C7  UNL     1      21.797   4.809  -0.963+99.99 +0.00    +0.137 C 
ATOM      8  C8  UNL     1      21.408   5.315   0.411+99.99 +0.00    +0.222 C 
ATOM      9  C9  UNL     1      20.881   4.817   2.744+99.99 +0.00    +0.158 C 
ATOM     10  C10 UNL     1      21.126   3.602   3.627 +2.22 +0.00    +0.138 C 
ATOM     11  C11 UNL     1      21.012   2.386   2.714 +3.21 +0.00    +0.061 C 
ATOM     12  C12 UNL     1      21.006   2.909   1.267+21.04 +0.00    +0.119 C 
ATOM     13  C13 UNL     1      19.770   2.369   0.461+31.38 +0.00    +0.156 C 
ATOM     14  C14 UNL     1      18.453   3.153   0.695+99.99 +0.00    +0.105 C 
ATOM     15  C15 UNL     1      17.443   2.985  -0.447+99.99 +0.00    +0.022 C 
ATOM     16  C16 UNL     1      17.843   2.756   2.034+71.23 +0.00    +0.224 C 
ATOM     17  C17 UNL     1      16.579   1.037   3.308+99.99 +0.00    +0.107 C 
ATOM     18  C18 UNL     1      16.312  -0.462   3.159+99.99 +0.00    +0.034 C 
ATOM     19  C19 UNL     1      15.319   1.878   3.734+99.99 +0.00    +0.142 C 
ATOM     20  C20 UNL     1      14.371   2.191   2.578+99.99 -0.00    -0.033 A 
ATOM     21  C21 UNL     1      14.329   3.493   2.055+99.99 +0.00    +0.012 A 
ATOM     22  C22 UNL     1      13.488   3.813   0.984+99.99 +0.00    +0.037 A 
ATOM     23  C23 UNL     1      12.679   2.834   0.415+99.99 +0.00    +0.068 A 
ATOM     24  C24 UNL     1      12.691   1.544   0.949+99.99 +0.00    +0.037 A 
ATOM     25  C25 UNL     1      13.526   1.222   2.022+99.99 +0.00    +0.012 A 
ATOM     26  C26 UNL     1      12.089   4.159  -1.455+56.34 +0.00    +0.210 C 
ATOM     27  C27 UNL     1      15.108   1.293   6.098+99.99 +0.00    +0.361 C 
ATOM     28  C28 UNL     1      14.513   1.732   8.326+99.99 +0.00    +0.219 C 
ATOM     29  C29 UNL     1      14.534   3.241   8.353+99.99 -0.00    -0.034 A 
ATOM     30  C30 UNL     1      15.747   3.936   8.307+99.99 +0.00    +0.011 A 
ATOM     31  C31 UNL     1      15.769   5.330   8.180+99.99 +0.00    +0.030 A 
ATOM     32  C32 UNL     1      14.578   6.046   8.087 -0.53 +0.00    +0.034 A 
ATOM     33  C33 UNL     1      13.362   5.357   8.175 -0.54 +0.00    +0.030 A 
ATOM     34  C34 UNL     1      13.339   3.967   8.306 -0.34 +0.00    +0.011 A 
ATOM     35  C35 UNL     1      15.551   8.306   7.603+99.99 +0.00    +0.245 C 
ATOM     36  C36 UNL     1      15.093   9.678   7.050+99.99 +0.00    +0.177 C 
ATOM     37  C37 UNL     1      14.257  10.469   8.066 +2.07 +0.00    +0.036 C 
ATOM     38  C38 UNL     1      13.941  11.889   7.582 +3.40 +0.00    +0.022 C 
ATOM     39  C39 UNL     1      13.142  12.687   8.608 +1.42 +0.00    +0.124 C 
ATOM     40  C40 UNL     1      11.053  12.591   9.847+99.99 +0.00    +0.291 C 
ATOM     41  C41 UNL     1      13.237   8.974   5.501 +1.46 +0.00    +0.241 C 
ATOM     42  C42 UNL     1      12.849   8.771   4.018 +0.38 +0.00    +0.180 C 
ATOM     43  C43 UNL     1      12.352  10.059   3.324+63.25 +0.00    +0.009 C 
ATOM     44  C44 UNL     1      11.196  10.734   4.069+99.99 +0.00    +0.012 C 
ATOM     45  C45 UNL     1      13.480  11.065   3.085+99.99 +0.00    +0.012 C 
ATOM     46  C46 UNL     1      11.570   6.942   2.905 -0.29 +0.00    +0.218 C 
ATOM     47  C47 UNL     1      10.481   5.915   3.156 -0.25 +0.00    +0.103 C 
ATOM     48  C48 UNL     1       9.866   5.358   1.873 -0.13 +0.00    +0.009 C 
ATOM     49  C49 UNL     1       8.959   6.374   1.180 -0.29 +0.00    +0.002 C 
ATOM     50  C50 UNL     1       8.427   5.918  -0.183 -0.23 +0.00    +0.020 C 
ATOM     51  C51 UNL     1       7.407   4.775  -0.124 -0.11 +0.00    +0.135 C 
ATOM     52  C52 UNL     1       7.869   2.527   0.820 -0.11 +0.00    +0.228 C 
ATOM     53  C53 UNL     1       8.518   1.241   0.404 -0.23 +0.00    +0.128 C 
ATOM     54  C54 UNL     1       8.881   1.467  -1.052 -0.13 +0.00    +0.148 C 
ATOM     55  C55 UNL     1       8.527   2.912  -1.320 -0.06 +0.00    +0.240 C 
ATOM     56  C56 UNL     1       6.286   0.746  -1.929 -0.14 +0.00    +0.084 C 
ATOM     57  C57 UNL     1       5.508   0.557  -3.216 -0.10 -0.00    -0.024 A 
ATOM     58  C58 UNL     1       5.197  -0.860  -3.672 +0.01 +0.00    +0.011 A 
ATOM     59  C59 UNL     1       4.102  -0.007  -3.104 -0.06 +0.00    +0.011 A 
ATOM     60  C60 UNL     1       5.749   1.609  -4.293 -0.09 +0.00    +0.112 C 
ATOM     61  C61 UNL     1       5.397   3.017  -3.850 -0.09 +0.00    +0.216 C 
ATOM     62  C62 UNL     1      20.741   1.205  -1.397+99.99 +0.00    +0.202 C 
ATOM     63  C63 UNL     1      20.997   6.446  -3.532+99.99 +0.00    +0.202 C 
ATOM     64  C64 UNL     1      24.860   6.087   1.048 -0.39 +0.00    +0.153 C 
ATOM     65  C65 UNL     1      25.212   4.447  -0.860 -0.38 +0.00    +0.243 C 
ATOM     66  C66 UNL     1      26.318   3.630  -0.124 +8.21 +0.00    +0.180 C 
ATOM     67  C67 UNL     1      25.778   2.454   0.737+99.99 +0.00    +0.009 C 
ATOM     68  C68 UNL     1      24.943   1.479  -0.102+99.99 +0.00    +0.012 C 
ATOM     69  C69 UNL     1      24.993   2.858   1.982+99.99 +0.00    +0.012 C 
ATOM     70  C70 UNL     1      28.523   4.072   1.008 +0.74 +0.00    +0.252 C 
ATOM     71  C71 UNL     1      29.441   5.280   1.435 +1.13 +0.00    +0.316 C 
ATOM     72  C72 UNL     1      30.736   4.787   2.157 +0.64 +0.00    +0.020 C 
ATOM     73  C73 UNL     1      31.654   4.020   1.184 -0.23 +0.00    +0.012 C 
ATOM     74  C74 UNL     1      31.589   5.910   2.760 -0.07 +0.00    +0.012 C 
ATOM     75  C75 UNL     1      28.944   7.645   2.004 -0.24 +0.00    +0.310 C 
ATOM     76  C76 UNL     1      28.197   5.884   3.493+99.99 +0.00    +0.310 C 
ATOM     77  O1  UNL     1      21.345   6.517   0.672+99.99 -0.00    -0.273 OA
ATOM     78  O2  UNL     1      17.981   3.456   3.036 +0.52 -0.00    -0.273 OA
ATOM     79  O3  UNL     1      11.820   3.026  -0.632 +0.75 -0.00    -0.356 OA
ATOM     80  O4  UNL     1      16.301   1.308   6.345 +3.79 -0.00    -0.238 OA
ATOM     81  O5  UNL     1      14.108   1.321   7.011+99.99 -0.00    -0.299 OA
ATOM     82  O6  UNL     1      16.746   8.080   7.776+99.99 -0.00    -0.271 OA
ATOM     83  O7  UNL     1      11.396  13.394  10.699+29.14 -0.00    -0.254 OA
ATOM     84  O8  UNL     1      12.477   8.663   6.421 -0.20 -0.00    -0.271 OA
ATOM     85  O9  UNL     1      12.182   7.047   1.848 -0.31 -0.00    -0.274 OA
ATOM     86  O10 UNL     1       7.304   2.685   1.893 -0.12 -0.00    -0.273 OA
ATOM     87  O11 UNL     1       8.622   3.477  -2.403 -0.13 -0.00    -0.272 OA
ATOM     88  O12 UNL     1       4.318   3.329  -3.355 -0.09 -0.00    -0.274 OA
ATOM     89  O13 UNL     1      20.061   2.372  -0.949+77.60 -0.00    -0.388 OA
ATOM     90  O14 UNL     1      20.195   3.509   4.695 +1.18 -0.00    -0.394 OA
ATOM     91  O15 UNL     1      21.694   6.823  -2.352 +4.49 -0.00    -0.388 OA
ATOM     92  O16 UNL     1      24.783   3.991  -1.927 -0.03 -0.00    -0.271 OA
ATOM     93  O17 UNL     1      28.853   2.894   1.053 -0.53 -0.00    -0.271 OA
ATOM     94  N1  UNL     1      21.116   4.372   1.383+99.99 -0.00    -0.342 N 
ATOM     95  N2  UNL     1      17.221   1.530   2.078+99.99 -0.00    -0.354 N 
ATOM     96  N3  UNL     1      14.559   1.331   4.850+99.99 -0.00    -0.326 N 
ATOM     97  N4  UNL     1      14.507   7.429   7.835 +3.25 -0.00    -0.325 N 
ATOM     98  N5  UNL     1      11.823  12.129   8.820+99.99 -0.00    -0.348 N 
ATOM     99  N6  UNL     1       9.813  12.041   9.835+99.99 -0.00    -0.254 NA
ATOM    100  N7  UNL     1      14.483   9.514   5.721 +3.21 -0.00    -0.346 N 
ATOM    101  N8  UNL     1      11.828   7.725   4.004 -0.18 -0.00    -0.347 N 
ATOM    102  N9  UNL     1       8.007   3.452  -0.174 -0.01 -0.00    -0.287 N 
ATOM    103  N10 UNL     1       6.372   3.954  -4.030 -0.04 -0.00    -0.370 N 
ATOM    104  N11 UNL     1      24.676   5.618  -0.326 -0.22 -0.00    -0.347 N 
ATOM    105  N12 UNL     1      27.297   4.488   0.530 -0.07 -0.00    -0.346 N 
ATOM    106  N13 UNL     1      28.542   6.251   2.124+12.23 +0.00    +0.094 N 
ATOM    107  S1  UNL     1       8.041   0.341  -2.226 -0.26 -0.00    -0.153 SA
ATOM    108  HB0 UNL     1      19.291   3.541   4.309 +0.15 +0.00    +0.210 HD
ATOM    109  HB1 UNL     1      16.871   1.148   1.208+99.99 +0.00    +0.162 HD
ATOM    110  HB2 UNL     1      13.573   1.551   4.885+99.99 +0.00    +0.165 HD
ATOM    111  HB3 UNL     1      13.571   7.799   7.666 +0.13 +0.00    +0.169 HD
ATOM    112  HB4 UNL     1      11.285  11.902   7.995+99.99 +0.00    +0.163 HD
ATOM    113  HB5 UNL     1       9.280  12.280  10.664+99.99 +0.00    +0.128 HD
ATOM    114  HB6 UNL     1       9.779  11.060   9.597 -0.44 +0.00    +0.128 HD
ATOM    115  HB7 UNL     1      15.140   9.485   4.948 +0.14 +0.00    +0.163 HD
ATOM    116  HB8 UNL     1      11.311   7.580   4.866 +0.11 +0.00    +0.163 HD
ATOM    117  HB9 UNL     1       7.346   3.673  -3.910 +0.03 +0.00    +0.159 HD
ATOM    118  HC0 UNL     1       6.160   4.863  -3.643 +0.14 +0.00    +0.159 HD
ATOM    119  HC1 UNL     1      27.205   5.496   0.449 +0.10 +0.00    +0.163 HD
ENDROOT
TORSDOF 47
TER
