USER    Run = 1
USER    DPF = ligand_164_receptor.dpf
USER  
USER    Estimated Free Energy of Binding    =  -10.10 kcal/mol  [=(1)+(2)+(3)-(4)]
USER    Estimated Inhibition Constant, Ki   =   39.31 nM (nanomolar)  [Temperature = 298.15 K]
USER    
USER    (1) Final Intermolecular Energy     =  -11.30 kcal/mol
USER        vdW + Hbond + desolv Energy     =  -11.30 kcal/mol
USER        Electrostatic Energy            =   +0.00 kcal/mol
USER    (2) Final Total Internal Energy     =   -2.12 kcal/mol
USER    (3) Torsional Free Energy           =   +1.19 kcal/mol
USER    (4) Unbound System's Energy  [=(2)] =   -2.12 kcal/mol
USER    
USER    
USER    NEWDPF move ligand_164.pdbqt
USER    NEWDPF about 0.000000 0.000000 0.000000
USER    NEWDPF tran0 13.931342 7.991076 3.641788
USER    NEWDPF quaternion0 0.096553 -0.589428 0.796086 0.097463
USER    NEWDPF axisangle0 0.097015 -0.592247 0.799895 168.813750
USER    NEWDPF quat0 0.097015 -0.592247 0.799895 168.813750
USER    NEWDPF dihe0 -47.08 75.71 -160.26 133.86 178.43 51.36 -128.48 180.00 180.00 95.85 -58.25 90.48 
USER  keepresnum = 1 
USER  
REMARK  12 active torsions:
REMARK  status: ('A' for Active; 'I' for Inactive)
REMARK       I    between atoms: C2_2  and  N1_30 
REMARK       I    between atoms: C2_2  and  N2_31 
REMARK       I    between atoms: C2_2  and  N3_32 
REMARK    1  A    between atoms: C3_3  and  C4_4 
REMARK    2  A    between atoms: C3_3  and  N3_32 
REMARK    3  A    between atoms: C4_4  and  C5_5 
REMARK    4  A    between atoms: C5_5  and  N4_33 
REMARK    5  A    between atoms: C6_6  and  C7_7 
REMARK       I    between atoms: C6_6  and  N4_33 
REMARK    6  A    between atoms: C13_13  and  C15_15 
REMARK       I    between atoms: C15_15  and  N6_35 
REMARK    7  A    between atoms: C16_16  and  N6_35 
REMARK    8  A    between atoms: C23_23  and  C24_24 
REMARK       I    between atoms: C24_24  and  N8_37 
REMARK    9  A    between atoms: C25_25  and  C26_26 
REMARK   10  A    between atoms: C25_25  and  N8_37 
REMARK   11  A    between atoms: C26_26  and  C27_27 
REMARK   12  A    between atoms: C27_27  and  N9_38 
REMARK       I    between atoms: C28_28  and  N9_38 
REMARK       I    between atoms: C28_28  and  N11_41 
USER                              x       y       z     vdW  Elec       q    Type
USER                           _______ _______ _______ _____ _____    ______ ____
ROOT
ATOM      1  C15 UNL     1      14.067   8.401   3.971 -0.28 +0.00    +0.272 C 
ATOM      2  N6  UNL     1      14.863   8.502   2.843 -0.17 -0.00    -0.322 N 
ATOM      3  O2  UNL     1      14.255   8.996   5.025 -0.11 -0.00    -0.266 OA
ATOM      4  H34 UNL     1      14.477   8.142   1.983 -0.36 +0.00    +0.169 HD
ENDROOT
BRANCH   1   5
ATOM      5  C13 UNL     1      12.917   7.529   3.791 -0.37 +0.00    +0.102 A 
ATOM      6  C14 UNL     1      12.313   6.723   4.742 -0.35 +0.00    +0.049 A 
ATOM      7  C9  UNL     1      11.228   6.037   4.135 -0.30 -0.00    -0.006 A 
ATOM      8  C8  UNL     1      10.268   5.116   4.601 -0.27 +0.00    +0.030 A 
ATOM      9  C10 UNL     1      11.210   6.413   2.795 -0.30 +0.00    +0.043 A 
ATOM     10  C7  UNL     1       9.310   4.615   3.704 -0.23 +0.00    +0.033 A 
ATOM     11  C12 UNL     1       9.331   5.002   2.360 -0.15 +0.00    +0.019 A 
ATOM     12  C11 UNL     1      10.280   5.910   1.879 -0.22 +0.00    +0.031 A 
ATOM     13  N5  UNL     1      12.251   7.294   2.608 -0.19 -0.00    -0.351 N 
ATOM     14  H33 UNL     1      12.515   7.672   1.710 -0.05 +0.00    +0.166 HD
BRANCH  10  15
ATOM     15  C6  UNL     1       8.268   3.642   4.138 -0.21 +0.00    +0.251 C 
ATOM     16  N4  UNL     1       7.799   2.774   3.173 -0.12 -0.00    -0.357 N 
ATOM     17  H32 UNL     1       8.272   2.717   2.282 +0.04 +0.00    +0.162 HD
ATOM     18  O1  UNL     1       7.900   3.617   5.307 -0.24 -0.00    -0.268 OA
BRANCH  16  19
ATOM     19  C5  UNL     1       6.823   1.745   3.483 -0.14 +0.00    +0.124 C 
BRANCH  19  20
ATOM     20  C4  UNL     1       5.972   1.389   2.265 -0.28 +0.00    +0.050 C 
BRANCH  20  21
ATOM     21  C3  UNL     1       6.336   2.227   1.037 -0.08 +0.00    +0.276 C 
BRANCH  21  22
ATOM     22  N3  UNL     1       5.500   3.429   0.962 -0.06 +0.00    +0.147 N 
ATOM     23  C2  UNL     1       6.261   4.618   0.749 +0.06 +0.00    +0.675 C 
ATOM     24  N1  UNL     1       6.762   4.658  -0.582 -0.10 +0.00    +0.142 N 
ATOM     25  N2  UNL     1       5.257   5.627   0.710 -0.20 +0.00    +0.142 N 
ATOM     26  C1  UNL     1       8.217   4.629  -0.622 -0.04 +0.00    +0.312 C 
ATOM     27  H28 UNL     1       6.457   5.557  -0.948 -0.47 +0.00    +0.320 HD
ATOM     28  H29 UNL     1       4.804   5.669   1.615 +0.09 +0.00    +0.318 HD
ATOM     29  H30 UNL     1       4.555   5.241   0.080 +0.07 +0.00    +0.318 HD
ATOM     30  H31 UNL     1       5.014   3.526   1.846 +0.10 +0.00    +0.321 HD
ENDBRANCH  21  22
ENDBRANCH  20  21
ENDBRANCH  19  20
ENDBRANCH  16  19
ENDBRANCH  10  15
ENDBRANCH   1   5
BRANCH   2  31
ATOM     31  C16 UNL     1      16.090   9.190   2.713 -0.45 +0.00    +0.037 A 
ATOM     32  C17 UNL     1      17.340   8.564   2.796 -0.50 +0.00    +0.059 A 
ATOM     33  C18 UNL     1      18.486   9.357   2.637 -0.42 +0.00    +0.045 A 
ATOM     34  C19 UNL     1      18.434  10.725   2.401 -0.47 -0.00    -0.007 A 
ATOM     35  N7  UNL     1      19.814   9.007   2.672 +0.01 -0.00    -0.351 N 
ATOM     36  C20 UNL     1      17.176  11.345   2.314 -0.53 +0.00    +0.016 A 
ATOM     37  C22 UNL     1      19.776  11.185   2.296 -0.36 +0.00    +0.049 A 
ATOM     38  C21 UNL     1      16.018  10.568   2.470 -0.42 +0.00    +0.030 A 
ATOM     39  C23 UNL     1      20.625  10.103   2.467 -0.35 +0.00    +0.102 A 
ATOM     40  H35 UNL     1      20.169   8.071   2.829 +0.19 +0.00    +0.166 HD
BRANCH  39  41
ATOM     41  C24 UNL     1      22.065   9.973   2.460 -0.14 +0.00    +0.268 C 
ATOM     42  N8  UNL     1      22.667  10.002   3.698 -0.24 -0.00    -0.356 N 
ATOM     43  H36 UNL     1      22.097  10.164   4.514 +0.13 +0.00    +0.162 HD
ATOM     44  O3  UNL     1      22.703   9.851   1.419 -0.24 -0.00    -0.266 OA
BRANCH  42  45
ATOM     45  C25 UNL     1      24.106   9.949   3.851 -0.58 +0.00    +0.124 C 
BRANCH  45  46
ATOM     46  C26 UNL     1      24.616   8.547   4.178 -0.48 +0.00    +0.039 C 
BRANCH  46  47
ATOM     47  C27 UNL     1      25.585   8.033   3.117 -0.54 +0.00    +0.123 C 
BRANCH  47  48
ATOM     48  N9  UNL     1      25.040   8.269   1.787 -0.14 -0.00    -0.367 N 
ATOM     49  C28 UNL     1      24.559   7.232   1.045 -0.38 +0.00    +0.145 C 
ATOM     50  N10 UNL     1      24.673   6.005   1.396 -0.14 -0.00    -0.371 N 
ATOM     51  N11 UNL     1      23.976   7.736  -0.072 -0.25 -0.00    -0.274 NA
ATOM     52  C29 UNL     1      24.105   4.976   0.541 -0.54 +0.00    +0.148 C 
ATOM     53  H10 UNL     1      25.154   5.756   2.259 +0.12 +0.00    +0.161 HD
ATOM     54  H38 UNL     1      23.800   7.042  -0.787 +0.09 +0.00    +0.127 HD
ATOM     55  H39 UNL     1      24.513   8.506  -0.456 +0.09 +0.00    +0.127 HD
ATOM     56  H37 UNL     1      24.431   9.077   1.741 +0.13 +0.00    +0.162 HD
ENDBRANCH  47  48
ENDBRANCH  46  47
ENDBRANCH  45  46
ENDBRANCH  42  45
ENDBRANCH  39  41
ENDBRANCH   2  31
TORSDOF 12
TER
