USER    Run = 1
USER    DPF = ligand_167_receptor.dpf
USER  
USER    Estimated Free Energy of Binding    =   -8.85 kcal/mol  [=(1)+(2)+(3)-(4)]
USER    Estimated Inhibition Constant, Ki   =  325.09 nM (nanomolar)  [Temperature = 298.15 K]
USER    
USER    (1) Final Intermolecular Energy     =  -10.04 kcal/mol
USER        vdW + Hbond + desolv Energy     =  -10.04 kcal/mol
USER        Electrostatic Energy            =   +0.00 kcal/mol
USER    (2) Final Total Internal Energy     =   -3.35 kcal/mol
USER    (3) Torsional Free Energy           =   +1.19 kcal/mol
USER    (4) Unbound System's Energy  [=(2)] =   -3.35 kcal/mol
USER    
USER    
USER    NEWDPF move ligand_167.pdbqt
USER    NEWDPF about 0.000000 0.000000 0.000000
USER    NEWDPF tran0 13.487071 7.043502 4.367331
USER    NEWDPF quaternion0 0.163485 -0.002497 0.132623 -0.977588
USER    NEWDPF axisangle0 0.776544 -0.011858 0.629951 -24.306683
USER    NEWDPF quat0 0.776544 -0.011858 0.629951 -24.306683
USER    NEWDPF dihe0 -180.00 97.98 -26.68 -58.41 26.44 -97.60 179.94 128.73 
USER  keepresnum = 1 
USER  
REMARK  8 active torsions:
REMARK  status: ('A' for Active; 'I' for Inactive)
REMARK    1  A    between atoms: C5_5  and  C6_6 
REMARK       I    between atoms: C6_6  and  N2_33 
REMARK    2  A    between atoms: C11_11  and  C12_12 
REMARK       I    between atoms: C11_11  and  N3_34 
REMARK    3  A    between atoms: C15_15  and  N4_35 
REMARK    4  A    between atoms: C18_18  and  C19_19 
REMARK       I    between atoms: C18_18  and  N4_35 
REMARK    5  A    between atoms: C21_21  and  C23_23 
REMARK    6  A    between atoms: C25_25  and  C26_26 
REMARK    7  A    between atoms: C27_27  and  N7_39 
REMARK    8  A    between atoms: C29_29  and  N10_44 
USER                              x       y       z     vdW  Elec       q    Type
USER                           _______ _______ _______ _____ _____    ______ ____
ROOT
ATOM      1  C18 UNL     1      14.965   8.088   4.330 -0.34 +0.00    +0.290 C 
ATOM      2  N4  UNL     1      14.324   7.841   3.127 -0.22 -0.00    -0.320 N 
ATOM      3  O3  UNL     1      14.542   7.770   5.437 -0.23 -0.00    -0.264 OA
ATOM      4  H31 UNL     1      14.853   8.180   2.324 -0.20 +0.00    +0.169 HD
ENDROOT
BRANCH   1   5
ATOM      5  C19 UNL     1      16.236   8.776   4.113 -0.32 +0.00    +0.177 A 
ATOM      6  N5  UNL     1      16.517   9.912   4.732 +0.17 -0.00    -0.345 N 
ATOM      7  C20 UNL     1      17.731  10.311   4.241 +0.23 +0.00    +0.120 A 
ATOM      8  H5  UNL     1      15.948  10.390   5.430 +0.34 +0.00    +0.167 HD
ATOM      9  C21 UNL     1      18.212   9.424   3.300 -0.41 +0.00    +0.065 A 
ATOM     10  N6  UNL     1      17.282   8.403   3.293 -0.29 -0.00    -0.331 N 
ATOM     11  C22 UNL     1      17.396   7.128   2.626 -0.20 +0.00    +0.158 C 
BRANCH   9  12
ATOM     12  C23 UNL     1      19.516   9.585   2.446 -0.34 +0.00    +0.043 A 
ATOM     13  C24 UNL     1      20.764   9.130   2.805 -0.15 +0.00    +0.134 A 
ATOM     14  N7  UNL     1      21.639   9.442   1.782 -0.24 -0.00    -0.250 N 
ATOM     15  N8  UNL     1      20.991  10.081   0.778 -0.25 -0.00    -0.288 N 
ATOM     16  C25 UNL     1      19.703  10.169   1.158 -0.31 +0.00    +0.146 A 
ATOM     17  H8  UNL     1      21.398  10.426  -0.091 +0.15 +0.00    +0.187 HD
BRANCH  14  18
ATOM     18  C27 UNL     1      23.047   9.169   1.697 -0.35 +0.00    +0.126 A 
ATOM     19  C31 UNL     1      23.923   9.664   2.661 -0.46 +0.00    +0.052 A 
ATOM     20  C30 UNL     1      25.288   9.383   2.542 -0.56 +0.00    +0.028 A 
ATOM     21  C29 UNL     1      25.768   8.654   1.458 -0.44 +0.00    +0.021 A 
ATOM     22  C28 UNL     1      24.812   8.153   0.582 -0.33 +0.00    +0.113 A 
ATOM     23  N9  UNL     1      23.485   8.411   0.659 -0.18 -0.00    -0.349 N 
ATOM     24  H9  UNL     1      22.837   8.048  -0.040 +0.12 +0.00    +0.167 HD
BRANCH  21  25
ATOM     25  N10 UNL     1      27.108   8.261   1.403 -0.24 -0.00    -0.302 NA
ATOM     26  H32 UNL     1      27.272   7.388   0.912 +0.08 +0.00    +0.124 HD
ATOM     27  H33 UNL     1      27.592   8.295   2.297 +0.03 +0.00    +0.124 HD
ENDBRANCH  21  25
ENDBRANCH  14  18
BRANCH  16  28
ATOM     28  C26 UNL     1      18.681  10.828   0.273 -0.20 +0.00    +0.434 C 
ATOM     29  F1  UNL     1      17.737  11.486   1.002 -0.17 -0.00    -0.165 F 
ATOM     30  F2  UNL     1      19.250  11.759  -0.543 -0.21 -0.00    -0.165 F 
ATOM     31  F3  UNL     1      18.011   9.968  -0.537 -0.15 -0.00    -0.165 F 
ENDBRANCH  16  28
ENDBRANCH   9  12
ENDBRANCH   1   5
BRANCH   2  32
ATOM     32  C15 UNL     1      13.101   7.194   2.894 -0.31 +0.00    +0.036 A 
ATOM     33  C14 UNL     1      12.404   6.723   4.015 -0.35 +0.00    +0.054 A 
ATOM     34  C13 UNL     1      11.176   6.069   3.871 -0.26 +0.00    +0.051 A 
ATOM     35  C12 UNL     1      10.634   5.888   2.597 -0.21 +0.00    +0.054 A 
ATOM     36 CL1  UNL     1      10.398   5.484   5.297 -0.41 -0.00    -0.083 Cl
ATOM     37  C17 UNL     1      11.325   6.348   1.472 -0.32 +0.00    +0.021 A 
ATOM     38  C16 UNL     1      12.552   7.002   1.623 -0.12 +0.00    +0.030 A 
BRANCH  35  39
ATOM     39  C11 UNL     1       9.343   5.198   2.397 -0.10 +0.00    +0.255 C 
ATOM     40  N3  UNL     1       8.203   6.002   2.326 -0.05 -0.00    -0.345 N 
ATOM     41  C8  UNL     1       6.915   5.333   2.492 -0.14 +0.00    +0.146 C 
ATOM     42  C9  UNL     1       8.168   7.062   1.296 -0.30 +0.00    +0.146 C 
ATOM     43  C7  UNL     1       6.520   4.584   1.200 -0.10 +0.00    +0.145 C 
ATOM     44  N2  UNL     1       7.183   5.155   0.013 -0.03 -0.00    -0.347 N 
ATOM     45  C6  UNL     1       8.165   4.489  -0.712 -0.06 +0.00    +0.251 C 
ATOM     46  C10 UNL     1       7.296   6.626   0.086 -0.26 +0.00    +0.145 C 
ATOM     47  O1  UNL     1       9.104   5.111  -1.223 -0.10 -0.00    -0.271 OA
ATOM     48  O2  UNL     1       9.314   3.971   2.275 -0.06 -0.00    -0.267 OA
BRANCH  45  49
ATOM     49  C5  UNL     1       8.174   2.945  -0.850 -0.03 +0.00    +0.279 C 
ATOM     50  C4  UNL     1       7.009   2.117  -0.308 -0.12 +0.00    +0.045 C 
ATOM     51  C3  UNL     1       7.616   1.079   0.630 -0.23 +0.00    +0.030 C 
ATOM     52  C2  UNL     1       9.049   0.918   0.166 -0.21 +0.00    +0.235 C 
ATOM     53  N1  UNL     1       9.437   2.290  -0.284 -0.18 -0.00    -0.062 N 
ATOM     54  C1  UNL     1      10.603   2.313  -1.218 -0.13 +0.00    +0.270 C 
ATOM     55  H30 UNL     1       9.747   2.853   0.541 -0.30 +0.00    +0.280 HD
ENDBRANCH  45  49
ENDBRANCH  35  39
ENDBRANCH   2  32
TORSDOF 8
TER
