USER    Run = 1
USER    DPF = ligand_430_receptor.dpf
USER  
USER    Estimated Free Energy of Binding    = +447.14 kcal/mol  [=(1)+(2)+(3)-(4)]
USER    
USER    (1) Final Intermolecular Energy     = +445.95 kcal/mol
USER        vdW + Hbond + desolv Energy     = +445.95 kcal/mol
USER        Electrostatic Energy            =   +0.00 kcal/mol
USER    (2) Final Total Internal Energy     = +112.42 kcal/mol
USER    (3) Torsional Free Energy           =   +1.19 kcal/mol
USER    (4) Unbound System's Energy  [=(2)] = +112.42 kcal/mol
USER    
USER    
USER    NEWDPF move ligand_430.pdbqt
USER    NEWDPF about 0.000000 0.000000 0.000000
USER    NEWDPF tran0 10.424377 4.632898 9.691202
USER    NEWDPF quaternion0 -0.318013 -0.413767 -0.703461 -0.482502
USER    NEWDPF axisangle0 -0.363072 -0.472393 -0.803134 -122.302122
USER    NEWDPF quat0 -0.363072 -0.472393 -0.803134 -122.302122
USER    NEWDPF dihe0 -104.80 -77.06 16.82 169.07 179.45 -9.49 136.85 -173.86 180.00 108.23 150.57 9.35 114.77 -142.96 -26.79 -112.50 11.74 -142.87 -148.82 
USER  keepresnum = 1 
USER  
REMARK  19 active torsions:
REMARK  status: ('A' for Active; 'I' for Inactive)
REMARK    1  A    between atoms: C3_3  and  C54_54 
REMARK    2  A    between atoms: C5_5  and  C8_8 
REMARK       I    between atoms: C8_8  and  N1_67 
REMARK    3  A    between atoms: C9_9  and  N1_67 
REMARK    4  A    between atoms: C11_11  and  C53_53 
REMARK    5  A    between atoms: C12_12  and  C15_15 
REMARK    6  A    between atoms: C15_15  and  N2_68 
REMARK    7  A    between atoms: C20_20  and  C21_21 
REMARK    8  A    between atoms: C20_20  and  N3_69 
REMARK    9  A    between atoms: C21_21  and  C22_22 
REMARK   10  A    between atoms: C23_23  and  C42_42 
REMARK   11  A    between atoms: C25_25  and  C28_28 
REMARK       I    between atoms: C28_28  and  N4_70 
REMARK   12  A    between atoms: C29_29  and  N4_70 
REMARK   13  A    between atoms: C31_31  and  C41_41 
REMARK   14  A    between atoms: C32_32  and  C35_35 
REMARK   15  A    between atoms: C35_35  and  N5_71 
REMARK   16  A    between atoms: C43_43  and  C44_44 
REMARK   17  A    between atoms: C52_52  and  N8_75 
REMARK   18  A    between atoms: C55_55  and  C56_56 
REMARK   19  A    between atoms: C58_58  and  N10_78 
USER                              x       y       z     vdW  Elec       q    Type
USER                           _______ _______ _______ _____ _____    ______ ____
ROOT
ATOM      1  C21 UNL     1       9.079   3.932   5.777 -0.41 +0.00    +0.070 C 
ENDROOT
BRANCH   1   2
ATOM      2  C20 UNL     1       9.664   3.519   7.141 -0.35 +0.00    +0.277 C 
BRANCH   2   3
ATOM      3  N3  UNL     1      10.327   4.621   7.865 -0.38 +0.00    +0.092 N 
ATOM      4  C17 UNL     1      11.364   5.277   7.038 -0.23 +0.00    +0.302 C 
ATOM      5  C16 UNL     1      12.186   6.329   7.822 -0.13 +0.00    +0.303 C 
ATOM      6  N2  UNL     1      12.813   5.827   9.061 -0.41 +0.00    +0.096 N 
ATOM      7  C19 UNL     1      11.764   5.167   9.869 +1.22 +0.00    +0.303 C 
ATOM      8  C18 UNL     1      10.930   4.107   9.113 +4.47 +0.00    +0.302 C 
BRANCH   6   9
ATOM      9  C15 UNL     1      13.947   4.946   8.752 +1.73 +0.00    +0.311 C 
BRANCH   9  10
ATOM     10  C12 UNL     1      14.982   5.621   7.870 +0.60 -0.00    -0.015 A 
ATOM     11  C11 UNL     1      14.886   5.633   6.462 +3.31 +0.00    +0.058 A 
ATOM     12  C10 UNL     1      15.877   6.312   5.718+14.93 +0.00    +0.046 A 
ATOM     13  C9  UNL     1      16.958   6.952   6.337+21.10 +0.00    +0.035 A 
ATOM     14  C14 UNL     1      17.051   6.913   7.724+56.60 +0.00    +0.030 A 
ATOM     15  C13 UNL     1      16.075   6.259   8.482+80.41 +0.00    +0.012 A 
BRANCH  11  16
ATOM     16  C53 UNL     1      13.746   4.973   5.710 +0.79 +0.00    +0.418 C 
ATOM     17  F4  UNL     1      13.113   3.984   6.399 -0.22 -0.00    -0.166 F 
ATOM     18  F5  UNL     1      12.791   5.849   5.296 -0.12 -0.00    -0.166 F 
ATOM     19  F6  UNL     1      14.182   4.364   4.562+37.89 -0.00    -0.166 F 
ENDBRANCH  11  16
BRANCH  13  20
ATOM     20  N1  UNL     1      17.896   7.591   5.499+24.48 -0.00    -0.323 N 
ATOM     21  C8  UNL     1      17.649   8.224   4.294 -0.26 +0.00    +0.256 C 
ATOM     22  O1  UNL     1      16.578   8.291   3.703 -0.48 -0.00    -0.267 OA
ATOM     23  H52 UNL     1      18.863   7.513   5.786 +4.05 +0.00    +0.169 HD
BRANCH  21  24
ATOM     24  C5  UNL     1      18.843   8.846   3.657 -0.37 +0.00    +0.033 A 
ATOM     25  C4  UNL     1      19.799   8.080   2.981 +6.12 +0.00    +0.038 A 
ATOM     26  C3  UNL     1      20.911   8.699   2.398 +2.28 +0.00    +0.025 A 
ATOM     27  C2  UNL     1      21.080  10.093   2.492 -0.39 -0.00    -0.043 A 
ATOM     28  C1  UNL     1      22.267  10.787   1.879+15.88 +0.00    +0.049 C 
ATOM     29  C7  UNL     1      20.125  10.847   3.190 +3.77 +0.00    +0.009 A 
ATOM     30  C6  UNL     1      19.018  10.228   3.773+10.13 +0.00    +0.017 A 
BRANCH  26  31
ATOM     31  C54 UNL     1      21.867   7.877   1.717+15.75 -0.00    -0.061 C 
ATOM     32  C55 UNL     1      22.665   7.187   1.140 +2.69 -0.00    -0.059 C 
BRANCH  32  33
ATOM     33  C56 UNL     1      23.616   6.362   0.455 -0.44 +0.00    +0.044 A 
ATOM     34  C57 UNL     1      23.158   5.498  -0.529 +0.98 +0.00    +0.111 A 
ATOM     35  N9  UNL     1      23.948   4.671  -1.242 +1.01 -0.00    -0.355 N 
ATOM     36  C58 UNL     1      25.266   4.691  -0.980 -0.43 +0.00    +0.088 A 
ATOM     37  H9  UNL     1      23.559   4.053  -1.955 +1.71 +0.00    +0.166 HD
ATOM     38  C59 UNL     1      25.853   5.530   0.000 -0.41 +0.00    +0.014 A 
ATOM     39  C60 UNL     1      27.242   5.554   0.279 -0.27 +0.00    +0.015 A 
ATOM     40  C64 UNL     1      24.998   6.389   0.735 -0.43 -0.00    -0.003 A 
ATOM     41  C61 UNL     1      27.778   6.397   1.253 +0.74 +0.00    +0.001 A 
ATOM     42  C62 UNL     1      26.942   7.238   1.972 -0.04 +0.00    +0.001 A 
ATOM     43  C63 UNL     1      25.570   7.234   1.718 -0.41 +0.00    +0.014 A 
BRANCH  36  44
ATOM     44  N10 UNL     1      26.044   3.812  -1.751 -0.49 -0.00    -0.288 NA
ATOM     45  H56 UNL     1      25.504   3.499  -2.551 +0.06 +0.00    +0.125 HD
ATOM     46  H57 UNL     1      26.871   4.298  -2.083 +0.06 +0.00    +0.125 HD
ENDBRANCH  36  44
ENDBRANCH  32  33
ENDBRANCH  26  31
ENDBRANCH  21  24
ENDBRANCH  13  20
ENDBRANCH   9  10
ENDBRANCH   6   9
ENDBRANCH   2   3
ENDBRANCH   1   2
BRANCH   1  47
ATOM     47  C22 UNL     1       9.941   4.962   5.071 -0.28 -0.00    -0.038 A 
ATOM     48  C23 UNL     1      10.300   4.831   3.715 -0.17 +0.00    +0.025 A 
ATOM     49  C24 UNL     1      11.094   5.804   3.100 -0.17 +0.00    +0.038 A 
ATOM     50  C25 UNL     1      11.543   6.912   3.828 -0.35 +0.00    +0.033 A 
ATOM     51  C26 UNL     1      11.169   7.062   5.168 -0.34 +0.00    +0.017 A 
ATOM     52  C27 UNL     1      10.376   6.091   5.784 -0.29 +0.00    +0.010 A 
BRANCH  48  53
ATOM     53  C42 UNL     1       9.852   3.717   2.932 +1.60 -0.00    -0.061 C 
ATOM     54  C43 UNL     1       9.469   2.828   2.221 +0.93 -0.00    -0.057 C 
BRANCH  54  55
ATOM     55  C44 UNL     1       8.996   1.812   1.319 -0.23 +0.00    +0.067 A 
ATOM     56  C45 UNL     1       7.631   1.750   0.940 -0.22 -0.00    -0.001 A 
ATOM     57  C46 UNL     1       6.639   2.665   1.374 -0.13 +0.00    +0.037 A 
ATOM     58  C50 UNL     1       7.229   0.706   0.079 -0.04 -0.00    -0.009 A 
ATOM     59  C47 UNL     1       5.311   2.538   0.962 -0.10 +0.00    +0.035 A 
ATOM     60  C48 UNL     1       4.931   1.507   0.112 -0.14 +0.00    +0.024 A 
ATOM     61 CL1  UNL     1       4.135   3.668   1.511 -0.17 -0.00    -0.084 Cl
ATOM     62  C49 UNL     1       5.887   0.593  -0.330 +0.37 +0.00    +0.015 A 
ATOM     63  C51 UNL     1       8.201  -0.199  -0.344 -0.09 +0.00    +0.101 A 
ATOM     64  N7  UNL     1       9.505  -0.152   0.010 -0.16 -0.00    -0.355 N 
ATOM     65  C52 UNL     1       9.886   0.848   0.823 -0.32 +0.00    +0.097 A 
ATOM     66  H7  UNL     1      10.172  -0.846  -0.327 +0.10 +0.00    +0.166 HD
BRANCH  65  67
ATOM     67  N8  UNL     1      11.236   0.818   1.183 +0.13 -0.00    -0.287 NA
ATOM     68  H54 UNL     1      11.357   0.025   1.807 +0.06 +0.00    +0.125 HD
ATOM     69  H55 UNL     1      11.835   0.759   0.366 -0.19 +0.00    +0.125 HD
ENDBRANCH  65  67
ENDBRANCH  54  55
ENDBRANCH  48  53
BRANCH  50  70
ATOM     70  C28 UNL     1      12.384   7.924   3.130 -0.12 +0.00    +0.256 C 
ATOM     71  O2  UNL     1      12.058   8.268   2.001 +6.09 -0.00    -0.267 OA
ATOM     72  N4  UNL     1      13.495   8.346   3.840 -0.21 -0.00    -0.323 N 
ATOM     73  H53 UNL     1      13.697   7.862   4.705 +0.12 +0.00    +0.169 HD
BRANCH  72  74
ATOM     74  C29 UNL     1      14.439   9.319   3.449 +0.74 +0.00    +0.035 A 
ATOM     75  C30 UNL     1      14.601   9.541   2.077+62.23 +0.00    +0.046 A 
ATOM     76  C31 UNL     1      15.519  10.493   1.578 +0.12 +0.00    +0.058 A 
ATOM     77  C32 UNL     1      16.308  11.221   2.494 -0.45 -0.00    -0.015 A 
ATOM     78  C33 UNL     1      16.140  10.990   3.870 +8.96 +0.00    +0.012 A 
ATOM     79  C34 UNL     1      15.217  10.051   4.340+20.19 +0.00    +0.030 A 
BRANCH  76  80
ATOM     80  C41 UNL     1      15.638  10.661   0.077 +3.46 +0.00    +0.418 C 
ATOM     81  F1  UNL     1      15.799   9.496  -0.609 +1.18 -0.00    -0.166 F 
ATOM     82  F2  UNL     1      16.730  11.415  -0.267 +1.58 -0.00    -0.166 F 
ATOM     83  F3  UNL     1      14.579  11.309  -0.481 +3.85 -0.00    -0.166 F 
ENDBRANCH  76  80
BRANCH  77  84
ATOM     84  C35 UNL     1      17.338  12.244   2.048 -0.42 +0.00    +0.311 C 
BRANCH  84  85
ATOM     85  N5  UNL     1      18.498  11.625   1.398 -0.50 +0.00    +0.096 N 
ATOM     86  C36 UNL     1      18.570  11.971  -0.040 +0.54 +0.00    +0.303 C 
ATOM     87  C37 UNL     1      19.352  10.927  -0.866 +8.69 +0.00    +0.302 C 
ATOM     88  N6  UNL     1      18.681   9.611  -0.881 +2.87 +0.00    +0.087 N 
ATOM     89  C38 UNL     1      17.997   9.338   0.399 -0.11 +0.00    +0.302 C 
ATOM     90  C40 UNL     1      19.633   8.558  -1.227+21.55 +0.00    +0.310 C 
ATOM     91  C39 UNL     1      18.521  10.160   1.598 -0.28 +0.00    +0.303 C 
ENDBRANCH  84  85
ENDBRANCH  77  84
ENDBRANCH  72  74
ENDBRANCH  50  70
ENDBRANCH   1  47
TORSDOF 19
TER
