USER    Run = 1
USER    DPF = ligand_8_receptor.dpf
USER  
USER    Estimated Free Energy of Binding    =  +1.18e+004 kcal/mol  [=(1)+(2)+(3)-(4)]
USER    
USER    (1) Final Intermolecular Energy     =  +1.18e+004 kcal/mol
USER        vdW + Hbond + desolv Energy     =  +1.18e+004 kcal/mol
USER        Electrostatic Energy            =   +0.00 kcal/mol
USER    (2) Final Total Internal Energy     =   +7.20 kcal/mol
USER    (3) Torsional Free Energy           =   +1.19 kcal/mol
USER    (4) Unbound System's Energy  [=(2)] =   +7.20 kcal/mol
USER    
USER    
USER    NEWDPF move ligand_8.pdbqt
USER    NEWDPF about 0.000000 0.000000 0.000000
USER    NEWDPF tran0 17.802530 9.205003 2.136955
USER    NEWDPF quaternion0 -0.918668 -0.048594 0.061112 -0.387237
USER    NEWDPF axisangle0 -0.996408 -0.052707 0.066284 -134.434650
USER    NEWDPF quat0 -0.996408 -0.052707 0.066284 -134.434650
USER    NEWDPF dihe0 180.00 -5.38 -120.26 -135.55 96.01 -22.79 166.89 -179.91 153.71 -163.89 -163.89 11.17 170.42 173.78 15.61 -124.78 180.00 -180.00 19.69 -91.31 30.84 -161.43 48.40 180.00 
USER  keepresnum = 1 
USER  
REMARK  24 active torsions:
REMARK  status: ('A' for Active; 'I' for Inactive)
REMARK    1  A    between atoms: O1_1  and  C1_17 
REMARK    2  A    between atoms: O1_1  and  C75_91 
REMARK    3  A    between atoms: O2_2  and  C16_32 
REMARK    4  A    between atoms: O2_2  and  C17_33 
REMARK    5  A    between atoms: O3_3  and  C20_36 
REMARK    6  A    between atoms: O4_4  and  C23_39 
REMARK    7  A    between atoms: O4_4  and  C24_40 
REMARK    8  A    between atoms: O5_5  and  C27_43 
REMARK    9  A    between atoms: O6_6  and  C34_50 
REMARK   10  A    between atoms: O6_6  and  C35_51 
REMARK   11  A    between atoms: O7_7  and  C38_54 
REMARK   12  A    between atoms: O8_8  and  C41_57 
REMARK   13  A    between atoms: O8_8  and  C42_58 
REMARK   14  A    between atoms: O9_9  and  C45_61 
REMARK   15  A    between atoms: O10_10  and  C52_68 
REMARK   16  A    between atoms: O10_10  and  C53_69 
REMARK   17  A    between atoms: O11_11  and  C56_72 
REMARK   18  A    between atoms: O12_12  and  C59_75 
REMARK   19  A    between atoms: O12_12  and  C60_76 
REMARK   20  A    between atoms: O13_13  and  C63_79 
REMARK   21  A    between atoms: O14_14  and  C68_84 
REMARK   22  A    between atoms: O14_14  and  C69_85 
REMARK   23  A    between atoms: O15_15  and  C72_88 
REMARK   24  A    between atoms: O16_16  and  C78_94 
USER                              x       y       z     vdW  Elec       q    Type
USER                           _______ _______ _______ _____ _____    ______ ____
ROOT
ATOM      1  C1  UNL     1      11.201   8.201   0.860+54.97 +0.00    +0.111 C 
ATOM      2  C2  UNL     1      12.379   7.583   0.384+11.59 +0.00    +0.056 C 
ATOM      3  C3  UNL     1      13.471   7.960   1.165+99.99 +0.00    +0.025 A 
ATOM      4  C4  UNL     1      13.387   8.717   2.392+99.99 +0.00    +0.025 A 
ATOM      5  C5  UNL     1      14.660   9.023   2.824 +0.87 +0.00    +0.119 A 
ATOM      6  C6  UNL     1      16.253  10.209   4.180 +1.25 +0.00    +0.119 A 
ATOM      7  C7  UNL     1      18.436  10.692   4.027 +6.94 +0.00    +0.119 A 
ATOM      8  C8  UNL     1      20.185  10.244   2.436 -0.33 +0.00    +0.119 A 
ATOM      9  C9  UNL     1      20.310   9.029   0.425+20.36 +0.00    +0.119 A 
ATOM     10  C10 UNL     1      18.752   7.716  -0.858+99.99 +0.00    +0.119 A 
ATOM     11  C11 UNL     1      16.573   7.215  -0.691 +3.73 +0.00    +0.119 A 
ATOM     12  C12 UNL     1      14.796   7.791   0.825 +5.41 +0.00    +0.119 A 
ATOM     13  C13 UNL     1      17.153   6.262  -1.632+78.43 +0.00    +0.025 A 
ATOM     14  C14 UNL     1      18.512   6.575  -1.736+99.99 +0.00    +0.025 A 
ATOM     15  C15 UNL     1      19.390   5.768  -2.438+12.11 +0.00    +0.056 A 
ATOM     16  C16 UNL     1      18.896   4.552  -2.913+21.14 +0.00    +0.111 A 
ATOM     17  C23 UNL     1      17.522   4.235  -2.808+99.99 +0.00    +0.111 A 
ATOM     18  C30 UNL     1      16.622   5.131  -2.224+99.99 +0.00    +0.056 A 
ATOM     19  C31 UNL     1      21.527   9.633   0.667 -0.36 +0.00    +0.025 A 
ATOM     20  C32 UNL     1      21.452  10.371   1.906 -0.13 +0.00    +0.025 A 
ATOM     21  C33 UNL     1      22.491  11.128   2.447+87.87 +0.00    +0.056 A 
ATOM     22  C34 UNL     1      23.608  11.129   1.583+99.99 +0.00    +0.111 A 
ATOM     23  C41 UNL     1      23.706  10.345   0.368 +1.94 +0.00    +0.111 A 
ATOM     24  C48 UNL     1      22.653   9.567  -0.154 -0.42 +0.00    +0.056 A 
ATOM     25  C49 UNL     1      17.984  11.197   5.320+52.82 +0.00    +0.025 A 
ATOM     26  C50 UNL     1      16.619  10.901   5.411 +7.80 +0.00    +0.025 A 
ATOM     27  C51 UNL     1      15.888  11.203   6.547+32.35 +0.00    +0.056 A 
ATOM     28  C52 UNL     1      16.575  11.770   7.620 +4.75 +0.00    +0.111 A 
ATOM     29  C59 UNL     1      17.943  12.124   7.510+18.05 +0.00    +0.111 A 
ATOM     30  C66 UNL     1      18.662  11.817   6.356+99.99 +0.00    +0.056 A 
ATOM     31  C67 UNL     1      12.204   9.179   2.967 +9.65 +0.00    +0.056 C 
ATOM     32  C68 UNL     1      11.117   8.960   2.089+99.99 +0.00    +0.111 C 
ATOM     33  N1  UNL     1      14.986   9.753   3.947 +1.65 -0.00    -0.327 N 
ATOM     34  H1  UNL     1      14.256   9.960   4.628 +0.43 +0.00    +0.169 HD
ATOM     35  N2  UNL     1      17.368  10.113   3.387 -0.22 -0.00    -0.327 N 
ATOM     36  H2  UNL     1      17.399   9.679   2.465 +0.14 +0.00    +0.169 HD
ATOM     37  N3  UNL     1      19.735  10.800   3.615+14.80 -0.00    -0.327 N 
ATOM     38  H3  UNL     1      20.395  11.310   4.201+24.08 +0.00    +0.169 HD
ATOM     39  N4  UNL     1      19.491   9.440   1.501 +0.33 -0.00    -0.327 N 
ATOM     40  N5  UNL     1      20.011   8.192  -0.628+73.80 -0.00    -0.327 N 
ATOM     41  H5  UNL     1      20.762   7.916  -1.262 +0.18 +0.00    +0.169 HD
ATOM     42  N6  UNL     1      17.564   8.066  -0.262 +3.82 -0.00    -0.327 N 
ATOM     43  H6  UNL     1      17.437   8.837   0.394 +0.12 +0.00    +0.169 HD
ATOM     44  N7  UNL     1      15.276   7.116  -0.275 +1.58 -0.00    -0.327 N 
ATOM     45  H7  UNL     1      14.638   6.519  -0.800 -0.14 +0.00    +0.169 HD
ATOM     46  N8  UNL     1      15.511   8.482   1.831 -0.08 -0.00    -0.327 N 
ATOM     47  H49 UNL     1      18.506   9.195   1.590 +0.13 +0.00    +0.169 HD
ATOM     48  H50 UNL     1      16.517   8.634   1.809 +0.09 +0.00    +0.169 HD
ENDROOT
BRANCH   1  49
ATOM     49  O1  UNL     1      10.063   8.140   0.063 +0.68 -0.00    -0.308 OA
BRANCH  49  50
ATOM     50  C75 UNL     1       9.069   7.260   0.458 -0.26 +0.00    +0.076 A 
ATOM     51  C76 UNL     1       9.489   6.215   1.289 -0.23 +0.00    +0.040 A 
ATOM     52  C77 UNL     1       8.577   5.255   1.740 -0.15 +0.00    +0.039 A 
ATOM     53  C78 UNL     1       7.246   5.342   1.350 -0.13 +0.00    +0.065 A 
ATOM     54  C79 UNL     1       6.810   6.378   0.531 -0.27 +0.00    +0.039 A 
ATOM     55  C80 UNL     1       7.721   7.340   0.091 -0.39 +0.00    +0.040 A 
BRANCH  53  56
ATOM     56  O16 UNL     1       6.374   4.379   1.776 -0.02 -0.00    -0.361 OA
ATOM     57  H8  UNL     1       6.883   3.841   2.409 +0.09 +0.00    +0.217 HD
ENDBRANCH  53  56
ENDBRANCH  49  50
ENDBRANCH   1  49
BRANCH  32  58
ATOM     58  O14 UNL     1       9.904   9.573   2.385+58.56 -0.00    -0.308 OA
BRANCH  58  59
ATOM     59  C69 UNL     1       8.902   8.766   2.894 +3.05 +0.00    +0.076 A 
ATOM     60  C70 UNL     1       9.309   7.490   3.302 -0.35 +0.00    +0.040 A 
ATOM     61  C71 UNL     1       8.388   6.589   3.845 -0.19 +0.00    +0.039 A 
ATOM     62  C72 UNL     1       7.059   6.973   3.986 +3.39 +0.00    +0.065 A 
ATOM     63  C73 UNL     1       6.636   8.234   3.578+99.99 +0.00    +0.039 A 
ATOM     64  C74 UNL     1       7.557   9.126   3.028 +6.92 +0.00    +0.040 A 
BRANCH  62  65
ATOM     65  O15 UNL     1       6.178   6.090   4.547 +0.03 -0.00    -0.361 OA
ATOM     66  H7  UNL     1       5.380   6.618   4.736 +0.13 +0.00    +0.217 HD
ENDBRANCH  62  65
ENDBRANCH  58  59
ENDBRANCH  32  58
BRANCH  17  67
ATOM     67  O4  UNL     1      17.087   2.989  -3.212+99.99 -0.00    -0.308 OA
BRANCH  67  68
ATOM     68  C24 UNL     1      16.424   2.219  -2.272+99.99 +0.00    +0.076 A 
ATOM     69  C25 UNL     1      15.919   2.921  -1.170+99.99 +0.00    +0.040 A 
ATOM     70  C26 UNL     1      15.244   2.249  -0.146+99.99 +0.00    +0.039 A 
ATOM     71  C27 UNL     1      15.085   0.870  -0.225+11.72 +0.00    +0.065 A 
ATOM     72  C28 UNL     1      15.572   0.158  -1.316 +2.05 +0.00    +0.039 A 
ATOM     73  C29 UNL     1      16.233   0.833  -2.341+99.99 +0.00    +0.040 A 
BRANCH  71  74
ATOM     74  O5  UNL     1      14.453   0.224   0.802+63.60 -0.00    -0.361 OA
ATOM     75  H2  UNL     1      13.527   0.522   0.754 -0.23 +0.00    +0.217 HD
ENDBRANCH  71  74
ENDBRANCH  67  68
ENDBRANCH  17  67
BRANCH  28  76
ATOM     76  O10 UNL     1      15.907  11.942   8.816+30.34 -0.00    -0.308 OA
BRANCH  76  77
ATOM     77  C53 UNL     1      14.586  11.538   8.843+10.75 +0.00    +0.076 A 
ATOM     78  C54 UNL     1      13.863  11.085   7.734 +0.36 +0.00    +0.040 A 
ATOM     79  C55 UNL     1      12.525  10.714   7.869 +3.38 +0.00    +0.039 A 
ATOM     80  C56 UNL     1      11.910  10.800   9.115 +2.62 +0.00    +0.065 A 
ATOM     81  C57 UNL     1      12.613  11.251  10.227 +9.82 +0.00    +0.039 A 
ATOM     82  C58 UNL     1      13.952  11.624  10.087 +3.95 +0.00    +0.040 A 
BRANCH  80  83
ATOM     83  O11 UNL     1      10.598  10.448   9.271+12.39 -0.00    -0.361 OA
ATOM     84  H5  UNL     1      10.217  11.126   9.858 +0.14 +0.00    +0.217 HD
ENDBRANCH  80  83
ENDBRANCH  76  77
ENDBRANCH  28  76
BRANCH  16  85
ATOM     85  O2  UNL     1      19.765   3.604  -3.417+29.18 -0.00    -0.308 OA
BRANCH  85  86
ATOM     86  C17 UNL     1      20.065   2.527  -2.601+88.30 +0.00    +0.076 A 
ATOM     87  C18 UNL     1      20.732   1.363  -3.001+13.55 +0.00    +0.040 A 
ATOM     88  C19 UNL     1      20.955   0.328  -2.093+30.67 +0.00    +0.039 A 
ATOM     89  C20 UNL     1      20.523   0.461  -0.778+27.27 +0.00    +0.065 A 
ATOM     90  C21 UNL     1      19.878   1.618  -0.355+20.92 +0.00    +0.039 A 
ATOM     91  C22 UNL     1      19.647   2.649  -1.271+29.52 +0.00    +0.040 A 
BRANCH  89  92
ATOM     92  O3  UNL     1      20.709  -0.552   0.122+65.78 -0.00    -0.361 OA
ATOM     93  H1  UNL     1      21.593  -0.394   0.499+45.62 +0.00    +0.217 HD
ENDBRANCH  89  92
ENDBRANCH  85  86
ENDBRANCH  16  85
BRANCH  29  94
ATOM     94  O12 UNL     1      18.634  12.691   8.561 +4.41 -0.00    -0.308 OA
BRANCH  94  95
ATOM     95  C60 UNL     1      19.866  12.151   8.853 +0.96 +0.00    +0.076 A 
ATOM     96  C61 UNL     1      21.008  12.912   9.117 -0.25 +0.00    +0.040 A 
ATOM     97  C62 UNL     1      22.225  12.275   9.373 -0.14 +0.00    +0.039 A 
ATOM     98  C63 UNL     1      22.291  10.886   9.356 -0.52 +0.00    +0.065 A 
ATOM     99  C64 UNL     1      21.162  10.118   9.076 -0.43 +0.00    +0.039 A 
ATOM    100  C65 UNL     1      19.949  10.757   8.817 +0.44 +0.00    +0.040 A 
BRANCH  98 101
ATOM    101  O13 UNL     1      23.491  10.289   9.624 +8.29 -0.00    -0.361 OA
ATOM    102  H6  UNL     1      23.294   9.458  10.081 +4.43 +0.00    +0.217 HD
ENDBRANCH  98 101
ENDBRANCH  94  95
ENDBRANCH  29  94
BRANCH  23 103
ATOM    103  O8  UNL     1      24.861  10.405  -0.400+99.99 -0.00    -0.308 OA
BRANCH 103 104
ATOM    104  C42 UNL     1      25.564   9.231  -0.552+33.66 +0.00    +0.076 A 
ATOM    105  C43 UNL     1      26.941   9.314  -0.331+15.41 +0.00    +0.040 A 
ATOM    106  C44 UNL     1      27.747   8.184  -0.478 +0.05 +0.00    +0.039 A 
ATOM    107  C45 UNL     1      27.165   6.976  -0.861 -0.30 +0.00    +0.065 A 
ATOM    108  C46 UNL     1      25.799   6.886  -1.102 -0.33 +0.00    +0.039 A 
ATOM    109  C47 UNL     1      24.993   8.019  -0.950 +0.55 +0.00    +0.040 A 
BRANCH 107 110
ATOM    110  O9  UNL     1      27.927   5.850  -1.005 -0.11 -0.00    -0.361 OA
ATOM    111  H4  UNL     1      27.318   5.124  -1.204 +0.12 +0.00    +0.217 HD
ENDBRANCH 107 110
ENDBRANCH 103 104
ENDBRANCH  23 103
BRANCH  22 112
ATOM    112  O6  UNL     1      24.659  11.975   1.914+46.40 -0.00    -0.308 OA
BRANCH 112 113
ATOM    113  C35 UNL     1      25.628  11.448   2.746 +9.74 +0.00    +0.076 A 
ATOM    114  C36 UNL     1      25.826  11.817   4.081+99.99 +0.00    +0.040 A 
ATOM    115  C37 UNL     1      26.827  11.209   4.839+99.99 +0.00    +0.039 A 
ATOM    116  C38 UNL     1      27.629  10.230   4.260+25.45 +0.00    +0.065 A 
ATOM    117  C39 UNL     1      27.446   9.850   2.935+13.85 +0.00    +0.039 A 
ATOM    118  C40 UNL     1      26.439  10.458   2.180+14.00 +0.00    +0.040 A 
BRANCH 116 119
ATOM    119  O7  UNL     1      28.614   9.617   4.984+99.99 -0.00    -0.361 OA
ATOM    120  H3  UNL     1      29.059   9.017   4.358 +2.07 +0.00    +0.217 HD
ENDBRANCH 116 119
ENDBRANCH 112 113
ENDBRANCH  22 112
TORSDOF 24
TER
