USER    Run = 1
USER    DPF = ligand_13_receptor.dpf
USER  
USER    Estimated Free Energy of Binding    =  +3.25e+003 kcal/mol  [=(1)+(2)+(3)-(4)]
USER    
USER    (1) Final Intermolecular Energy     =  +3.25e+003 kcal/mol
USER        vdW + Hbond + desolv Energy     =  +3.25e+003 kcal/mol
USER        Electrostatic Energy            =   +0.00 kcal/mol
USER    (2) Final Total Internal Energy     =   +0.00 kcal/mol
USER    (3) Torsional Free Energy           =   +1.19 kcal/mol
USER    (4) Unbound System's Energy  [=(2)] =   +0.00 kcal/mol
USER    
USER    
USER    NEWDPF move ligand_13.pdbqt
USER    NEWDPF about 0.000000 0.000000 0.000000
USER    NEWDPF tran0 17.933254 7.558062 3.755226
USER    NEWDPF quaternion0 0.817109 0.072083 -0.045556 -0.570142
USER    NEWDPF axisangle0 0.994599 0.087741 -0.055452 -110.479756
USER    NEWDPF quat0 0.994599 0.087741 -0.055452 -110.479756
USER  keepresnum = 1 
USER  
REMARK  0 active torsions:
REMARK  status: ('A' for Active; 'I' for Inactive)
REMARK       I    between atoms: C2_2  and  N1_51 
REMARK       I    between atoms: C3_3  and  C4_4 
REMARK       I    between atoms: C3_3  and  N1_51 
REMARK       I    between atoms: C4_4  and  N2_52 
REMARK       I    between atoms: C5_5  and  C6_6 
REMARK       I    between atoms: C5_5  and  N2_52 
REMARK       I    between atoms: C6_6  and  N3_53 
REMARK       I    between atoms: C7_7  and  C8_8 
REMARK       I    between atoms: C7_7  and  C47_47 
REMARK       I    between atoms: C7_7  and  N3_53 
REMARK       I    between atoms: C8_8  and  N4_54 
REMARK       I    between atoms: C9_9  and  C10_10 
REMARK       I    between atoms: C9_9  and  C43_43 
REMARK       I    between atoms: C9_9  and  N4_54 
REMARK       I    between atoms: C10_10  and  N5_55 
REMARK       I    between atoms: C11_11  and  C12_12 
REMARK       I    between atoms: C11_11  and  C34_34 
REMARK       I    between atoms: C11_11  and  N5_55 
REMARK       I    between atoms: C12_12  and  N6_56 
REMARK       I    between atoms: C13_13  and  C14_14 
REMARK       I    between atoms: C13_13  and  N6_56 
REMARK       I    between atoms: C14_14  and  N7_57 
REMARK       I    between atoms: C15_15  and  C16_16 
REMARK       I    between atoms: C15_15  and  C31_31 
REMARK       I    between atoms: C15_15  and  N7_57 
REMARK       I    between atoms: C16_16  and  N8_58 
REMARK       I    between atoms: C17_17  and  C18_18 
REMARK       I    between atoms: C17_17  and  C28_28 
REMARK       I    between atoms: C17_17  and  N8_58 
REMARK       I    between atoms: C18_18  and  N9_59 
REMARK       I    between atoms: C19_19  and  C20_20 
REMARK       I    between atoms: C19_19  and  C25_25 
REMARK       I    between atoms: C19_19  and  N9_59 
REMARK       I    between atoms: C20_20  and  N10_60 
REMARK       I    between atoms: C21_21  and  C22_22 
REMARK       I    between atoms: C21_21  and  C23_23 
REMARK       I    between atoms: C21_21  and  N10_60 
REMARK       I    between atoms: C22_22  and  O2_65 
REMARK       I    between atoms: C23_23  and  C24_24 
REMARK       I    between atoms: C24_24  and  N11_61 
REMARK       I    between atoms: C25_25  and  C26_26 
REMARK       I    between atoms: C26_26  and  C27_27 
REMARK       I    between atoms: C27_27  and  N12_62 
REMARK       I    between atoms: C28_28  and  C29_29 
REMARK       I    between atoms: C29_29  and  S1_78 
REMARK       I    between atoms: C31_31  and  C32_32 
REMARK       I    between atoms: C32_32  and  S2_79 
REMARK       I    between atoms: C34_34  and  C35_35 
REMARK       I    between atoms: C43_43  and  C44_44 
REMARK       I    between atoms: C47_47  and  C48_48 
USER                              x       y       z     vdW  Elec       q    Type
USER                           _______ _______ _______ _____ _____    ______ ____
ROOT
ATOM      1  C1  UNL     1       9.266   4.633   7.695 -0.46 +0.00    +0.117 C 
ATOM      2  C2  UNL     1       9.741   6.005   8.085 +6.82 +0.00    +0.213 C 
ATOM      3  C3  UNL     1       9.173   8.395   8.070+99.99 +0.00    +0.225 C 
ATOM      4  C4  UNL     1      10.307   8.960   7.217 +5.30 +0.00    +0.235 C 
ATOM      5  C5  UNL     1      12.762   9.096   7.023 +0.17 +0.00    +0.225 C 
ATOM      6  C6  UNL     1      13.325   7.900   6.242 -0.27 +0.00    +0.236 C 
ATOM      7  C7  UNL     1      13.462   5.420   6.141 -0.40 +0.00    +0.180 C 
ATOM      8  C8  UNL     1      12.383   5.186   5.051 +0.09 +0.00    +0.241 C 
ATOM      9  C9  UNL     1      11.927   5.682   2.605 +1.78 +0.00    +0.180 C 
ATOM     10  C10 UNL     1      12.774   6.438   1.553 +0.26 +0.00    +0.241 C 
ATOM     11  C11 UNL     1      14.693   7.977   1.489 +7.87 +0.00    +0.181 C 
ATOM     12  C12 UNL     1      15.748   7.016   2.110+99.99 +0.00    +0.241 C 
ATOM     13  C13 UNL     1      18.058   6.123   1.931+18.55 +0.00    +0.225 C 
ATOM     14  C14 UNL     1      18.939   6.596   3.098+22.50 +0.00    +0.236 C 
ATOM     15  C15 UNL     1      19.161   8.325   4.892 +4.57 +0.00    +0.177 C 
ATOM     16  C16 UNL     1      20.342   9.140   4.291 +9.10 +0.00    +0.241 C 
ATOM     17  C17 UNL     1      22.643   9.964   4.566 -0.25 +0.00    +0.177 C 
ATOM     18  C18 UNL     1      23.460   8.753   4.081 +0.14 +0.00    +0.241 C 
ATOM     19  C19 UNL     1      25.005   7.918   2.323 -0.38 +0.00    +0.177 C 
ATOM     20  C20 UNL     1      26.331   8.551   1.851 -0.38 +0.00    +0.241 C 
ATOM     21  C21 UNL     1      28.487   8.099   0.735 -0.29 +0.00    +0.191 C 
ATOM     22  C22 UNL     1      28.180   8.169  -0.767 +0.26 +0.00    +0.164 C 
ATOM     23  C23 UNL     1      29.698   7.220   1.050 -0.29 +0.00    +0.138 C 
ATOM     24  C24 UNL     1      29.542   5.809   0.536 -0.15 +0.00    +0.217 C 
ATOM     25  C25 UNL     1      24.250   7.299   1.135 -0.46 +0.00    +0.044 C 
ATOM     26  C26 UNL     1      23.029   6.474   1.549 +1.60 +0.00    +0.105 C 
ATOM     27  C27 UNL     1      23.412   5.242   2.341+64.92 +0.00    +0.215 C 
ATOM     28  C28 UNL     1      23.409  10.743   5.642 +7.25 +0.00    +0.045 C 
ATOM     29  C29 UNL     1      24.734  11.362   5.191+99.99 +0.00    +0.076 C 
ATOM     30  C30 UNL     1      26.252  12.955   3.537+99.99 +0.00    +0.089 C 
ATOM     31  C31 UNL     1      19.504   7.390   6.063+99.99 +0.00    +0.045 C 
ATOM     32  C32 UNL     1      18.288   6.602   6.553+99.99 +0.00    +0.076 C 
ATOM     33  C33 UNL     1      18.496   6.987   9.294+58.43 +0.00    +0.089 C 
ATOM     34  C34 UNL     1      14.939   9.458   1.818+31.56 +0.00    +0.075 C 
ATOM     35  C35 UNL     1      16.233  10.008   1.308 -0.45 -0.00    -0.028 A 
ATOM     36  C36 UNL     1      16.660  10.120  -0.055 +0.13 -0.00    -0.002 A 
ATOM     37  C37 UNL     1      17.985  10.561  -0.039 -0.35 +0.00    +0.042 A 
ATOM     38  C38 UNL     1      18.741  10.728  -1.204+21.68 +0.00    +0.030 A 
ATOM     39  C39 UNL     1      18.124  10.447  -2.425+94.51 +0.00    +0.002 A 
ATOM     40  C40 UNL     1      16.801  10.013  -2.475+99.99 +0.00    +0.001 A 
ATOM     41  C41 UNL     1      16.061   9.842  -1.301+99.99 +0.00    +0.014 A 
ATOM     42  C42 UNL     1      17.266  10.483   2.089 -0.41 +0.00    +0.096 A 
ATOM     43  C43 UNL     1      10.495   6.258   2.747 -0.33 +0.00    +0.013 C 
ATOM     44  C44 UNL     1       9.709   6.078   1.430 -0.28 +0.00    +0.002 C 
ATOM     45  C45 UNL     1       8.222   6.381   1.563 -0.29 +0.00    +0.005 C 
ATOM     46  C46 UNL     1      10.468   7.715   3.222 -0.43 +0.00    +0.012 C 
ATOM     47  C47 UNL     1      13.550   4.245   7.143 -0.64 +0.00    +0.013 C 
ATOM     48  C48 UNL     1      14.714   4.390   8.152 +0.90 +0.00    +0.002 C 
ATOM     49  C49 UNL     1      14.588   5.542   9.138 +4.58 +0.00    +0.005 C 
ATOM     50  C50 UNL     1      13.750   2.912   6.399+32.19 +0.00    +0.012 C 
ATOM     51  N1  UNL     1       8.895   7.020   7.705 +8.51 -0.00    -0.353 N 
ATOM     52  N2  UNL     1      11.558   8.793   7.776 +2.13 -0.00    -0.351 N 
ATOM     53  N3  UNL     1      13.044   6.663   6.789 -0.16 -0.00    -0.346 N 
ATOM     54  N4  UNL     1      12.736   5.718   3.835 +2.36 -0.00    -0.346 N 
ATOM     55  N5  UNL     1      13.411   7.563   2.060 +0.97 -0.00    -0.346 N 
ATOM     56  N6  UNL     1      17.003   7.050   1.546 +1.43 -0.00    -0.351 N 
ATOM     57  N7  UNL     1      18.445   7.668   3.802 -0.17 -0.00    -0.346 N 
ATOM     58  N8  UNL     1      21.410   9.395   5.130+11.97 -0.00    -0.346 N 
ATOM     59  N9  UNL     1      24.208   8.968   2.954 -0.23 -0.00    -0.346 N 
ATOM     60  N10 UNL     1      27.297   7.648   1.460 -0.19 -0.00    -0.344 N 
ATOM     61  N11 UNL     1      30.643   5.020   0.697 -0.05 -0.00    -0.370 N 
ATOM     62  N12 UNL     1      22.366   4.615   2.948+35.79 -0.00    -0.370 N 
ATOM     63  N13 UNL     1      18.333  10.759   1.276 -0.17 -0.00    -0.365 N 
ATOM     64  O1  UNL     1      27.077   8.166  -1.292 +1.46 -0.00    -0.648 OA
ATOM     65  O2  UNL     1      29.283   8.315  -1.531 +0.18 -0.00    -0.775 OA
ATOM     66  O3  UNL     1      28.521   5.370   0.023 -0.14 -0.00    -0.274 OA
ATOM     67  O4  UNL     1      26.513   9.768   1.837 +0.08 -0.00    -0.271 OA
ATOM     68  O5  UNL     1      24.553   4.796   2.406 +1.43 -0.00    -0.274 OA
ATOM     69  O6  UNL     1      23.437   7.680   4.684+15.68 -0.00    -0.271 OA
ATOM     70  O7  UNL     1      20.282   9.625   3.158 -0.22 -0.00    -0.271 OA
ATOM     71  O8  UNL     1      19.979   6.013   3.400+50.17 -0.00    -0.272 OA
ATOM     72  O9  UNL     1      15.481   6.253   3.044+73.27 -0.00    -0.271 OA
ATOM     73  O10 UNL     1      12.847   6.102   0.376 -0.41 -0.00    -0.271 OA
ATOM     74  O11 UNL     1      11.279   4.707   5.293 -0.24 -0.00    -0.271 OA
ATOM     75  O12 UNL     1      14.076   8.054   5.279 -0.29 -0.00    -0.272 OA
ATOM     76  O13 UNL     1      10.118   9.443   6.104 +1.33 -0.00    -0.272 OA
ATOM     77  O14 UNL     1      10.783   6.210   8.703+12.13 -0.00    -0.274 OA
ATOM     78  S1  UNL     1      24.511  12.544   3.824+19.74 -0.00    -0.173 SA
ATOM     79  S2  UNL     1      18.669   5.664   8.073+99.99 -0.00    -0.173 SA
ATOM     80  H62 UNL     1       8.263   6.853   6.930 +1.42 +0.00    +0.162 HD
ATOM     81  H63 UNL     1      11.627   8.140   8.555 +1.75 +0.00    +0.163 HD
ATOM     82  H64 UNL     1      12.227   6.595   7.392 +0.13 +0.00    +0.163 HD
ATOM     83  H65 UNL     1      13.744   5.839   3.697 +0.02 +0.00    +0.163 HD
ATOM     84  H66 UNL     1      13.350   7.659   3.074 +0.02 +0.00    +0.163 HD
ATOM     85  H67 UNL     1      17.184   7.664   0.757 +0.01 +0.00    +0.163 HD
ATOM     86  H68 UNL     1      17.743   8.210   3.312 +0.11 +0.00    +0.163 HD
ATOM     87  H69 UNL     1      21.600   8.672   5.816 +2.66 +0.00    +0.163 HD
ATOM     88  H70 UNL     1      24.296   9.904   2.564 +0.14 +0.00    +0.163 HD
ATOM     89  H71 UNL     1      26.989   6.699   1.248 +0.11 +0.00    +0.163 HD
ATOM     90  H72 UNL     1      30.549   4.044   0.442 +0.07 +0.00    +0.159 HD
ATOM     91  H73 UNL     1      31.417   5.282   1.291 +0.06 +0.00    +0.159 HD
ATOM     92  H74 UNL     1      22.606   3.875   3.594 +0.34 +0.00    +0.159 HD
ATOM     93  H75 UNL     1      21.522   5.144   3.178 +0.57 +0.00    +0.159 HD
ATOM     94  H76 UNL     1      19.257  11.020   1.604 +0.14 +0.00    +0.165 HD
ATOM     95  H77 UNL     1      28.920   8.345  -2.442 +0.06 +0.00    +0.167 HD
ENDROOT
TORSDOF 38
TER
