USER    Run = 1
USER    DPF = ligand_74_receptor.dpf
USER  
USER    Estimated Free Energy of Binding    = +446.64 kcal/mol  [=(1)+(2)+(3)-(4)]
USER    
USER    (1) Final Intermolecular Energy     = +445.45 kcal/mol
USER        vdW + Hbond + desolv Energy     = +445.45 kcal/mol
USER        Electrostatic Energy            =   +0.00 kcal/mol
USER    (2) Final Total Internal Energy     =   -3.79 kcal/mol
USER    (3) Torsional Free Energy           =   +1.19 kcal/mol
USER    (4) Unbound System's Energy  [=(2)] =   -3.79 kcal/mol
USER    
USER    
USER    NEWDPF move ligand_74.pdbqt
USER    NEWDPF about 0.000000 0.000000 0.000000
USER    NEWDPF tran0 17.460916 11.344253 7.512533
USER    NEWDPF quaternion0 -0.104798 -0.971211 0.157266 0.145029
USER    NEWDPF axisangle0 -0.105918 -0.981589 0.158947 163.322101
USER    NEWDPF quat0 -0.105918 -0.981589 0.158947 163.322101
USER    NEWDPF dihe0 -16.32 176.50 -0.56 31.84 -13.57 78.20 -51.88 25.17 -180.00 20.50 -138.11 -23.22 49.90 23.27 -179.96 -89.33 2.50 140.45 
USER  keepresnum = 1 
USER  
REMARK  18 active torsions:
REMARK  status: ('A' for Active; 'I' for Inactive)
REMARK    1  A    between atoms: C3_3  and  C35_35 
REMARK    2  A    between atoms: C5_5  and  N2_47 
REMARK    3  A    between atoms: C6_6  and  C7_7 
REMARK       I    between atoms: C6_6  and  N2_47 
REMARK    4  A    between atoms: C9_9  and  N4_49 
REMARK       I    between atoms: C11_11  and  N4_49 
REMARK       I    between atoms: C11_11  and  N5_50 
REMARK    5  A    between atoms: C12_12  and  N5_50 
REMARK    6  A    between atoms: C14_14  and  C17_17 
REMARK       I    between atoms: C17_17  and  N7_52 
REMARK    7  A    between atoms: C18_18  and  N7_52 
REMARK    8  A    between atoms: C20_20  and  C23_23 
REMARK       I    between atoms: C23_23  and  N9_54 
REMARK    9  A    between atoms: C24_24  and  N9_54 
REMARK   10  A    between atoms: C26_26  and  S2_74 
REMARK   11  A    between atoms: C30_30  and  S1_73 
REMARK       I    between atoms: C35_35  and  N10_55 
REMARK   12  A    between atoms: C36_36  and  N10_55 
REMARK   13  A    between atoms: C38_38  and  S4_76 
REMARK   14  A    between atoms: C42_42  and  S3_75 
REMARK   15  A    between atoms: O7_62  and  S1_73 
REMARK   16  A    between atoms: O10_65  and  S2_74 
REMARK   17  A    between atoms: O14_69  and  S3_75 
REMARK   18  A    between atoms: O17_72  and  S4_76 
USER                              x       y       z     vdW  Elec       q    Type
USER                           _______ _______ _______ _____ _____    ______ ____
ROOT
ATOM      1  C11 UNL     1      17.706  11.835   8.010+22.35 +0.00    +0.327 C 
ATOM      2  N4  UNL     1      18.661  12.638   8.626 +9.55 -0.00    -0.294 N 
ATOM      3  N5  UNL     1      16.457  12.443   8.107+25.42 -0.00    -0.294 N 
ATOM      4  O2  UNL     1      17.924  10.764   7.460+56.52 -0.00    -0.247 OA
ATOM      5  H32 UNL     1      18.312  13.343   9.258+32.93 +0.00    +0.172 HD
ATOM      6  H33 UNL     1      16.481  13.449   8.026 +6.60 +0.00    +0.172 HD
ENDROOT
BRANCH   2   7
ATOM      7  C9  UNL     1      20.018  12.367   8.603 -0.08 +0.00    +0.111 A 
ATOM      8  C10 UNL     1      20.751  11.471   7.851 +4.00 +0.00    +0.067 A 
ATOM      9  C7  UNL     1      22.130  11.583   8.203 +4.35 +0.00    +0.051 A 
ATOM     10  C8  UNL     1      22.191  12.577   9.166 +1.46 +0.00    +0.109 A 
ATOM     11  N3  UNL     1      20.918  13.043   9.396 -0.34 -0.00    -0.346 N 
ATOM     12  C34 UNL     1      20.603  14.094  10.339 -0.52 +0.00    +0.157 C 
BRANCH   9  13
ATOM     13  C6  UNL     1      23.235  10.811   7.620+18.46 +0.00    +0.258 C 
ATOM     14  N2  UNL     1      22.899  10.162   6.446 +1.01 -0.00    -0.309 N 
ATOM     15  H31 UNL     1      22.061  10.493   5.989 +0.05 +0.00    +0.170 HD
ATOM     16  O1  UNL     1      24.343  10.819   8.143 +6.47 -0.00    -0.267 OA
BRANCH  14  17
ATOM     17  C5  UNL     1      23.724   9.346   5.689 +4.43 +0.00    +0.110 A 
ATOM     18  C4  UNL     1      24.269   9.703   4.466 +0.46 +0.00    +0.067 A 
ATOM     19  C3  UNL     1      25.091   8.639   3.992 -0.41 +0.00    +0.051 A 
ATOM     20  C2  UNL     1      24.966   7.637   4.936 +3.13 +0.00    +0.109 A 
ATOM     21  N1  UNL     1      24.120   8.049   5.939+16.25 -0.00    -0.346 N 
ATOM     22  C1  UNL     1      23.651   7.135   6.959+72.63 +0.00    +0.157 C 
BRANCH  19  23
ATOM     23  C35 UNL     1      25.906   8.520   2.776 -0.44 +0.00    +0.257 C 
ATOM     24  N10 UNL     1      25.574   7.433   1.987 -0.18 -0.00    -0.323 N 
ATOM     25  H36 UNL     1      24.786   6.883   2.296 +0.14 +0.00    +0.169 HD
ATOM     26  O11 UNL     1      26.784   9.337   2.525 -0.37 -0.00    -0.267 OA
BRANCH  24  27
ATOM     27  C36 UNL     1      26.175   7.024   0.777 -0.36 +0.00    +0.037 A 
ATOM     28  C37 UNL     1      25.776   5.916   0.040 -0.37 +0.00    +0.055 A 
ATOM     29  C38 UNL     1      26.423   5.598  -1.166 -0.32 +0.00    +0.085 A 
ATOM     30  C39 UNL     1      27.495   6.379  -1.673 -0.29 -0.00    -0.002 A 
ATOM     31  C40 UNL     1      28.193   6.131  -2.886 +4.64 +0.00    +0.015 A 
ATOM     32  C44 UNL     1      27.897   7.498  -0.903 -0.28 -0.00    -0.021 A 
ATOM     33  C41 UNL     1      29.241   6.948  -3.316 +2.15 +0.00    +0.026 A 
ATOM     34  C42 UNL     1      29.615   8.035  -2.537 -0.23 +0.00    +0.073 A 
ATOM     35  C43 UNL     1      28.955   8.312  -1.339 +0.78 +0.00    +0.037 A 
ATOM     36  C45 UNL     1      27.237   7.802   0.301 -0.35 +0.00    +0.042 A 
BRANCH  29  37
ATOM     37  S4  UNL     1      25.860   4.169  -2.060 -0.50 +0.00    +0.130 S 
ATOM     38  O15 UNL     1      27.019   3.367  -2.383 -0.08 -0.00    -0.598 OA
ATOM     39  O16 UNL     1      24.938   4.631  -3.076 +0.55 -0.00    -0.598 OA
BRANCH  37  40
ATOM     40  O17 UNL     1      24.956   3.314  -1.035 -0.55 -0.00    -0.292 OA
ATOM     41  H40 UNL     1      24.016   3.460  -1.269 +0.26 +0.00    +0.232 HD
ENDBRANCH  37  40
ENDBRANCH  29  37
BRANCH  34  42
ATOM     42  S3  UNL     1      30.952   9.081  -3.036 -0.30 +0.00    +0.129 S 
ATOM     43  O12 UNL     1      31.365   9.844  -1.880 -0.50 -0.00    -0.598 OA
ATOM     44  O13 UNL     1      30.604   9.709  -4.291 +0.68 -0.00    -0.598 OA
BRANCH  42  45
ATOM     45  O14 UNL     1      32.139   8.051  -3.403 -0.05 -0.00    -0.292 OA
ATOM     46  H39 UNL     1      32.369   7.568  -2.580 +0.05 +0.00    +0.232 HD
ENDBRANCH  42  45
ENDBRANCH  34  42
ENDBRANCH  24  27
ENDBRANCH  19  23
ENDBRANCH  14  17
ENDBRANCH   9  13
ENDBRANCH   2   7
BRANCH   3  47
ATOM     47  C12 UNL     1      15.266  11.839   7.733 +1.67 +0.00    +0.111 A 
ATOM     48  C13 UNL     1      15.156  10.637   7.055+29.79 +0.00    +0.067 A 
ATOM     49  C14 UNL     1      13.774  10.347   6.849 +7.89 +0.00    +0.051 A 
ATOM     50  C15 UNL     1      13.090  11.430   7.369+16.09 +0.00    +0.109 A 
ATOM     51  N6  UNL     1      13.989  12.335   7.884 +0.16 -0.00    -0.346 N 
ATOM     52  C16 UNL     1      13.577  13.641   8.352+97.17 +0.00    +0.157 C 
BRANCH  49  53
ATOM     53  C17 UNL     1      13.129   9.197   6.205 +2.13 +0.00    +0.258 C 
ATOM     54  N7  UNL     1      13.387   9.121   4.846 +1.26 -0.00    -0.309 N 
ATOM     55  H34 UNL     1      14.060   9.768   4.466 +0.29 +0.00    +0.170 HD
ATOM     56  O3  UNL     1      12.464   8.402   6.859 -0.33 -0.00    -0.267 OA
BRANCH  54  57
ATOM     57  C18 UNL     1      12.851   8.150   4.015 -0.33 +0.00    +0.110 A 
ATOM     58  C19 UNL     1      11.667   7.444   4.086 -0.35 +0.00    +0.067 A 
ATOM     59  C20 UNL     1      11.585   6.551   2.974 -0.32 +0.00    +0.051 A 
ATOM     60  C21 UNL     1      12.744   6.759   2.244 -0.13 +0.00    +0.109 A 
ATOM     61  N8  UNL     1      13.497   7.720   2.878 -0.14 -0.00    -0.346 N 
ATOM     62  C22 UNL     1      14.778   8.190   2.395 +0.73 +0.00    +0.157 C 
BRANCH  59  63
ATOM     63  C23 UNL     1      10.469   5.639   2.688 -0.06 +0.00    +0.257 C 
ATOM     64  N9  UNL     1      10.535   5.040   1.442 +1.87 -0.00    -0.323 N 
ATOM     65  H35 UNL     1      11.369   5.230   0.906 -0.14 +0.00    +0.169 HD
ATOM     66  O4  UNL     1       9.593   5.447   3.522 -0.14 -0.00    -0.267 OA
BRANCH  64  67
ATOM     67  C24 UNL     1       9.606   4.153   0.857 +0.87 +0.00    +0.037 A 
ATOM     68  C25 UNL     1      10.082   3.298  -0.135 +0.68 +0.00    +0.055 A 
ATOM     69  C26 UNL     1       9.215   2.393  -0.771 -0.12 +0.00    +0.085 A 
ATOM     70  C27 UNL     1       7.836   2.324  -0.443 -0.11 -0.00    -0.002 A 
ATOM     71  C28 UNL     1       6.888   1.460  -1.053 -0.12 +0.00    +0.015 A 
ATOM     72  C32 UNL     1       7.371   3.198   0.572 -0.10 -0.00    -0.021 A 
ATOM     73  C29 UNL     1       5.545   1.452  -0.669 -0.13 +0.00    +0.026 A 
ATOM     74  C30 UNL     1       5.121   2.307   0.340 -0.09 +0.00    +0.073 A 
ATOM     75  C31 UNL     1       6.020   3.181   0.953 -0.09 +0.00    +0.037 A 
ATOM     76  C33 UNL     1       8.256   4.092   1.202 -0.12 +0.00    +0.042 A 
BRANCH  69  77
ATOM     77  S2  UNL     1       9.907   1.319  -2.001 -0.29 +0.00    +0.130 S 
ATOM     78  O8  UNL     1       8.841   0.930  -2.895 -0.52 -0.00    -0.598 OA
ATOM     79  O9  UNL     1      10.749   0.348  -1.338 +0.01 -0.00    -0.598 OA
BRANCH  77  80
ATOM     80  O10 UNL     1      10.936   2.226  -2.854 +0.04 -0.00    -0.292 OA
ATOM     81  H38 UNL     1      11.742   1.685  -2.996 +0.16 +0.00    +0.232 HD
ENDBRANCH  77  80
ENDBRANCH  69  77
BRANCH  74  82
ATOM     82  S1  UNL     1       3.418   2.319   0.817 -0.13 +0.00    +0.129 S 
ATOM     83  O5  UNL     1       3.357   2.102   2.245 +0.04 -0.00    -0.598 OA
ATOM     84  O6  UNL     1       2.681   1.490  -0.110 -0.00 -0.00    -0.598 OA
BRANCH  82  85
ATOM     85  O7  UNL     1       2.921   3.836   0.577 -0.49 -0.00    -0.292 OA
ATOM     86  H37 UNL     1       2.623   4.192   1.440 +0.03 +0.00    +0.232 HD
ENDBRANCH  82  85
ENDBRANCH  74  82
ENDBRANCH  64  67
ENDBRANCH  59  63
ENDBRANCH  54  57
ENDBRANCH  49  53
ENDBRANCH   3  47
TORSDOF 18
TER
