USER    Run = 1
USER    DPF = ligand_186_receptor.dpf
USER  
USER    Estimated Free Energy of Binding    =  +6.16e+003 kcal/mol  [=(1)+(2)+(3)-(4)]
USER    
USER    (1) Final Intermolecular Energy     =  +6.16e+003 kcal/mol
USER        vdW + Hbond + desolv Energy     =  +6.16e+003 kcal/mol
USER        Electrostatic Energy            =   +0.00 kcal/mol
USER    (2) Final Total Internal Energy     =   +0.00 kcal/mol
USER    (3) Torsional Free Energy           =   +1.19 kcal/mol
USER    (4) Unbound System's Energy  [=(2)] =   +0.00 kcal/mol
USER    
USER    
USER    NEWDPF move ligand_186.pdbqt
USER    NEWDPF about 0.000000 0.000000 0.000000
USER    NEWDPF tran0 16.484571 6.829279 3.496445
USER    NEWDPF quaternion0 -0.030950 0.983999 -0.148488 0.093482
USER    NEWDPF axisangle0 -0.031086 0.988327 -0.149141 169.272076
USER    NEWDPF quat0 -0.031086 0.988327 -0.149141 169.272076
USER  keepresnum = 1 
USER  
REMARK  0 active torsions:
REMARK  status: ('A' for Active; 'I' for Inactive)
REMARK       I    between atoms: C2_2  and  C3_3 
REMARK       I    between atoms: C3_3  and  C5_5 
REMARK       I    between atoms: C5_5  and  C6_6 
REMARK       I    between atoms: C5_5  and  N9_75 
REMARK       I    between atoms: C6_6  and  N1_67 
REMARK       I    between atoms: C7_7  and  C8_8 
REMARK       I    between atoms: C7_7  and  C15_15 
REMARK       I    between atoms: C7_7  and  N1_67 
REMARK       I    between atoms: C8_8  and  C9_9 
REMARK       I    between atoms: C15_15  and  N2_68 
REMARK       I    between atoms: C16_16  and  C17_17 
REMARK       I    between atoms: C16_16  and  C20_20 
REMARK       I    between atoms: C16_16  and  N2_68 
REMARK       I    between atoms: C20_20  and  N3_69 
REMARK       I    between atoms: C21_21  and  C22_22 
REMARK       I    between atoms: C21_21  and  C26_26 
REMARK       I    between atoms: C21_21  and  N3_69 
REMARK       I    between atoms: C22_22  and  C23_23 
REMARK       I    between atoms: C23_23  and  C24_24 
REMARK       I    between atoms: C24_24  and  C25_25 
REMARK       I    between atoms: C25_25  and  N4_70 
REMARK       I    between atoms: C26_26  and  N5_71 
REMARK       I    between atoms: C27_27  and  C28_28 
REMARK       I    between atoms: C27_27  and  C30_30 
REMARK       I    between atoms: C27_27  and  N5_71 
REMARK       I    between atoms: C28_28  and  O5_57 
REMARK       I    between atoms: C30_30  and  N6_72 
REMARK       I    between atoms: C31_31  and  C32_32 
REMARK       I    between atoms: C31_31  and  C36_36 
REMARK       I    between atoms: C31_31  and  N6_72 
REMARK       I    between atoms: C32_32  and  C33_33 
REMARK       I    between atoms: C36_36  and  N7_73 
REMARK       I    between atoms: C37_37  and  C38_38 
REMARK       I    between atoms: C37_37  and  C40_40 
REMARK       I    between atoms: C37_37  and  N7_73 
REMARK       I    between atoms: C38_38  and  O8_60 
REMARK       I    between atoms: C40_40  and  N8_74 
REMARK       I    between atoms: C41_41  and  C42_42 
REMARK       I    between atoms: C41_41  and  N8_74 
REMARK       I    between atoms: C42_42  and  O11_63 
REMARK       I    between atoms: C43_43  and  C44_44 
REMARK       I    between atoms: C43_43  and  N9_75 
REMARK       I    between atoms: C44_44  and  C45_45 
REMARK       I    between atoms: C44_44  and  N11_77 
REMARK       I    between atoms: C45_45  and  C46_46 
REMARK       I    between atoms: C46_46  and  C47_47 
REMARK       I    between atoms: C47_47  and  N10_76 
REMARK       I    between atoms: C48_48  and  C49_49 
REMARK       I    between atoms: C48_48  and  N11_77 
REMARK       I    between atoms: C49_49  and  C50_50 
REMARK       I    between atoms: C49_49  and  N12_78 
REMARK       I    between atoms: C50_50  and  C51_51 
REMARK       I    between atoms: C51_51  and  S1_79 
USER                              x       y       z     vdW  Elec       q    Type
USER                           _______ _______ _______ _____ _____    ______ ____
ROOT
ATOM      1  C1  UNL     1       6.213   9.163   3.135+53.74 +0.00    +0.005 C 
ATOM      2  C2  UNL     1       7.371  10.022   2.657+99.99 +0.00    +0.002 C 
ATOM      3  C3  UNL     1       8.759   9.650   3.234+25.06 +0.00    +0.013 C 
ATOM      4  C4  UNL     1       9.733  10.765   2.809+99.99 +0.00    +0.012 C 
ATOM      5  C5  UNL     1       9.270   8.268   2.760 +0.24 +0.00    +0.180 C 
ATOM      6  C6  UNL     1      10.701   7.954   3.262 -0.19 +0.00    +0.241 C 
ATOM      7  C7  UNL     1      12.706   6.548   2.822 -0.03 +0.00    +0.180 C 
ATOM      8  C8  UNL     1      12.795   5.017   2.942+99.99 +0.00    +0.073 C 
ATOM      9  C9  UNL     1      12.065   4.357   4.097+22.65 -0.00    -0.056 A 
ATOM     10  C10 UNL     1      11.798   2.979   4.014+10.62 +0.00    +0.007 A 
ATOM     11  C11 UNL     1      11.149   2.309   5.053 +1.71 +0.00    +0.001 A 
ATOM     12  C12 UNL     1      10.761   3.004   6.195 -0.22 +0.00    +0.000 A 
ATOM     13  C13 UNL     1      11.035   4.364   6.302 -0.42 +0.00    +0.001 A 
ATOM     14  C14 UNL     1      11.689   5.035   5.264 -0.34 +0.00    +0.007 A 
ATOM     15  C15 UNL     1      13.633   7.013   1.685 +6.89 +0.00    +0.241 C 
ATOM     16  C16 UNL     1      15.991   7.495   1.065+21.35 +0.00    +0.180 C 
ATOM     17  C17 UNL     1      16.339   6.375   0.053+99.99 +0.00    +0.009 C 
ATOM     18  C18 UNL     1      16.974   5.141   0.697+99.99 +0.00    +0.012 C 
ATOM     19  C19 UNL     1      17.229   6.890  -1.082+30.22 +0.00    +0.012 C 
ATOM     20  C20 UNL     1      17.228   8.065   1.798 -0.23 +0.00    +0.241 C 
ATOM     21  C21 UNL     1      18.676   7.893   3.784 -0.29 +0.00    +0.176 C 
ATOM     22  C22 UNL     1      18.489   7.695   5.294+44.01 +0.00    +0.035 C 
ATOM     23  C23 UNL     1      17.507   8.660   5.966+99.99 +0.00    +0.004 C 
ATOM     24  C24 UNL     1      16.033   8.629   5.544+90.09 +0.00    +0.030 C 
ATOM     25  C25 UNL     1      15.250   7.357   5.885 +4.96 +0.00    +0.267 C 
ATOM     26  C26 UNL     1      19.848   7.004   3.321+53.23 +0.00    +0.241 C 
ATOM     27  C27 UNL     1      22.315   6.919   3.007+40.82 +0.00    +0.205 C 
ATOM     28  C28 UNL     1      22.434   6.667   1.488+33.95 +0.00    +0.146 C 
ATOM     29  C29 UNL     1      22.574   7.941   0.660 +0.40 +0.00    +0.042 C 
ATOM     30  C30 UNL     1      23.486   7.756   3.563+10.07 +0.00    +0.243 C 
ATOM     31  C31 UNL     1      25.955   7.921   3.724 -0.36 +0.00    +0.177 C 
ATOM     32  C32 UNL     1      26.275   7.815   5.227+37.87 +0.00    +0.038 C 
ATOM     33  C33 UNL     1      26.408   6.423   5.889 +3.81 -0.00    -0.020 C 
ATOM     34  C34 UNL     1      27.498   5.547   5.280+99.99 +0.00    +0.009 C 
ATOM     35  C35 UNL     1      25.089   5.652   5.969+50.42 +0.00    +0.009 C 
ATOM     36  C36 UNL     1      27.111   7.478   2.802 +0.45 +0.00    +0.241 C 
ATOM     37  C37 UNL     1      29.371   8.041   2.001 -0.12 +0.00    +0.205 C 
ATOM     38  C38 UNL     1      30.728   8.422   2.630 +1.02 +0.00    +0.146 C 
ATOM     39  C39 UNL     1      31.231   7.335   3.574+99.99 +0.00    +0.042 C 
ATOM     40  C40 UNL     1      29.083   8.955   0.788 +1.76 +0.00    +0.243 C 
ATOM     41  C41 UNL     1      29.513   9.318  -1.603+18.23 +0.00    +0.232 C 
ATOM     42  C42 UNL     1      28.517   8.524  -2.438 +4.88 +0.00    +0.158 C 
ATOM     43  C43 UNL     1       8.348   5.971   2.629 -0.14 +0.00    +0.241 C 
ATOM     44  C44 UNL     1       7.997   4.751   3.518 -0.16 +0.00    +0.177 C 
ATOM     45  C45 UNL     1       7.179   3.673   2.782 -0.20 +0.00    +0.044 C 
ATOM     46  C46 UNL     1       7.673   2.248   3.044 -0.05 +0.00    +0.105 C 
ATOM     47  C47 UNL     1       7.495   1.761   4.469+24.18 +0.00    +0.215 C 
ATOM     48  C48 UNL     1       6.184   5.584   4.994 -0.11 +0.00    +0.251 C 
ATOM     49  C49 UNL     1       5.681   5.649   6.453 -0.24 +0.00    +0.309 C 
ATOM     50  C50 UNL     1       6.000   7.038   7.021 +3.43 +0.00    +0.055 C 
ATOM     51  C51 UNL     1       5.359   7.267   8.387 +3.05 +0.00    +0.076 C 
ATOM     52  C52 UNL     1       4.725   9.943   7.972 +0.02 +0.00    +0.089 C 
ATOM     53  O1  UNL     1      11.167   8.406   4.306 -0.34 -0.00    -0.271 OA
ATOM     54  O2  UNL     1      13.219   7.273   0.558 +0.22 -0.00    -0.271 OA
ATOM     55  O3  UNL     1      17.966   8.907   1.288 -0.21 -0.00    -0.271 OA
ATOM     56  O4  UNL     1      19.697   5.829   2.988+99.99 -0.00    -0.271 OA
ATOM     57  O5  UNL     1      23.558   5.814   1.225 -0.21 -0.00    -0.393 OA
ATOM     58  O6  UNL     1      23.300   8.800   4.190 -0.22 -0.00    -0.271 OA
ATOM     59  O7  UNL     1      26.995   6.567   1.981 +1.31 -0.00    -0.271 OA
ATOM     60  O8  UNL     1      30.601   9.640   3.376+43.08 -0.00    -0.393 OA
ATOM     61  O9  UNL     1      28.285   9.891   0.826+17.56 -0.00    -0.271 OA
ATOM     62  O10 UNL     1      27.976   8.903  -3.465+79.35 -0.00    -0.649 OA
ATOM     63  O11 UNL     1      28.326   7.260  -1.997 -0.12 -0.00    -0.775 OA
ATOM     64  O12 UNL     1       8.650   5.859   1.440 -0.10 -0.00    -0.271 OA
ATOM     65  O13 UNL     1       7.191   2.461   5.429+79.14 -0.00    -0.274 OA
ATOM     66  O14 UNL     1       5.516   6.013   4.058 -0.10 -0.00    -0.271 OA
ATOM     67  N1  UNL     1      11.347   6.985   2.525 -0.18 -0.00    -0.346 N 
ATOM     68  N2  UNL     1      14.971   7.045   2.022+99.99 -0.00    -0.346 N 
ATOM     69  N3  UNL     1      17.497   7.503   3.029 -0.32 -0.00    -0.346 N 
ATOM     70  N4  UNL     1      15.519   6.229   4.985 +6.80 +0.00    +0.078 N 
ATOM     71  N5  UNL     1      21.078   7.607   3.373 +6.49 -0.00    -0.344 N 
ATOM     72  N6  UNL     1      24.735   7.228   3.343 +4.62 -0.00    -0.346 N 
ATOM     73  N7  UNL     1      28.281   8.184   2.963 +0.19 -0.00    -0.344 N 
ATOM     74  N8  UNL     1      29.823   8.652  -0.343 -0.09 -0.00    -0.349 N 
ATOM     75  N9  UNL     1       8.496   7.159   3.318 -0.14 -0.00    -0.346 N 
ATOM     76  N10 UNL     1       7.754   0.430   4.637+99.99 -0.00    -0.370 N 
ATOM     77  N11 UNL     1       7.465   5.087   4.840 -0.08 -0.00    -0.346 N 
ATOM     78  N12 UNL     1       6.270   4.582   7.289 -0.42 +0.00    +0.092 N 
ATOM     79  S1  UNL     1       5.754   8.920   9.055 +9.12 -0.00    -0.173 SA
ATOM     80  H71 UNL     1      23.540   5.602   0.274 +0.15 +0.00    +0.210 HD
ATOM     81  H72 UNL     1      31.481   9.868   3.723 -0.07 +0.00    +0.210 HD
ATOM     82  H73 UNL     1      27.652   6.894  -2.610 +0.08 +0.00    +0.167 HD
ATOM     83  H74 UNL     1      10.958   6.732   1.618 +0.08 +0.00    +0.163 HD
ATOM     84  H75 UNL     1      15.216   6.995   3.014 -0.46 +0.00    +0.163 HD
ATOM     85  H76 UNL     1      17.143   6.567   3.195 +0.03 +0.00    +0.163 HD
ATOM     86  H77 UNL     1      14.828   5.501   5.204 +0.43 +0.00    +0.312 HD
ATOM     87  H78 UNL     1      16.398   5.796   5.278 +9.59 +0.00    +0.312 HD
ATOM     88  H79 UNL     1      21.177   8.564   3.703 +0.12 +0.00    +0.163 HD
ATOM     89  H80 UNL     1      24.820   6.492   2.636 +0.18 +0.00    +0.163 HD
ATOM     90  H81 UNL     1      28.221   9.112   3.372 -0.29 +0.00    +0.163 HD
ATOM     91  H82 UNL     1      30.100   7.681  -0.440 +0.07 +0.00    +0.163 HD
ATOM     92  H83 UNL     1       8.435   7.089   4.328 +0.09 +0.00    +0.163 HD
ATOM     93  H84 UNL     1       7.561   0.038   5.550 +9.55 +0.00    +0.159 HD
ATOM     94  H85 UNL     1       7.776  -0.208   3.852 +5.04 +0.00    +0.159 HD
ATOM     95  H86 UNL     1       7.705   4.398   5.546 +0.08 +0.00    +0.163 HD
ATOM     96  H87 UNL     1       6.226   3.687   6.785 +0.06 +0.00    +0.313 HD
ATOM     97  H88 UNL     1       7.254   4.771   7.465 +0.19 +0.00    +0.313 HD
ENDROOT
TORSDOF 43
TER
