USER    Run = 1
USER    DPF = ligand_129_receptor.dpf
USER  
USER    Estimated Free Energy of Binding    = +240.04 kcal/mol  [=(1)+(2)+(3)-(4)]
USER    
USER    (1) Final Intermolecular Energy     = +238.85 kcal/mol
USER        vdW + Hbond + desolv Energy     = +238.85 kcal/mol
USER        Electrostatic Energy            =   +0.00 kcal/mol
USER    (2) Final Total Internal Energy     =  +17.54 kcal/mol
USER    (3) Torsional Free Energy           =   +1.19 kcal/mol
USER    (4) Unbound System's Energy  [=(2)] =  +17.54 kcal/mol
USER    
USER    
USER    NEWDPF move ligand_129.pdbqt
USER    NEWDPF about 0.000000 0.000000 0.000000
USER    NEWDPF tran0 22.582259 5.074809 1.335416
USER    NEWDPF quaternion0 0.217577 0.526343 0.767762 -0.293539
USER    NEWDPF axisangle0 0.227604 0.550599 0.803142 -145.860116
USER    NEWDPF quat0 0.227604 0.550599 0.803142 -145.860116
USER    NEWDPF dihe0 -129.66 109.80 74.53 158.19 -175.43 -121.66 151.21 178.97 -115.38 175.52 175.52 175.52 -41.08 -178.79 -100.74 -96.77 -84.37 180.00 -53.78 78.50 -78.34 133.71 51.58 122.60 92.99 -95.63 -58.56 
USER  keepresnum = 1 
USER  
REMARK  27 active torsions:
REMARK  status: ('A' for Active; 'I' for Inactive)
REMARK    1  A    between atoms: C3_3  and  C4_4 
REMARK    2  A    between atoms: C3_3  and  N1_58 
REMARK    3  A    between atoms: C4_4  and  C5_5 
REMARK    4  A    between atoms: C5_5  and  N2_59 
REMARK    5  A    between atoms: C6_6  and  C7_7 
REMARK       I    between atoms: C6_6  and  N2_59 
REMARK    6  A    between atoms: C7_7  and  C8_8 
REMARK    7  A    between atoms: C8_8  and  N3_60 
REMARK    8  A    between atoms: C9_9  and  C10_10 
REMARK       I    between atoms: C9_9  and  N3_60 
REMARK    9  A    between atoms: C12_12  and  N4_61 
REMARK   10  A    between atoms: C13_13  and  C14_14 
REMARK       I    between atoms: C13_13  and  N4_61 
REMARK   11  A    between atoms: C16_16  and  N5_62 
REMARK   12  A    between atoms: C17_17  and  C18_18 
REMARK       I    between atoms: C17_17  and  N5_62 
REMARK   13  A    between atoms: C19_19  and  N7_65 
REMARK   14  A    between atoms: C20_20  and  C21_21 
REMARK       I    between atoms: C20_20  and  N7_65 
REMARK   15  A    between atoms: C23_23  and  N8_66 
REMARK   16  A    between atoms: C24_24  and  C25_25 
REMARK       I    between atoms: C24_24  and  N8_66 
REMARK   17  A    between atoms: C25_25  and  C26_26 
REMARK   18  A    between atoms: C25_25  and  N9_67 
REMARK   19  A    between atoms: C26_26  and  C27_27 
REMARK   20  A    between atoms: C27_27  and  N10_68 
REMARK   21  A    between atoms: C28_28  and  C29_29 
REMARK       I    between atoms: C28_28  and  N10_68 
REMARK   22  A    between atoms: C30_30  and  N12_71 
REMARK   23  A    between atoms: C31_31  and  C32_32 
REMARK       I    between atoms: C31_31  and  N12_71 
REMARK   24  A    between atoms: C34_34  and  N13_72 
REMARK   25  A    between atoms: C35_35  and  C36_36 
REMARK       I    between atoms: C35_35  and  N13_72 
REMARK   26  A    between atoms: C38_38  and  N14_73 
REMARK   27  A    between atoms: C39_39  and  C40_40 
REMARK       I    between atoms: C39_39  and  N14_73 
USER                              x       y       z     vdW  Elec       q    Type
USER                           _______ _______ _______ _____ _____    ______ ____
ROOT
ATOM      1  C21 UNL     1      23.813   5.816   1.498 +0.50 +0.00    +0.105 A 
ATOM      2  C22 UNL     1      25.190   5.993   1.612 -0.29 +0.00    +0.066 A 
ATOM      3  C23 UNL     1      25.826   4.733   1.539 +3.38 +0.00    +0.052 A 
ATOM      4  C50 UNL     1      24.833   3.797   1.390 +6.32 +0.00    +0.120 A 
ATOM      5  C51 UNL     1      22.351   3.775   1.219 +3.66 +0.00    +0.156 C 
ATOM      6  N18 UNL     1      23.626   4.448   1.370 -0.28 -0.00    -0.354 N 
ENDROOT
BRANCH   3   7
ATOM      7  N8  UNL     1      27.165   4.402   1.598+19.47 -0.00    -0.324 N 
ATOM      8  C24 UNL     1      28.127   4.832   0.708 +0.48 +0.00    +0.255 C 
ATOM      9  O6  UNL     1      27.933   5.566  -0.263 -0.15 -0.00    -0.271 OA
ATOM     10  H62 UNL     1      27.435   3.761   2.347+16.74 +0.00    +0.169 HD
BRANCH   8  11
ATOM     11  C25 UNL     1      29.548   4.298   1.025 -0.01 +0.00    +0.310 C 
BRANCH  11  12
ATOM     12  C26 UNL     1      30.597   4.922   0.094 -0.14 +0.00    +0.065 C 
BRANCH  12  13
ATOM     13  C27 UNL     1      30.039   5.562  -1.177 -0.09 +0.00    +0.125 C 
BRANCH  13  14
ATOM     14  N10 UNL     1      29.134   6.656  -0.909 -0.06 -0.00    -0.354 N 
ATOM     15  C28 UNL     1      28.996   7.288   0.305 -0.18 +0.00    +0.285 C 
ATOM     16  O7  UNL     1      29.614   6.932   1.307 -0.23 -0.00    -0.264 OA
ATOM     17  H65 UNL     1      28.549   7.029  -1.659 +0.07 +0.00    +0.162 HD
BRANCH  15  18
ATOM     18  C29 UNL     1      28.044   8.383   0.266 -0.15 +0.00    +0.178 A 
ATOM     19  N11 UNL     1      26.735   8.184   0.285 -0.17 -0.00    -0.323 N 
ATOM     20  C30 UNL     1      26.161   9.417   0.239+13.43 +0.00    +0.125 A 
ATOM     21  H11 UNL     1      26.254   7.287   0.325 +0.12 +0.00    +0.169 HD
ATOM     22  C48 UNL     1      27.123  10.399   0.191+36.33 +0.00    +0.140 A 
ATOM     23  N17 UNL     1      28.316   9.728   0.209 +3.70 -0.00    -0.339 N 
ATOM     24  C49 UNL     1      29.625  10.333   0.177+10.54 +0.00    +0.157 C 
BRANCH  20  25
ATOM     25  N12 UNL     1      24.809   9.648   0.241 +6.25 -0.00    -0.306 N 
ATOM     26  C31 UNL     1      24.007   9.640  -0.883 +7.59 +0.00    +0.274 C 
ATOM     27  O8  UNL     1      24.408   9.440  -2.025+21.23 -0.00    -0.266 OA
ATOM     28  H66 UNL     1      24.397   9.848   1.136 +0.14 +0.00    +0.170 HD
BRANCH  26  29
ATOM     29  C32 UNL     1      22.593   9.906  -0.603 +0.33 +0.00    +0.105 A 
ATOM     30  C33 UNL     1      21.500   9.043  -0.598 +1.10 +0.00    +0.066 A 
ATOM     31  C34 UNL     1      20.334   9.771  -0.265 +1.47 +0.00    +0.053 A 
ATOM     32  C46 UNL     1      20.725  11.075  -0.077 -0.26 +0.00    +0.120 A 
ATOM     33  N16 UNL     1      22.080  11.154  -0.284 -0.10 -0.00    -0.354 N 
ATOM     34  C47 UNL     1      22.839  12.383  -0.171+14.78 +0.00    +0.156 C 
BRANCH  31  35
ATOM     35  N13 UNL     1      19.023   9.357  -0.131 +0.41 -0.00    -0.320 N 
ATOM     36  C35 UNL     1      18.374   8.466  -0.967 +8.07 +0.00    +0.273 C 
ATOM     37  O9  UNL     1      18.898   7.940  -1.946 +3.56 -0.00    -0.266 OA
ATOM     38  H67 UNL     1      18.512   9.763   0.638 +0.13 +0.00    +0.169 HD
BRANCH  36  39
ATOM     39  C36 UNL     1      16.984   8.197  -0.596 -0.02 +0.00    +0.105 A 
ATOM     40  C37 UNL     1      15.979   7.543  -1.304 +1.39 +0.00    +0.066 A 
ATOM     41  C38 UNL     1      14.797   7.531  -0.527 +0.38 +0.00    +0.053 A 
ATOM     42  C44 UNL     1      15.090   8.184   0.646 +2.50 +0.00    +0.120 A 
ATOM     43  N15 UNL     1      16.402   8.585   0.601 -0.28 -0.00    -0.354 N 
ATOM     44  C45 UNL     1      17.060   9.303   1.673 -0.43 +0.00    +0.156 C 
BRANCH  41  45
ATOM     45  N14 UNL     1      13.553   7.002  -0.799 -0.15 -0.00    -0.321 N 
ATOM     46  C39 UNL     1      12.643   6.542   0.143 -0.29 +0.00    +0.264 C 
ATOM     47  O10 UNL     1      12.862   6.564   1.351 -0.32 -0.00    -0.267 OA
ATOM     48  H68 UNL     1      13.285   6.950  -1.774 +0.09 +0.00    +0.169 HD
BRANCH  46  49
ATOM     49  C40 UNL     1      11.392   6.025  -0.417 -0.32 +0.00    +0.094 A 
ATOM     50  C43 UNL     1      11.047   5.860  -1.749 -0.25 +0.00    +0.057 A 
ATOM     51  C42 UNL     1       9.734   5.326  -1.917 -0.18 +0.00    +0.032 A 
ATOM     52 CL1  UNL     1      12.013   6.223  -3.118 -0.28 -0.00    -0.083 Cl
ATOM     53  C41 UNL     1       9.107   5.096  -0.715 -0.14 +0.00    +0.052 A 
ATOM     54  S1  UNL     1      10.096   5.521   0.607 -0.26 -0.00    -0.095 SA
ENDBRANCH  46  49
ENDBRANCH  41  45
ENDBRANCH  36  39
ENDBRANCH  31  35
ENDBRANCH  26  29
ENDBRANCH  20  25
ENDBRANCH  15  18
ENDBRANCH  13  14
ENDBRANCH  12  13
ENDBRANCH  11  12
BRANCH  11  55
ATOM     55  N9  UNL     1      29.882   4.662   2.426 +4.57 +0.00    +0.092 N 
ATOM     56  H63 UNL     1      30.043   5.670   2.463 +0.19 +0.00    +0.313 HD
ATOM     57  H64 UNL     1      30.806   4.264   2.626 +0.12 +0.00    +0.313 HD
ENDBRANCH  11  55
ENDBRANCH   8  11
ENDBRANCH   3   7
BRANCH   1  58
ATOM     58  C20 UNL     1      22.730   6.803   1.514 +5.47 +0.00    +0.274 C 
ATOM     59  N7  UNL     1      22.272   7.107   2.780 +5.51 -0.00    -0.306 N 
ATOM     60  H61 UNL     1      22.708   6.673   3.576+21.95 +0.00    +0.170 HD
ATOM     61  O5  UNL     1      22.302   7.300   0.476 +1.53 -0.00    -0.266 OA
BRANCH  59  62
ATOM     62  C19 UNL     1      21.261   7.992   3.053 +6.15 +0.00    +0.125 A 
ATOM     63  C52 UNL     1      21.248   9.311   2.661 -0.29 +0.00    +0.140 A 
ATOM     64  N19 UNL     1      20.068   9.813   3.142 +0.11 -0.00    -0.339 N 
ATOM     65  C18 UNL     1      19.414   8.799   3.799 +0.08 +0.00    +0.178 A 
ATOM     66  C53 UNL     1      19.600  11.168   2.983 +2.22 +0.00    +0.157 C 
ATOM     67  N6  UNL     1      20.134   7.687   3.750 +1.82 -0.00    -0.323 N 
ATOM     68  H6  UNL     1      19.891   6.783   4.155 +0.17 +0.00    +0.169 HD
BRANCH  65  69
ATOM     69  C17 UNL     1      18.125   8.863   4.471 +0.22 +0.00    +0.290 C 
ATOM     70  N5  UNL     1      17.267   7.886   4.003 -0.31 -0.00    -0.319 N 
ATOM     71  H60 UNL     1      17.650   7.279   3.280 +0.09 +0.00    +0.169 HD
ATOM     72  O4  UNL     1      17.861   9.690   5.340 +1.38 -0.00    -0.264 OA
BRANCH  70  73
ATOM     73  C16 UNL     1      15.974   7.671   4.423 -0.34 +0.00    +0.053 A 
ATOM     74  C15 UNL     1      15.029   6.703   4.013 +3.85 +0.00    +0.066 A 
ATOM     75  C14 UNL     1      13.848   6.888   4.727 -0.37 +0.00    +0.105 A 
ATOM     76  N20 UNL     1      14.091   7.962   5.571 -0.08 -0.00    -0.354 N 
ATOM     77  C54 UNL     1      15.366   8.436   5.386 +9.30 +0.00    +0.120 A 
ATOM     78  C55 UNL     1      13.152   8.532   6.516 -0.28 +0.00    +0.156 C 
BRANCH  75  79
ATOM     79  C13 UNL     1      12.585   6.152   4.670 -0.17 +0.00    +0.273 C 
ATOM     80  N4  UNL     1      11.572   6.816   3.999 -0.15 -0.00    -0.320 N 
ATOM     81  H59 UNL     1      11.759   7.735   3.629 +0.10 +0.00    +0.169 HD
ATOM     82  O3  UNL     1      12.453   5.044   5.184 -0.22 -0.00    -0.266 OA
BRANCH  80  83
ATOM     83  C12 UNL     1      10.292   6.333   3.803 -0.26 +0.00    +0.053 A 
ATOM     84  C11 UNL     1       9.188   6.903   3.129 -0.28 +0.00    +0.066 A 
ATOM     85  C10 UNL     1       8.107   6.031   3.208 -0.17 +0.00    +0.104 A 
ATOM     86  N21 UNL     1       8.565   4.934   3.919 -0.05 -0.00    -0.354 N 
ATOM     87  C56 UNL     1       9.877   5.114   4.282 -0.20 +0.00    +0.120 A 
ATOM     88  C57 UNL     1       7.790   3.757   4.256 -0.25 +0.00    +0.156 C 
BRANCH  85  89
ATOM     89  C9  UNL     1       6.762   6.165   2.674 -0.14 +0.00    +0.268 C 
ATOM     90  N3  UNL     1       5.995   5.019   2.708 -0.03 -0.00    -0.355 N 
ATOM     91  H58 UNL     1       6.420   4.155   3.011 +0.07 +0.00    +0.162 HD
ATOM     92  O2  UNL     1       6.310   7.215   2.219 -0.28 -0.00    -0.266 OA
BRANCH  90  93
ATOM     93  C8  UNL     1       4.660   4.963   2.138 -0.15 +0.00    +0.132 C 
BRANCH  93  94
ATOM     94  C7  UNL     1       4.619   4.232   0.800 -0.14 +0.00    +0.122 C 
BRANCH  94  95
ATOM     95  C6  UNL     1       5.918   3.513   0.512 -0.06 +0.00    +0.219 C 
ATOM     96  N2  UNL     1       5.810   2.144   0.486 -0.03 -0.00    -0.361 N 
ATOM     97  H57 UNL     1       4.892   1.722   0.646 +0.05 +0.00    +0.162 HD
ATOM     98  O1  UNL     1       6.972   4.119   0.343 -0.05 -0.00    -0.274 OA
BRANCH  96  99
ATOM     99  C5  UNL     1       6.947   1.272   0.288 -0.14 +0.00    +0.124 C 
BRANCH  99 100
ATOM    100  C4  UNL     1       7.940   1.819  -0.738 -0.13 +0.00    +0.050 C 
BRANCH 100 101
ATOM    101  C3  UNL     1       8.461   0.721  -1.676 -0.08 +0.00    +0.273 C 
BRANCH 101 102
ATOM    102  N1  UNL     1       9.903   0.458  -1.517 -0.22 +0.00    +0.080 N 
ATOM    103  C1  UNL     1      10.356  -0.651  -2.360 -0.20 +0.00    +0.309 C 
ATOM    104  C2  UNL     1      10.668   1.665  -1.842 -0.14 +0.00    +0.309 C 
ENDBRANCH 101 102
ENDBRANCH 100 101
ENDBRANCH  99 100
ENDBRANCH  96  99
ENDBRANCH  94  95
ENDBRANCH  93  94
ENDBRANCH  90  93
ENDBRANCH  85  89
ENDBRANCH  80  83
ENDBRANCH  75  79
ENDBRANCH  70  73
ENDBRANCH  65  69
ENDBRANCH  59  62
ENDBRANCH   1  58
TORSDOF 27
TER
