USER    Run = 1
USER    DPF = ligand_85_receptor.dpf
USER  
USER    Estimated Free Energy of Binding    =   -0.34 kcal/mol  [=(1)+(2)+(3)-(4)]
USER    Estimated Inhibition Constant, Ki   =  567.15 mM (millimolar)  [Temperature = 298.15 K]
USER    
USER    (1) Final Intermolecular Energy     =   -1.53 kcal/mol
USER        vdW + Hbond + desolv Energy     =   -1.53 kcal/mol
USER        Electrostatic Energy            =   +0.00 kcal/mol
USER    (2) Final Total Internal Energy     =   -1.22 kcal/mol
USER    (3) Torsional Free Energy           =   +1.19 kcal/mol
USER    (4) Unbound System's Energy  [=(2)] =   -1.22 kcal/mol
USER    
USER    
USER    NEWDPF move ligand_85.pdbqt
USER    NEWDPF about 0.000000 0.000000 0.000000
USER    NEWDPF tran0 11.720376 7.118625 2.857946
USER    NEWDPF quaternion0 0.133300 0.802759 0.124640 -0.567692
USER    NEWDPF axisangle0 0.161921 0.975120 0.151401 -110.821137
USER    NEWDPF quat0 0.161921 0.975120 0.151401 -110.821137
USER    NEWDPF dihe0 180.00 157.89 180.00 -20.52 -144.12 143.97 -118.82 153.88 180.00 114.65 -83.51 16.19 -61.49 
USER  keepresnum = 1 
USER  
REMARK  13 active torsions:
REMARK  status: ('A' for Active; 'I' for Inactive)
REMARK    1  A    between atoms: C5_5  and  C20_20 
REMARK    2  A    between atoms: C7_7  and  C8_8 
REMARK    3  A    between atoms: C8_8  and  C9_9 
REMARK    4  A    between atoms: C9_9  and  C10_10 
REMARK    5  A    between atoms: C16_16  and  N3_41 
REMARK    6  A    between atoms: C17_17  and  N3_41 
REMARK       I    between atoms: C20_20  and  N6_45 
REMARK    7  A    between atoms: C21_21  and  N6_45 
REMARK    8  A    between atoms: C23_23  and  C34_34 
REMARK    9  A    between atoms: C24_24  and  C27_27 
REMARK   10  A    between atoms: C27_27  and  N7_46 
REMARK   11  A    between atoms: C32_32  and  C33_33 
REMARK   12  A    between atoms: C32_32  and  N8_47 
REMARK   13  A    between atoms: C33_33  and  O2_50 
USER                              x       y       z     vdW  Elec       q    Type
USER                           _______ _______ _______ _____ _____    ______ ____
ROOT
ATOM      1  C34 UNL     1      12.380   4.268   6.182 -0.50 +0.00    +0.069 C 
ATOM      2  C35 UNL     1      13.617   3.709   5.450 +3.88 +0.00    +0.036 C 
ATOM      3  C36 UNL     1      11.167   4.072   5.221 -0.44 +0.00    +0.036 C 
ATOM      4  C37 UNL     1      12.051   3.400   7.343 +0.27 +0.00    +0.073 C 
ATOM      5  N9  UNL     1      11.733   2.692   8.211 +1.42 -0.00    -0.196 NA
ENDROOT
BRANCH   1   6
ATOM      6  C23 UNL     1      12.622   5.766   6.538 -0.42 -0.00    -0.026 A 
ATOM      7  C22 UNL     1      13.536   6.500   5.726 -0.43 +0.00    +0.039 A 
ATOM      8  C21 UNL     1      13.839   7.848   5.934 -0.18 +0.00    +0.035 A 
ATOM      9  C26 UNL     1      13.236   8.507   6.998 -0.34 +0.00    +0.030 A 
ATOM     10  C25 UNL     1      12.365   7.821   7.840 +0.23 +0.00    +0.012 A 
ATOM     11  C24 UNL     1      12.052   6.455   7.645 -0.22 -0.00    -0.022 A 
BRANCH   8  12
ATOM     12  N6  UNL     1      14.727   8.600   5.135 +0.14 -0.00    -0.323 N 
ATOM     13  C20 UNL     1      15.197   8.300   3.868 -0.37 +0.00    +0.259 C 
ATOM     14  O1  UNL     1      14.908   7.303   3.215 -0.19 -0.00    -0.267 OA
ATOM     15  H37 UNL     1      15.048   9.468   5.549 +0.21 +0.00    +0.169 HD
BRANCH  13  16
ATOM     16  C5  UNL     1      16.137   9.287   3.252 -0.43 +0.00    +0.072 A 
ATOM     17  C4  UNL     1      15.714  10.430   2.573 -0.20 +0.00    +0.132 A 
ATOM     18  C3  UNL     1      16.630  11.321   2.015 -0.49 +0.00    +0.051 A 
ATOM     19  F1  UNL     1      14.408  10.710   2.437 +0.80 -0.00    -0.205 F 
ATOM     20  C2  UNL     1      18.009  11.087   2.123 -0.48 -0.00    -0.040 A 
ATOM     21  C1  UNL     1      18.978  12.062   1.512 -0.72 +0.00    +0.050 C 
ATOM     22  C7  UNL     1      18.447   9.938   2.804 -0.43 +0.00    +0.025 A 
ATOM     23  C6  UNL     1      17.516   9.051   3.362 -0.50 +0.00    +0.041 A 
BRANCH  22  24
ATOM     24  C8  UNL     1      19.842   9.642   2.948 -0.23 -0.00    -0.059 C 
BRANCH  24  25
ATOM     25  C9  UNL     1      21.011   9.395   3.062 -0.37 -0.00    -0.041 C 
BRANCH  25  26
ATOM     26  C10 UNL     1      22.394   9.101   3.200 -0.34 +0.00    +0.110 A 
ATOM     27  C11 UNL     1      23.189   9.287   4.306 -0.29 +0.00    +0.129 A 
ATOM     28  N1  UNL     1      24.473   8.881   4.062 -0.30 -0.00    -0.347 N 
ATOM     29  C12 UNL     1      24.497   8.464   2.808 -0.38 +0.00    +0.139 A 
ATOM     30  H1  UNL     1      25.255   8.898   4.717 +0.06 +0.00    +0.167 HD
ATOM     31  C16 UNL     1      25.565   7.917   1.990 -0.41 +0.00    +0.077 A 
ATOM     32  N2  UNL     1      23.220   8.550   2.245 -0.22 -0.00    -0.298 N 
ATOM     33  C15 UNL     1      25.217   7.477   0.752 -0.38 +0.00    +0.035 A 
ATOM     34  C14 UNL     1      23.879   7.584   0.201 -0.46 +0.00    +0.020 A 
ATOM     35  C13 UNL     1      22.913   8.122   0.956 -0.23 +0.00    +0.099 A 
BRANCH  31  36
ATOM     36  N3  UNL     1      26.887   7.765   2.414 -0.23 -0.00    -0.351 N 
ATOM     37  H35 UNL     1      26.974   7.846   3.422 -0.32 +0.00    +0.166 HD
BRANCH  36  38
ATOM     38  C17 UNL     1      28.012   7.421   1.742 -0.25 +0.00    +0.066 A 
ATOM     39  C18 UNL     1      29.273   7.805   2.129 -0.29 +0.00    +0.138 A 
ATOM     40  N4  UNL     1      30.131   7.241   1.231 -0.17 -0.00    -0.310 N 
ATOM     41  N5  UNL     1      29.524   6.481   0.309 -0.08 -0.00    -0.310 N 
ATOM     42  H36 UNL     1      31.142   7.321   1.194 +0.08 +0.00    +0.186 HD
ATOM     43  C19 UNL     1      28.225   6.602   0.614 -0.19 +0.00    +0.138 A 
ATOM     44  H5  UNL     1      29.948   5.939  -0.444 +0.07 +0.00    +0.186 HD
ENDBRANCH  36  38
ENDBRANCH  31  36
ENDBRANCH  25  26
ENDBRANCH  24  25
ENDBRANCH  22  24
ENDBRANCH  13  16
ENDBRANCH   8  12
BRANCH  11  45
ATOM     45  C27 UNL     1      11.120   5.851   8.689 +3.07 +0.00    +0.311 C 
BRANCH  45  46
ATOM     46  N7  UNL     1       9.931   5.233   8.105 -0.28 +0.00    +0.096 N 
ATOM     47  C28 UNL     1       9.614   5.785   6.782 -0.12 +0.00    +0.303 C 
ATOM     48  C29 UNL     1       8.442   5.033   6.092 -0.21 +0.00    +0.302 C 
ATOM     49  N8  UNL     1       7.476   4.399   7.014 -0.42 +0.00    +0.093 N 
ATOM     50  C30 UNL     1       7.382   5.164   8.262 +1.06 +0.00    +0.302 C 
ATOM     51  C31 UNL     1       8.750   5.308   8.987 +0.41 +0.00    +0.303 C 
BRANCH  49  52
ATOM     52  C32 UNL     1       6.159   4.166   6.407 -0.28 +0.00    +0.298 C 
BRANCH  52  53
ATOM     53  C33 UNL     1       4.991   4.872   7.124 -0.32 +0.00    +0.194 C 
BRANCH  53  54
ATOM     54  O2  UNL     1       4.939   6.265   6.825 -0.22 -0.00    -0.399 OA
ATOM     55  H38 UNL     1       4.053   6.456   6.473 +0.09 +0.00    +0.209 HD
ENDBRANCH  53  54
ENDBRANCH  52  53
ENDBRANCH  49  52
ENDBRANCH  45  46
ENDBRANCH  11  45
ENDBRANCH   1   6
TORSDOF 13
TER
