USER    Run = 1
USER    DPF = ligand_481_receptor.dpf
USER  
USER    Estimated Free Energy of Binding    =  +1.70e+005 kcal/mol  [=(1)+(2)+(3)-(4)]
USER    
USER    (1) Final Intermolecular Energy     =  +1.70e+005 kcal/mol
USER        vdW + Hbond + desolv Energy     =  +1.70e+005 kcal/mol
USER        Electrostatic Energy            =   +0.00 kcal/mol
USER    (2) Final Total Internal Energy     =   +0.00 kcal/mol
USER    (3) Torsional Free Energy           =   +1.19 kcal/mol
USER    (4) Unbound System's Energy  [=(2)] =   +0.00 kcal/mol
USER    
USER    
USER    NEWDPF move ligand_481.pdbqt
USER    NEWDPF about 0.000000 0.000000 0.000000
USER    NEWDPF tran0 17.126872 7.318806 3.252488
USER    NEWDPF quaternion0 -0.047683 0.223483 -0.972059 0.053693
USER    NEWDPF axisangle0 -0.047752 0.223806 -0.973463 173.844302
USER    NEWDPF quat0 -0.047752 0.223806 -0.973463 173.844302
USER  keepresnum = 1 
USER  
REMARK  0 active torsions:
REMARK  status: ('A' for Active; 'I' for Inactive)
REMARK       I    between atoms: C2_2  and  C4_4 
REMARK       I    between atoms: C4_4  and  C5_5 
REMARK       I    between atoms: C5_5  and  C6_6 
REMARK       I    between atoms: C5_5  and  N3_96 
REMARK       I    between atoms: C6_6  and  N1_94 
REMARK       I    between atoms: C7_7  and  C8_8 
REMARK       I    between atoms: C7_7  and  C11_11 
REMARK       I    between atoms: C7_7  and  N1_94 
REMARK       I    between atoms: C8_8  and  C9_9 
REMARK       I    between atoms: C9_9  and  S1_120 
REMARK       I    between atoms: C11_11  and  N2_95 
REMARK       I    between atoms: C12_12  and  C13_13 
REMARK       I    between atoms: C12_12  and  N3_96 
REMARK       I    between atoms: C13_13  and  C14_14 
REMARK       I    between atoms: C13_13  and  N6_100 
REMARK       I    between atoms: C14_14  and  C15_15 
REMARK       I    between atoms: C18_18  and  C19_19 
REMARK       I    between atoms: C18_18  and  N6_100 
REMARK       I    between atoms: C19_19  and  N7_101 
REMARK       I    between atoms: C20_20  and  C21_21 
REMARK       I    between atoms: C20_20  and  N7_101 
REMARK       I    between atoms: C21_21  and  C22_22 
REMARK       I    between atoms: C21_21  and  N8_102 
REMARK       I    between atoms: C25_25  and  C26_26 
REMARK       I    between atoms: C25_25  and  N8_102 
REMARK       I    between atoms: C26_26  and  N9_103 
REMARK       I    between atoms: C28_28  and  C29_29 
REMARK       I    between atoms: C28_28  and  N9_103 
REMARK       I    between atoms: C29_29  and  C30_30 
REMARK       I    between atoms: C29_29  and  N11_105 
REMARK       I    between atoms: C30_30  and  C31_31 
REMARK       I    between atoms: C39_39  and  C40_40 
REMARK       I    between atoms: C39_39  and  N11_105 
REMARK       I    between atoms: C40_40  and  C41_41 
REMARK       I    between atoms: C40_40  and  N13_107 
REMARK       I    between atoms: C41_41  and  C42_42 
REMARK       I    between atoms: C42_42  and  C43_43 
REMARK       I    between atoms: C43_43  and  N12_106 
REMARK       I    between atoms: C44_44  and  C45_45 
REMARK       I    between atoms: C44_44  and  N13_107 
REMARK       I    between atoms: C45_45  and  C46_46 
REMARK       I    between atoms: C45_45  and  N15_109 
REMARK       I    between atoms: C46_46  and  C47_47 
REMARK       I    between atoms: C47_47  and  N14_108 
REMARK       I    between atoms: C48_48  and  C49_49 
REMARK       I    between atoms: C48_48  and  N15_109 
REMARK       I    between atoms: C49_49  and  N16_110 
REMARK       I    between atoms: C50_50  and  C51_51 
REMARK       I    between atoms: C50_50  and  N16_110 
REMARK       I    between atoms: C51_51  and  C52_52 
REMARK       I    between atoms: C51_51  and  N17_111 
REMARK       I    between atoms: C52_52  and  C53_53 
REMARK       I    between atoms: C56_56  and  O14_88 
REMARK       I    between atoms: C59_59  and  C60_60 
REMARK       I    between atoms: C59_59  and  N17_111 
REMARK       I    between atoms: C60_60  and  C61_61 
REMARK       I    between atoms: C60_60  and  N21_116 
REMARK       I    between atoms: C61_61  and  C62_62 
REMARK       I    between atoms: C62_62  and  C63_63 
REMARK       I    between atoms: C63_63  and  N18_112 
REMARK       I    between atoms: C64_64  and  N18_112 
REMARK       I    between atoms: C64_64  and  N20_115 
REMARK       I    between atoms: C65_65  and  C66_66 
REMARK       I    between atoms: C65_65  and  N21_116 
REMARK       I    between atoms: C66_66  and  C67_67 
REMARK       I    between atoms: C66_66  and  N23_118 
REMARK       I    between atoms: C67_67  and  C68_68 
REMARK       I    between atoms: C68_68  and  C69_69 
REMARK       I    between atoms: C69_69  and  N22_117 
REMARK       I    between atoms: C70_70  and  C71_71 
REMARK       I    between atoms: C70_70  and  N23_118 
USER                              x       y       z     vdW  Elec       q    Type
USER                           _______ _______ _______ _____ _____    ______ ____
ROOT
ATOM      1  C1  UNL     1       4.329   2.712   7.637+99.99 +0.00    +0.009 C 
ATOM      2  C2  UNL     1       4.729   3.953   6.835 -0.43 -0.00    -0.020 C 
ATOM      3  C3  UNL     1       3.529   4.456   6.030 -0.28 +0.00    +0.009 C 
ATOM      4  C4  UNL     1       5.293   5.028   7.788 +1.30 +0.00    +0.038 C 
ATOM      5  C5  UNL     1       5.808   6.295   7.092 -0.20 +0.00    +0.177 C 
ATOM      6  C6  UNL     1       6.329   7.313   8.133 +2.05 +0.00    +0.241 C 
ATOM      7  C7  UNL     1       6.835   9.729   8.456+48.07 +0.00    +0.177 C 
ATOM      8  C8  UNL     1       5.948  10.975   8.342+20.10 +0.00    +0.045 C 
ATOM      9  C9  UNL     1       6.449  12.126   9.215+68.18 +0.00    +0.076 C 
ATOM     10  C10 UNL     1       4.048  12.958  10.329+99.99 +0.00    +0.089 C 
ATOM     11  C11 UNL     1       8.247  10.016   7.904+99.99 +0.00    +0.238 C 
ATOM     12  C12 UNL     1       7.331   6.857   5.214+22.04 +0.00    +0.241 C 
ATOM     13  C13 UNL     1       8.657   6.461   4.536 +0.13 +0.00    +0.182 C 
ATOM     14  C14 UNL     1       8.794   7.149   3.167 -0.33 +0.00    +0.093 C 
ATOM     15  C15 UNL     1       9.442   8.489   3.267 -0.18 +0.00    +0.028 A 
ATOM     16  C16 UNL     1      10.719   8.857   3.628 +0.18 +0.00    +0.114 A 
ATOM     17  C17 UNL     1       9.711  10.679   3.160+99.99 +0.00    +0.180 A 
ATOM     18  C18 UNL     1      10.020   4.428   4.287 -0.22 +0.00    +0.236 C 
ATOM     19  C19 UNL     1       9.987   2.948   3.917 +0.12 +0.00    +0.225 C 
ATOM     20  C20 UNL     1       8.995   3.034   1.663 +0.04 +0.00    +0.241 C 
ATOM     21  C21 UNL     1       9.318   2.903   0.152 -0.03 +0.00    +0.180 C 
ATOM     22  C22 UNL     1       8.077   2.484  -0.674 -0.13 +0.00    +0.009 C 
ATOM     23  C23 UNL     1       7.051   3.600  -0.905 -0.12 +0.00    +0.012 C 
ATOM     24  C24 UNL     1       8.507   1.908  -2.028 -0.16 +0.00    +0.012 C 
ATOM     25  C25 UNL     1      11.247   4.454  -0.068 +4.00 +0.00    +0.240 C 
ATOM     26  C26 UNL     1      11.734   5.811  -0.622 -0.35 +0.00    +0.172 C 
ATOM     27  C27 UNL     1      10.933   6.964  -0.023 -0.29 +0.00    +0.042 C 
ATOM     28  C28 UNL     1      13.933   6.948  -0.825 +0.51 +0.00    +0.241 C 
ATOM     29  C29 UNL     1      15.396   7.014  -0.332 +5.52 +0.00    +0.181 C 
ATOM     30  C30 UNL     1      15.540   6.994   1.200+99.99 +0.00    +0.075 C 
ATOM     31  C31 UNL     1      15.062   8.204   1.954 +1.48 -0.00    -0.028 A 
ATOM     32  C32 UNL     1      13.876   8.894   1.789+99.99 +0.00    +0.096 A 
ATOM     33  C33 UNL     1      14.916   9.846   3.541 +2.65 +0.00    +0.042 A 
ATOM     34  C34 UNL     1      15.253  10.637   4.647+99.99 +0.00    +0.030 A 
ATOM     35  C35 UNL     1      16.465  10.372   5.289 +5.02 +0.00    +0.002 A 
ATOM     36  C36 UNL     1      17.305   9.355   4.841 +0.62 +0.00    +0.001 A 
ATOM     37  C37 UNL     1      16.953   8.575   3.734 -0.54 +0.00    +0.014 A 
ATOM     38  C38 UNL     1      15.732   8.819   3.067 -0.48 -0.00    -0.002 A 
ATOM     39  C39 UNL     1      17.362   8.415  -0.964 +0.26 +0.00    +0.241 C 
ATOM     40  C40 UNL     1      17.812   9.598  -1.861+11.09 +0.00    +0.177 C 
ATOM     41  C41 UNL     1      17.265  10.957  -1.399+83.12 +0.00    +0.044 C 
ATOM     42  C42 UNL     1      17.126  11.193   0.108 +0.68 +0.00    +0.105 C 
ATOM     43  C43 UNL     1      18.401  11.118   0.924 -0.44 +0.00    +0.215 C 
ATOM     44  C44 UNL     1      19.934   8.656  -2.650+99.99 +0.00    +0.241 C 
ATOM     45  C45 UNL     1      21.301   8.281  -2.053+88.46 +0.00    +0.185 C 
ATOM     46  C46 UNL     1      21.884   6.990  -2.621+20.91 +0.00    +0.137 C 
ATOM     47  C47 UNL     1      20.985   5.779  -2.504+99.99 +0.00    +0.217 C 
ATOM     48  C48 UNL     1      22.157   8.536   0.281 +0.50 +0.00    +0.236 C 
ATOM     49  C49 UNL     1      21.791   8.305   1.748 +5.03 +0.00    +0.225 C 
ATOM     50  C50 UNL     1      22.775   6.070   2.049+12.40 +0.00    +0.241 C 
ATOM     51  C51 UNL     1      24.018   5.299   2.547+99.99 +0.00    +0.180 C 
ATOM     52  C52 UNL     1      23.719   3.801   2.711 +6.77 +0.00    +0.073 C 
ATOM     53  C53 UNL     1      24.963   3.007   3.056+99.99 -0.00    -0.056 A 
ATOM     54  C54 UNL     1      25.938   2.763   2.077+99.99 +0.00    +0.010 A 
ATOM     55  C55 UNL     1      27.110   2.075   2.396+99.99 +0.00    +0.037 A 
ATOM     56  C56 UNL     1      27.308   1.629   3.697+99.99 +0.00    +0.065 A 
ATOM     57  C57 UNL     1      26.352   1.854   4.680+99.99 +0.00    +0.037 A 
ATOM     58  C58 UNL     1      25.178   2.540   4.360+99.99 +0.00    +0.010 A 
ATOM     59  C59 UNL     1      25.630   6.675   3.824 +1.89 +0.00    +0.241 C 
ATOM     60  C60 UNL     1      25.915   7.342   5.184 +9.35 +0.00    +0.176 C 
ATOM     61  C61 UNL     1      26.497   6.356   6.200 +5.54 +0.00    +0.036 C 
ATOM     62  C62 UNL     1      27.722   5.577   5.707+99.99 +0.00    +0.022 C 
ATOM     63  C63 UNL     1      28.208   4.592   6.771+64.87 +0.00    +0.122 C 
ATOM     64  C64 UNL     1      29.877   2.788   6.934+39.42 +0.00    +0.143 C 
ATOM     65  C65 UNL     1      26.209   9.614   4.357+99.99 +0.00    +0.241 C 
ATOM     66  C66 UNL     1      27.221  10.611   3.745+41.65 +0.00    +0.177 C 
ATOM     67  C67 UNL     1      27.540  10.223   2.296+99.99 +0.00    +0.044 C 
ATOM     68  C68 UNL     1      26.325  10.246   1.366 +3.53 +0.00    +0.105 C 
ATOM     69  C69 UNL     1      26.734  10.051  -0.078+99.99 +0.00    +0.215 C 
ATOM     70  C70 UNL     1      28.510  11.252   5.754+99.99 +0.00    +0.241 C 
ATOM     71  C71 UNL     1      29.920  11.362   6.371+17.23 +0.00    +0.177 C 
ATOM     72  C72 UNL     1      30.845  12.278   5.581+17.36 +0.00    +0.044 C 
ATOM     73  C73 UNL     1      30.618  13.656   6.201 -0.04 +0.00    +0.105 C 
ATOM     74  C74 UNL     1      30.151  13.334   7.598 -0.36 +0.00    +0.218 C 
ATOM     75  O1  UNL     1       6.884   6.983   9.175+26.42 -0.00    -0.271 OA
ATOM     76  O2  UNL     1       9.149  10.481   8.597+99.99 -0.00    -0.271 OA
ATOM     77  O3  UNL     1       6.765   7.935   5.022+99.99 -0.00    -0.271 OA
ATOM     78  O4  UNL     1      11.063   5.072   4.360 -0.19 -0.00    -0.272 OA
ATOM     79  O5  UNL     1       7.906   3.383   2.118 -0.11 -0.00    -0.271 OA
ATOM     80  O6  UNL     1      11.983   3.696   0.568+99.99 -0.00    -0.271 OA
ATOM     81  O7  UNL     1      13.502   7.737  -1.668+99.99 -0.00    -0.271 OA
ATOM     82  O8  UNL     1      18.149   7.763  -0.275+61.75 -0.00    -0.271 OA
ATOM     83  O9  UNL     1      19.494  10.758   0.504 -0.35 -0.00    -0.274 OA
ATOM     84  O10 UNL     1      19.505   8.243  -3.721+37.92 -0.00    -0.271 OA
ATOM     85  O11 UNL     1      20.638   5.103  -3.469+99.99 -0.00    -0.274 OA
ATOM     86  O12 UNL     1      23.277   8.894  -0.078 -0.34 -0.00    -0.272 OA
ATOM     87  O13 UNL     1      21.903   5.559   1.346+95.90 -0.00    -0.271 OA
ATOM     88  O14 UNL     1      28.450   0.971   4.053+99.99 -0.00    -0.361 OA
ATOM     89  O15 UNL     1      26.362   6.824   2.847 +0.48 -0.00    -0.271 OA
ATOM     90  O16 UNL     1      24.994   9.713   4.177 +2.25 -0.00    -0.271 OA
ATOM     91  O17 UNL     1      27.894  10.028  -0.472+99.99 -0.00    -0.274 OA
ATOM     92  O18 UNL     1      27.495  11.637   6.328+99.99 -0.00    -0.271 OA
ATOM     93  O19 UNL     1      29.989  14.130   8.504 -0.20 -0.00    -0.274 OA
ATOM     94  N1  UNL     1       6.206   8.627   7.721+10.08 -0.00    -0.346 N 
ATOM     95  N2  UNL     1       8.411   9.915   6.550+99.99 -0.00    -0.368 N 
ATOM     96  N3  UNL     1       6.924   5.984   6.201 +0.25 -0.00    -0.346 N 
ATOM     97  N4  UNL     1      10.878  10.218   3.549 +6.30 -0.00    -0.360 N 
ATOM     98  H4  UNL     1      11.721  10.756   3.750 +3.65 +0.00    +0.166 HD
ATOM     99  N5  UNL     1       8.805   9.671   2.979+41.81 -0.00    -0.354 N 
ATOM    100  N6  UNL     1       8.769   5.005   4.421 -0.07 -0.00    -0.346 N 
ATOM    101  N7  UNL     1      10.085   2.809   2.480+10.75 -0.00    -0.351 N 
ATOM    102  N8  UNL     1       9.930   4.142  -0.328 -0.02 -0.00    -0.346 N 
ATOM    103  N9  UNL     1      13.154   5.945  -0.305 -0.16 -0.00    -0.346 N 
ATOM    104  N10 UNL     1      13.788   9.862   2.757+11.97 -0.00    -0.365 N 
ATOM    105  N11 UNL     1      16.011   8.174  -0.982 -0.04 -0.00    -0.346 N 
ATOM    106  N12 UNL     1      18.240  11.487   2.227 -0.20 -0.00    -0.370 N 
ATOM    107  N13 UNL     1      19.264   9.600  -1.887+99.99 -0.00    -0.346 N 
ATOM    108  N14 UNL     1      20.614   5.409  -1.246+64.59 -0.00    -0.370 N 
ATOM    109  N15 UNL     1      21.148   8.239  -0.596 +6.88 -0.00    -0.346 N 
ATOM    110  N16 UNL     1      22.785   7.424   2.335 +0.76 -0.00    -0.351 N 
ATOM    111  N17 UNL     1      24.501   5.890   3.800+99.99 -0.00    -0.346 N 
ATOM    112  N18 UNL     1      29.237   3.736   6.217+57.51 -0.00    -0.367 N 
ATOM    113  N19 UNL     1      30.146   2.802   8.187+17.92 -0.00    -0.376 N 
ATOM    114  H19 UNL     1      30.603   2.052   8.704 +0.49 +0.00    +0.158 HD
ATOM    115  N20 UNL     1      30.267   1.743   6.183+24.72 -0.00    -0.274 NA
ATOM    116  N21 UNL     1      26.776   8.489   4.942+99.99 -0.00    -0.346 N 
ATOM    117  N22 UNL     1      25.691   9.936  -0.947+99.99 -0.00    -0.370 N 
ATOM    118  N23 UNL     1      28.472  10.633   4.518+99.99 -0.00    -0.346 N 
ATOM    119  N24 UNL     1      29.893  11.980   7.671 +0.01 -0.00    -0.348 N 
ATOM    120  S1  UNL     1       5.299  13.543   9.159+99.99 -0.00    -0.173 SA
ATOM    121  H80 UNL     1      28.942   0.765   3.237 -0.08 +0.00    +0.217 HD
ATOM    122  H81 UNL     1       5.994   8.774   6.736 +3.41 +0.00    +0.163 HD
ATOM    123  H82 UNL     1       7.800   9.337   5.986+99.99 +0.00    +0.159 HD
ATOM    124  H83 UNL     1       9.351  10.064   6.196 +1.95 +0.00    +0.159 HD
ATOM    125  H84 UNL     1       7.624   5.330   6.537 +0.09 +0.00    +0.163 HD
ATOM    126  H85 UNL     1       7.842   9.786   2.693 +2.13 +0.00    +0.166 HD
ATOM    127  H86 UNL     1       8.010   4.511   3.947 +0.09 +0.00    +0.163 HD
ATOM    128  H87 UNL     1      11.010   2.912   2.054+99.99 +0.00    +0.163 HD
ATOM    129  H88 UNL     1       9.320   4.868  -0.680 +0.07 +0.00    +0.163 HD
ATOM    130  H89 UNL     1      13.544   5.247   0.322 +0.02 +0.00    +0.163 HD
ATOM    131  H90 UNL     1      12.970  10.442   2.924 +4.86 +0.00    +0.165 HD
ATOM    132  H91 UNL     1      15.432   8.634  -1.681 +0.86 +0.00    +0.163 HD
ATOM    133  H92 UNL     1      17.329  11.391   2.664 +0.13 +0.00    +0.159 HD
ATOM    134  H93 UNL     1      19.032  11.333   2.838 +0.13 +0.00    +0.159 HD
ATOM    135  H94 UNL     1      19.706   9.827  -0.991 +1.14 +0.00    +0.163 HD
ATOM    136  H95 UNL     1      21.157   5.668  -0.424 +0.49 +0.00    +0.159 HD
ATOM    137  H96 UNL     1      20.111   4.535  -1.174 +5.77 +0.00    +0.159 HD
ATOM    138  H97 UNL     1      20.264   7.862  -0.244+48.37 +0.00    +0.163 HD
ATOM    139  H98 UNL     1      23.684   7.847   2.552 +0.12 +0.00    +0.163 HD
ATOM    140  H99 UNL     1      23.830   5.985   4.552+99.99 +0.00    +0.163 HD
ATOM    141  HA0 UNL     1      29.057   3.444   5.262+33.60 +0.00    +0.162 HD
ATOM    142  HA1 UNL     1      29.828   3.686   8.584 +0.84 +0.00    +0.158 HD
ATOM    143  HA2 UNL     1      29.535   1.372   5.581 +0.22 +0.00    +0.127 HD
ATOM    144  HA3 UNL     1      30.628   1.011   6.787+99.99 +0.00    +0.127 HD
ATOM    145  HA4 UNL     1      27.732   8.308   4.661+99.99 +0.00    +0.163 HD
ATOM    146  HA5 UNL     1      25.921   9.694  -1.900+99.99 +0.00    +0.159 HD
ATOM    147  HA6 UNL     1      24.773   9.628  -0.615 +0.90 +0.00    +0.159 HD
ATOM    148  HA7 UNL     1      29.339  10.539   4.002+99.99 +0.00    +0.163 HD
ATOM    149  HA8 UNL     1      29.303  11.662   8.431 -0.17 +0.00    +0.163 HD
ENDROOT
TORSDOF 52
TER
