USER    Run = 1
USER    DPF = ligand_175_receptor.dpf
USER  
USER    Estimated Free Energy of Binding    =  +1.54e+003 kcal/mol  [=(1)+(2)+(3)-(4)]
USER    
USER    (1) Final Intermolecular Energy     =  +1.53e+003 kcal/mol
USER        vdW + Hbond + desolv Energy     =  +1.53e+003 kcal/mol
USER        Electrostatic Energy            =   +0.00 kcal/mol
USER    (2) Final Total Internal Energy     =   +0.95 kcal/mol
USER    (3) Torsional Free Energy           =   +1.19 kcal/mol
USER    (4) Unbound System's Energy  [=(2)] =   +0.95 kcal/mol
USER    
USER    
USER    NEWDPF move ligand_175.pdbqt
USER    NEWDPF about 0.000000 0.000000 0.000000
USER    NEWDPF tran0 21.015425 9.442959 1.808205
USER    NEWDPF quaternion0 0.072160 -0.913117 -0.018666 0.400826
USER    NEWDPF axisangle0 0.078764 -0.996685 -0.020374 132.740367
USER    NEWDPF quat0 0.078764 -0.996685 -0.020374 132.740367
USER    NEWDPF dihe0 -64.22 -5.25 -166.93 -132.34 180.00 -180.00 -98.81 135.12 131.99 -80.52 108.38 -173.73 -26.84 -111.39 144.08 -180.00 -99.90 180.00 -73.02 -142.35 86.55 -159.80 -56.26 118.04 
USER  keepresnum = 1 
USER  
REMARK  24 active torsions:
REMARK  status: ('A' for Active; 'I' for Inactive)
REMARK    1  A    between atoms: C2_2  and  O1_46 
REMARK    2  A    between atoms: C3_3  and  C10_10 
REMARK    3  A    between atoms: C5_5  and  N1_59 
REMARK    4  A    between atoms: C8_8  and  C9_9 
REMARK       I    between atoms: C8_8  and  N1_59 
REMARK    5  A    between atoms: C9_9  and  N2_60 
REMARK       I    between atoms: C10_10  and  N3_61 
REMARK    6  A    between atoms: C11_11  and  C12_12 
REMARK    7  A    between atoms: C11_11  and  N3_61 
REMARK       I    between atoms: C12_12  and  N4_62 
REMARK    8  A    between atoms: C13_13  and  N4_62 
REMARK    9  A    between atoms: C15_15  and  C20_20 
REMARK   10  A    between atoms: C16_16  and  O5_50 
REMARK       I    between atoms: C20_20  and  N5_63 
REMARK   11  A    between atoms: C21_21  and  C22_22 
REMARK   12  A    between atoms: C21_21  and  C27_27 
REMARK   13  A    between atoms: C21_21  and  N5_63 
REMARK   14  A    between atoms: C22_22  and  C24_24 
REMARK   15  A    between atoms: C24_24  and  C25_25 
REMARK   16  A    between atoms: C25_25  and  N6_64 
REMARK       I    between atoms: C26_26  and  N6_64 
REMARK       I    between atoms: C26_26  and  N7_65 
REMARK       I    between atoms: C27_27  and  N8_66 
REMARK   17  A    between atoms: C28_28  and  N8_66 
REMARK   18  A    between atoms: C30_30  and  C35_35 
REMARK   19  A    between atoms: C31_31  and  O9_54 
REMARK       I    between atoms: C35_35  and  N9_67 
REMARK   20  A    between atoms: C36_36  and  C37_37 
REMARK   21  A    between atoms: C36_36  and  N9_67 
REMARK       I    between atoms: C37_37  and  N10_68 
REMARK   22  A    between atoms: C38_38  and  N10_68 
REMARK   23  A    between atoms: C40_40  and  C45_45 
REMARK   24  A    between atoms: C41_41  and  O12_57 
REMARK       I    between atoms: C45_45  and  N11_69 
USER                              x       y       z     vdW  Elec       q    Type
USER                           _______ _______ _______ _____ _____    ______ ____
ROOT
ATOM      1  C21 UNL     1      19.622   5.161   4.312+99.99 +0.00    +0.206 C 
ENDROOT
BRANCH   1   2
ATOM      2  C22 UNL     1      20.693   4.384   3.565+39.98 -0.00    -0.056 C 
ATOM      3  C23 UNL     1      20.694   3.040   3.470 +3.12 +0.00    +0.017 C 
BRANCH   2   4
ATOM      4  C24 UNL     1      21.828   5.187   2.947+64.24 +0.00    +0.055 C 
BRANCH   4   5
ATOM      5  C25 UNL     1      23.015   4.355   2.430 +8.10 +0.00    +0.128 C 
BRANCH   5   6
ATOM      6  N6  UNL     1      24.088   5.155   1.878 +1.14 -0.00    -0.343 N 
ATOM      7  C26 UNL     1      24.912   4.667   0.912 -0.27 +0.00    +0.313 C 
ATOM      8  O7  UNL     1      24.774   3.603   0.328 -0.55 -0.00    -0.248 OA
ATOM      9  N7  UNL     1      25.944   5.505   0.648 -0.16 -0.00    -0.352 N 
ATOM     10  H45 UNL     1      25.778   6.494   0.770 +0.12 +0.00    +0.160 HD
ATOM     11  H46 UNL     1      26.490   5.249  -0.163 +0.10 +0.00    +0.160 HD
ATOM     12  H44 UNL     1      24.496   5.853   2.497 +0.36 +0.00    +0.164 HD
ENDBRANCH   5   6
ENDBRANCH   4   5
ENDBRANCH   2   4
ENDBRANCH   1   2
BRANCH   1  13
ATOM     13  C27 UNL     1      18.655   5.899   3.318+27.89 +0.00    +0.249 C 
ATOM     14  O8  UNL     1      18.736   5.679   2.107+99.99 -0.00    -0.271 OA
ATOM     15  N8  UNL     1      17.821   6.828   3.896 +4.80 -0.00    -0.325 N 
ATOM     16  H47 UNL     1      17.983   6.986   4.891 +0.75 +0.00    +0.169 HD
BRANCH  15  17
ATOM     17  C28 UNL     1      16.927   7.720   3.279 -0.52 +0.00    +0.035 A 
ATOM     18  C29 UNL     1      15.603   7.424   2.966 +2.77 +0.00    +0.049 A 
ATOM     19  C30 UNL     1      14.793   8.368   2.306 +1.67 +0.00    +0.067 A 
ATOM     20  C31 UNL     1      15.318   9.631   1.957 +2.71 +0.00    +0.084 A 
ATOM     21  C32 UNL     1      16.639   9.928   2.297 -0.45 +0.00    +0.040 A 
ATOM     22  C33 UNL     1      17.434   8.979   2.945 -0.50 +0.00    +0.032 A 
BRANCH  19  23
ATOM     23  C35 UNL     1      13.415   7.920   1.932+26.97 +0.00    +0.254 C 
ATOM     24  O10 UNL     1      13.173   7.534   0.795 +3.36 -0.00    -0.268 OA
ATOM     25  N9  UNL     1      12.445   8.019   2.904 -0.02 -0.00    -0.348 N 
ATOM     26  H48 UNL     1      12.709   8.405   3.806 +0.06 +0.00    +0.163 HD
BRANCH  25  27
ATOM     27  C36 UNL     1      11.023   7.915   2.596 +0.77 +0.00    +0.226 C 
BRANCH  27  28
ATOM     28  C37 UNL     1      10.519   6.458   2.540 -0.22 +0.00    +0.239 C 
ATOM     29  O11 UNL     1      11.280   5.540   2.243 +0.01 -0.00    -0.271 OA
ATOM     30  N10 UNL     1       9.175   6.334   2.840 -0.10 -0.00    -0.326 N 
ATOM     31  H49 UNL     1       8.699   7.211   3.024 +0.09 +0.00    +0.169 HD
BRANCH  30  32
ATOM     32  C38 UNL     1       8.387   5.174   2.904 -0.17 +0.00    +0.035 A 
ATOM     33  C39 UNL     1       7.271   5.213   3.745 -0.18 +0.00    +0.049 A 
ATOM     34  C40 UNL     1       6.425   4.099   3.899 -0.17 +0.00    +0.067 A 
ATOM     35  C41 UNL     1       6.697   2.918   3.181 -0.21 +0.00    +0.084 A 
ATOM     36  C42 UNL     1       7.813   2.891   2.332 -0.22 +0.00    +0.040 A 
ATOM     37  C43 UNL     1       8.651   4.007   2.198 -0.16 +0.00    +0.032 A 
BRANCH  34  38
ATOM     38  C45 UNL     1       5.283   4.282   4.852 -0.16 +0.00    +0.252 C 
ATOM     39  O13 UNL     1       5.241   3.680   5.921 -0.39 -0.00    -0.268 OA
ATOM     40  N11 UNL     1       4.292   5.149   4.501 -0.04 -0.00    -0.366 N 
ATOM     41  H50 UNL     1       4.278   5.602   3.596 +0.05 +0.00    +0.159 HD
ATOM     42  H51 UNL     1       3.496   5.291   5.125 +0.06 +0.00    +0.159 HD
ENDBRANCH  34  38
BRANCH  35  43
ATOM     43  O12 UNL     1       5.855   1.850   3.353 -0.20 -0.00    -0.355 OA
ATOM     44  C44 UNL     1       5.133   1.380   2.221 -0.18 +0.00    +0.210 C 
ENDBRANCH  35  43
ENDBRANCH  30  32
ENDBRANCH  27  28
ENDBRANCH  25  27
ENDBRANCH  19  23
BRANCH  20  45
ATOM     45  O9  UNL     1      14.498  10.500   1.278+48.26 -0.00    -0.355 OA
ATOM     46  C34 UNL     1      15.045  11.758   0.887 +0.44 +0.00    +0.210 C 
ENDBRANCH  20  45
ENDBRANCH  15  17
ENDBRANCH   1  13
BRANCH   1  47
ATOM     47  N5  UNL     1      20.210   5.804   5.489+44.45 -0.00    -0.340 N 
ATOM     48  C20 UNL     1      19.517   6.378   6.525+43.09 +0.00    +0.255 C 
ATOM     49  O6  UNL     1      18.356   6.066   6.779+66.82 -0.00    -0.268 OA
ATOM     50  H43 UNL     1      21.119   6.223   5.319+99.99 +0.00    +0.164 HD
BRANCH  48  51
ATOM     51  C15 UNL     1      20.231   7.356   7.406+99.99 +0.00    +0.067 A 
ATOM     52  C14 UNL     1      21.213   8.143   6.774+99.99 +0.00    +0.049 A 
ATOM     53  C13 UNL     1      21.957   9.090   7.480 +1.36 +0.00    +0.035 A 
ATOM     54  C18 UNL     1      21.716   9.249   8.840 -0.07 +0.00    +0.032 A 
ATOM     55  C17 UNL     1      20.746   8.470   9.487+24.02 +0.00    +0.040 A 
ATOM     56  C16 UNL     1      20.000   7.514   8.785+12.92 +0.00    +0.084 A 
BRANCH  53  57
ATOM     57  N4  UNL     1      22.911   9.821   6.752 +4.49 -0.00    -0.326 N 
ATOM     58  C12 UNL     1      22.827  10.296   5.457 +0.52 +0.00    +0.239 C 
ATOM     59  O4  UNL     1      21.904  10.097   4.670 +2.06 -0.00    -0.271 OA
ATOM     60  H42 UNL     1      23.791  10.025   7.230 +3.99 +0.00    +0.169 HD
BRANCH  58  61
ATOM     61  C11 UNL     1      24.097  11.036   5.010 +4.10 +0.00    +0.226 C 
BRANCH  61  62
ATOM     62  N3  UNL     1      24.694  10.500   3.796 -0.06 -0.00    -0.348 N 
ATOM     63  C10 UNL     1      24.415   9.254   3.297 -0.45 +0.00    +0.254 C 
ATOM     64  O3  UNL     1      23.750   8.450   3.950 -0.25 -0.00    -0.268 OA
ATOM     65  H41 UNL     1      25.280  11.117   3.239 +0.11 +0.00    +0.163 HD
BRANCH  63  66
ATOM     66  C3  UNL     1      24.970   8.882   1.953 -0.44 +0.00    +0.067 A 
ATOM     67  C2  UNL     1      24.193   8.688   0.793 -0.36 +0.00    +0.084 A 
ATOM     68  C7  UNL     1      24.841   8.328  -0.394 -0.01 +0.00    +0.040 A 
ATOM     69  C6  UNL     1      26.232   8.162  -0.440 +0.30 +0.00    +0.032 A 
ATOM     70  C5  UNL     1      27.010   8.355   0.697 -0.37 +0.00    +0.035 A 
ATOM     71  C4  UNL     1      26.371   8.718   1.887 -0.47 +0.00    +0.049 A 
BRANCH  67  72
ATOM     72  O1  UNL     1      22.836   8.859   0.888 -0.23 -0.00    -0.355 OA
ATOM     73  C1  UNL     1      22.317   9.431   2.086 -0.34 +0.00    +0.210 C 
ENDBRANCH  67  72
BRANCH  70  74
ATOM     74  N1  UNL     1      28.413   8.205   0.728 -0.18 -0.00    -0.326 N 
ATOM     75  C8  UNL     1      29.129   7.028   0.875 -0.21 +0.00    +0.250 C 
ATOM     76  O2  UNL     1      28.661   5.900   1.008 -0.07 -0.00    -0.271 OA
ATOM     77  H38 UNL     1      28.957   9.058   0.642 +0.09 +0.00    +0.169 HD
BRANCH  75  78
ATOM     78  C9  UNL     1      30.650   7.262   0.864 -0.13 +0.00    +0.369 C 
BRANCH  78  79
ATOM     79  N2  UNL     1      30.958   8.670   0.534 -0.21 +0.00    +0.087 N 
ATOM     80  H39 UNL     1      31.608   8.647  -0.259 +0.12 +0.00    +0.313 HD
ATOM     81  H40 UNL     1      31.547   9.032   1.290 +0.14 +0.00    +0.313 HD
ENDBRANCH  78  79
ENDBRANCH  75  78
ENDBRANCH  70  74
ENDBRANCH  63  66
ENDBRANCH  61  62
ENDBRANCH  58  61
ENDBRANCH  53  57
BRANCH  56  82
ATOM     82  O5  UNL     1      19.045   6.721   9.370 +3.74 -0.00    -0.355 OA
ATOM     83  C19 UNL     1      18.946   5.371   8.924+73.84 +0.00    +0.210 C 
ENDBRANCH  56  82
ENDBRANCH  48  51
ENDBRANCH   1  47
TORSDOF 24
TER
