USER    Run = 1
USER    DPF = ligand_372_receptor.dpf
USER  
USER    Estimated Free Energy of Binding    =   +1.12 kcal/mol  [=(1)+(2)+(3)-(4)]
USER    
USER    (1) Final Intermolecular Energy     =   -0.07 kcal/mol
USER        vdW + Hbond + desolv Energy     =   -0.07 kcal/mol
USER        Electrostatic Energy            =   +0.00 kcal/mol
USER    (2) Final Total Internal Energy     =   +5.65 kcal/mol
USER    (3) Torsional Free Energy           =   +1.19 kcal/mol
USER    (4) Unbound System's Energy  [=(2)] =   +5.65 kcal/mol
USER    
USER    
USER    NEWDPF move ligand_372.pdbqt
USER    NEWDPF about 0.000000 0.000000 0.000000
USER    NEWDPF tran0 9.278895 3.970260 5.275688
USER    NEWDPF quaternion0 0.556048 0.148401 0.321023 -0.752152
USER    NEWDPF axisangle0 0.843788 0.225194 0.487143 -82.445744
USER    NEWDPF quat0 0.843788 0.225194 0.487143 -82.445744
USER    NEWDPF dihe0 131.65 136.76 25.38 25.63 -93.73 -179.84 -173.08 161.20 -14.05 60.40 80.02 147.77 83.02 -171.23 -177.76 -95.96 104.97 164.49 23.38 
USER  keepresnum = 1 
USER  
REMARK  19 active torsions:
REMARK  status: ('A' for Active; 'I' for Inactive)
REMARK    1  A    between atoms: C3_3  and  O14_67 
REMARK    2  A    between atoms: C4_4  and  N1_68 
REMARK    3  A    between atoms: C6_6  and  O2_55 
REMARK    4  A    between atoms: C7_7  and  O2_55 
REMARK    5  A    between atoms: C9_9  and  C26_26 
REMARK    6  A    between atoms: C9_9  and  O9_62 
REMARK    7  A    between atoms: C12_12  and  O7_60 
REMARK    8  A    between atoms: C15_15  and  O3_56 
REMARK    9  A    between atoms: C24_24  and  O6_59 
REMARK   10  A    between atoms: C28_28  and  C29_29 
REMARK   11  A    between atoms: C28_28  and  N1_68 
REMARK   12  A    between atoms: C32_32  and  N2_69 
REMARK   13  A    between atoms: C35_35  and  C36_36 
REMARK       I    between atoms: C35_35  and  N2_69 
REMARK   14  A    between atoms: C38_38  and  N4_71 
REMARK   15  A    between atoms: C41_41  and  C42_42 
REMARK       I    between atoms: C41_41  and  N4_71 
REMARK   16  A    between atoms: C44_44  and  N6_73 
REMARK   17  A    between atoms: C47_47  and  C48_48 
REMARK       I    between atoms: C47_47  and  N6_73 
REMARK   18  A    between atoms: C50_50  and  N8_75 
REMARK   19  A    between atoms: C53_53  and  N8_75 
USER                              x       y       z     vdW  Elec       q    Type
USER                           _______ _______ _______ _____ _____    ______ ____
ROOT
ATOM      1  N1  UNL     1       7.122   2.147   2.218 -0.23 +0.00    +0.095 N 
ATOM      2  H50 UNL     1       7.817   1.900   2.923 -0.07 +0.00    +0.316 HD
ENDROOT
BRANCH   1   3
ATOM      3  C4  UNL     1       5.992   2.870   2.835 -0.13 +0.00    +0.256 C 
ATOM      4  C3  UNL     1       4.774   3.051   1.880 -0.08 +0.00    +0.180 C 
ATOM      5  C2  UNL     1       4.672   4.490   1.339 -0.13 +0.00    +0.151 C 
ATOM      6  C1  UNL     1       3.782   4.552   0.101 +0.36 +0.00    +0.042 C 
ATOM      7  O1  UNL     1       5.971   4.955   0.971 -0.07 -0.00    -0.354 OA
ATOM      8  C6  UNL     1       6.817   5.170   2.106 -0.08 +0.00    +0.263 C 
ATOM      9  C5  UNL     1       6.496   4.245   3.284 -0.16 +0.00    +0.099 C 
BRANCH   4  10
ATOM     10  O14 UNL     1       3.560   2.707   2.555 -0.02 -0.00    -0.391 OA
ATOM     11  H49 UNL     1       3.488   3.307   3.321 +0.07 +0.00    +0.210 HD
ENDBRANCH   4  10
BRANCH   8  12
ATOM     12  O2  UNL     1       6.712   6.516   2.572 -0.14 -0.00    -0.351 OA
BRANCH  12  13
ATOM     13  C7  UNL     1       6.201   6.603   3.907 +1.84 +0.00    +0.164 C 
ATOM     14  C8  UNL     1       4.767   6.065   3.837 -0.14 +0.00    +0.083 C 
ATOM     15  C9  UNL     1       4.210   5.727   5.211 -0.19 +0.00    +0.124 C 
ATOM     16  C10 UNL     1       5.070   4.613   5.824 -0.32 +0.00    +0.088 C 
ATOM     17  C11 UNL     1       6.563   4.850   5.729 -0.34 -0.00    -0.009 A 
ATOM     18  C12 UNL     1       7.427   4.090   6.537 -0.36 +0.00    +0.088 A 
ATOM     19  C16 UNL     1       7.101   5.809   4.846 -0.14 +0.00    +0.014 A 
ATOM     20  C13 UNL     1       8.812   4.317   6.537 -0.38 +0.00    +0.066 A 
ATOM     21  C14 UNL     1       9.345   5.315   5.729 -0.26 +0.00    +0.066 A 
ATOM     22  C20 UNL     1       9.701   3.515   7.399 -0.36 +0.00    +0.197 A 
ATOM     23  C15 UNL     1       8.487   6.062   4.897 +0.05 +0.00    +0.090 A 
ATOM     24  C17 UNL     1      10.803   5.577   5.741 -0.19 +0.00    +0.200 A 
ATOM     25  C18 UNL     1      11.686   4.833   6.671 -0.38 +0.00    +0.062 A 
ATOM     26  O4  UNL     1      11.246   6.404   4.949 -0.17 -0.00    -0.286 OA
ATOM     27  C19 UNL     1      11.140   3.822   7.462 -0.45 +0.00    +0.032 A 
ATOM     28  C24 UNL     1      13.061   5.101   6.777 -0.46 +0.00    +0.083 A 
ATOM     29  C21 UNL     1      11.948   3.087   8.345 +1.49 +0.00    +0.017 A 
ATOM     30  C22 UNL     1      13.308   3.370   8.451 +0.46 +0.00    +0.004 A 
ATOM     31  C23 UNL     1      13.862   4.384   7.676 -0.54 +0.00    +0.038 A 
ATOM     32  O5  UNL     1       9.231   2.599   8.069 -0.42 -0.00    -0.286 OA
BRANCH  15  33
ATOM     33  C26 UNL     1       4.110   6.976   6.116 +0.25 +0.00    +0.157 C 
ATOM     34  C27 UNL     1       4.951   6.998   7.369 -0.27 +0.00    +0.094 C 
ATOM     35  O8  UNL     1       3.379   7.931   5.844 -0.03 -0.00    -0.295 OA
ENDBRANCH  15  33
BRANCH  15  36
ATOM     36  O9  UNL     1       2.875   5.225   5.036 -0.03 -0.00    -0.382 OA
ATOM     37  H48 UNL     1       2.374   5.893   4.530 +0.05 +0.00    +0.211 HD
ENDBRANCH  15  36
BRANCH  18  38
ATOM     38  O7  UNL     1       6.851   3.121   7.320 +0.45 -0.00    -0.359 OA
ATOM     39  H47 UNL     1       7.440   2.944   8.089 +0.11 +0.00    +0.217 HD
ENDBRANCH  18  38
BRANCH  23  40
ATOM     40  O3  UNL     1       8.969   7.092   4.126 -0.10 -0.00    -0.359 OA
ATOM     41  H46 UNL     1       9.894   6.885   3.863 +0.13 +0.00    +0.217 HD
ENDBRANCH  23  40
BRANCH  28  42
ATOM     42  O6  UNL     1      13.660   6.125   6.095 -0.26 -0.00    -0.355 OA
ATOM     43  C25 UNL     1      14.982   6.353   6.585 +0.40 +0.00    +0.210 C 
ENDBRANCH  28  42
ENDBRANCH  12  13
ENDBRANCH   8  12
ENDBRANCH   1   3
BRANCH   1  44
ATOM     44  C28 UNL     1       7.761   2.862   1.114 -0.07 +0.00    +0.308 C 
BRANCH  44  45
ATOM     45  C29 UNL     1       8.909   3.746   1.533 -0.05 -0.00    -0.030 A 
ATOM     46  C30 UNL     1       9.242   3.888   2.886 -0.11 +0.00    +0.011 A 
ATOM     47  C31 UNL     1      10.323   4.686   3.280 +0.33 +0.00    +0.030 A 
ATOM     48  C32 UNL     1      11.088   5.362   2.330 +2.49 +0.00    +0.035 A 
ATOM     49  C33 UNL     1      10.751   5.228   0.977 +1.59 +0.00    +0.030 A 
ATOM     50  C34 UNL     1       9.672   4.431   0.581 +0.21 +0.00    +0.011 A 
BRANCH  48  51
ATOM     51  N2  UNL     1      12.197   6.178   2.635 -0.04 -0.00    -0.322 N 
ATOM     52  C35 UNL     1      12.234   7.555   2.766 -0.12 +0.00    +0.273 C 
ATOM     53  O10 UNL     1      11.270   8.293   2.598 +1.10 -0.00    -0.266 OA
ATOM     54  H51 UNL     1      13.076   5.693   2.741 +0.15 +0.00    +0.169 HD
BRANCH  52  55
ATOM     55  C36 UNL     1      13.553   8.085   3.117 +0.03 +0.00    +0.105 A 
ATOM     56  C37 UNL     1      14.717   8.163   2.357 +1.01 +0.00    +0.066 A 
ATOM     57  C38 UNL     1      15.736   8.761   3.133 -0.45 +0.00    +0.053 A 
ATOM     58  C39 UNL     1      15.192   9.025   4.366 -0.04 +0.00    +0.120 A 
ATOM     59  N3  UNL     1      13.881   8.615   4.355 -0.12 -0.00    -0.354 N 
ATOM     60  C40 UNL     1      12.988   8.744   5.488 +0.63 +0.00    +0.156 C 
BRANCH  57  61
ATOM     61  N4  UNL     1      17.048   9.047   2.813 -0.24 -0.00    -0.320 N 
ATOM     62  C41 UNL     1      17.801  10.058   3.377 -0.28 +0.00    +0.273 C 
ATOM     63  O11 UNL     1      17.437  10.778   4.302 -0.19 -0.00    -0.266 OA
ATOM     64  H52 UNL     1      17.508   8.405   2.184 +0.11 +0.00    +0.169 HD
BRANCH  62  65
ATOM     65  C42 UNL     1      19.134  10.162   2.809 -0.24 +0.00    +0.105 A 
ATOM     66  C43 UNL     1      20.081   9.148   2.735 -0.08 +0.00    +0.066 A 
ATOM     67  C44 UNL     1      21.234   9.650   2.087 -0.39 +0.00    +0.053 A 
ATOM     68  C45 UNL     1      20.985  10.973   1.811 +0.41 +0.00    +0.120 A 
ATOM     69  N5  UNL     1      19.739  11.290   2.292 -0.18 -0.00    -0.354 N 
ATOM     70  C46 UNL     1      19.215  12.640   2.321 -0.46 +0.00    +0.156 C 
BRANCH  67  71
ATOM     71  N6  UNL     1      22.371   8.914   1.813 -0.19 -0.00    -0.320 N 
ATOM     72  C47 UNL     1      23.642   9.161   2.302 -0.32 +0.00    +0.273 C 
ATOM     73  O12 UNL     1      23.921  10.070   3.078 -0.42 -0.00    -0.266 OA
ATOM     74  H53 UNL     1      22.232   8.099   1.237 +0.12 +0.00    +0.169 HD
BRANCH  72  75
ATOM     75  C48 UNL     1      24.653   8.219   1.823 -0.37 +0.00    +0.105 A 
ATOM     76  C49 UNL     1      24.540   7.156   0.929 -0.38 +0.00    +0.066 A 
ATOM     77  C50 UNL     1      25.809   6.543   0.779 -0.35 +0.00    +0.052 A 
ATOM     78  C51 UNL     1      26.680   7.241   1.577 -0.26 +0.00    +0.120 A 
ATOM     79  N7  UNL     1      25.988   8.253   2.193 -0.22 -0.00    -0.354 N 
ATOM     80  C52 UNL     1      26.595   9.193   3.113 -0.34 +0.00    +0.156 C 
BRANCH  77  81
ATOM     81  N8  UNL     1      26.081   5.456  -0.029 -0.17 -0.00    -0.333 N 
ATOM     82  H54 UNL     1      27.049   5.299  -0.271 +0.10 +0.00    +0.168 HD
BRANCH  81  83
ATOM     83  C53 UNL     1      25.145   4.577  -0.523 -0.30 +0.00    +0.353 C 
ATOM     84  O13 UNL     1      25.303   3.595  -1.233 -0.75 -0.00    -0.283 OA
ENDBRANCH  81  83
ENDBRANCH  77  81
ENDBRANCH  72  75
ENDBRANCH  67  71
ENDBRANCH  62  65
ENDBRANCH  57  61
ENDBRANCH  52  55
ENDBRANCH  48  51
ENDBRANCH  44  45
ENDBRANCH   1  44
TORSDOF 19
TER
