USER    Run = 1
USER    DPF = ligand_218_receptor.dpf
USER  
USER    Estimated Free Energy of Binding    = +769.17 kcal/mol  [=(1)+(2)+(3)-(4)]
USER    
USER    (1) Final Intermolecular Energy     = +767.97 kcal/mol
USER        vdW + Hbond + desolv Energy     = +767.97 kcal/mol
USER        Electrostatic Energy            =   +0.00 kcal/mol
USER    (2) Final Total Internal Energy     = +495.91 kcal/mol
USER    (3) Torsional Free Energy           =   +1.19 kcal/mol
USER    (4) Unbound System's Energy  [=(2)] = +495.91 kcal/mol
USER    
USER    
USER    NEWDPF move ligand_218.pdbqt
USER    NEWDPF about 0.000000 0.000000 0.000000
USER    NEWDPF tran0 13.001736 7.075849 0.666343
USER    NEWDPF quaternion0 -0.327276 0.483830 -0.752162 0.305041
USER    NEWDPF axisangle0 -0.343655 0.508044 -0.789805 144.478744
USER    NEWDPF quat0 -0.343655 0.508044 -0.789805 144.478744
USER    NEWDPF dihe0 -84.89 -124.29 99.73 177.98 96.44 167.49 76.19 -52.56 180.00 -126.29 -126.29 -126.29 -173.78 180.00 173.06 -172.52 -79.10 143.87 163.61 94.98 -31.50 178.61 -48.83 95.88 159.56 -81.64 4.07 37.60 
USER  keepresnum = 1 
USER  
REMARK  28 active torsions:
REMARK  status: ('A' for Active; 'I' for Inactive)
REMARK    1  A    between atoms: C2_2  and  C3_3 
REMARK    2  A    between atoms: C2_2  and  N2_73 
REMARK    3  A    between atoms: C3_3  and  C4_4 
REMARK    4  A    between atoms: C4_4  and  C5_5 
REMARK    5  A    between atoms: C5_5  and  C6_6 
REMARK    6  A    between atoms: C6_6  and  C7_7 
REMARK    7  A    between atoms: C7_7  and  C8_8 
REMARK    8  A    between atoms: C8_8  and  S1_70 
REMARK    9  A    between atoms: C9_9  and  C11_11 
REMARK   10  A    between atoms: C9_9  and  S2_71 
REMARK   11  A    between atoms: C11_11  and  C12_12 
REMARK   12  A    between atoms: C12_12  and  C13_13 
REMARK       I    between atoms: C13_13  and  N1_72 
REMARK   13  A    between atoms: C15_15  and  O6_65 
REMARK   14  A    between atoms: C17_17  and  C18_18 
REMARK   15  A    between atoms: C18_18  and  O3_62 
REMARK   16  A    between atoms: C19_19  and  C20_20 
REMARK   17  A    between atoms: C19_19  and  C26_26 
REMARK   18  A    between atoms: C19_19  and  C33_33 
REMARK   19  A    between atoms: C19_19  and  O3_62 
REMARK   20  A    between atoms: C29_29  and  O4_63 
REMARK   21  A    between atoms: C36_36  and  O5_64 
REMARK   22  A    between atoms: C40_40  and  C41_41 
REMARK       I    between atoms: C40_40  and  N2_73 
REMARK   23  A    between atoms: C44_44  and  N3_74 
REMARK   24  A    between atoms: C47_47  and  C48_48 
REMARK   25  A    between atoms: C47_47  and  N3_74 
REMARK   26  A    between atoms: C53_53  and  N8_82 
REMARK   27  A    between atoms: C54_54  and  C55_55 
REMARK       I    between atoms: C54_54  and  N8_82 
REMARK       I    between atoms: C58_58  and  N3_74 
REMARK   28  A    between atoms: S1_70  and  S2_71 
USER                              x       y       z     vdW  Elec       q    Type
USER                           _______ _______ _______ _____ _____    ______ ____
ROOT
ATOM      1  C5  UNL     1      10.231   7.659   2.536 -0.18 +0.00    +0.127 C 
ATOM      2  O1  UNL     1      10.794   7.578   3.631 -0.26 -0.00    -0.298 OA
ENDROOT
BRANCH   1   3
ATOM      3  C4  UNL     1       8.890   6.994   2.298 -0.33 +0.00    +0.080 C 
BRANCH   3   4
ATOM      4  C3  UNL     1       7.691   7.893   2.598 -0.28 +0.00    +0.032 C 
BRANCH   4   5
ATOM      5  C2  UNL     1       7.939   9.412   2.733+56.36 +0.00    +0.081 C 
ATOM      6  C1  UNL     1       7.152  10.022   3.895+99.99 +0.00    +0.032 C 
BRANCH   5   7
ATOM      7  N2  UNL     1       9.348   9.751   2.857+42.72 -0.00    -0.353 N 
ATOM      8  C40 UNL     1      10.157   9.177   3.814 +0.33 +0.00    +0.251 C 
ATOM      9  O7  UNL     1       9.736   8.458   4.715 +0.12 -0.00    -0.268 OA
ATOM     10  H68 UNL     1       9.792  10.072   1.997+32.87 +0.00    +0.163 HD
BRANCH   8  11
ATOM     11  C41 UNL     1      11.621   9.449   3.706 +4.88 +0.00    +0.032 A 
ATOM     12  C42 UNL     1      12.048  10.442   2.821+95.36 +0.00    +0.019 A 
ATOM     13  C43 UNL     1      13.411  10.732   2.670+99.99 +0.00    +0.031 A 
ATOM     14  C44 UNL     1      14.388  10.036   3.398+14.11 +0.00    +0.037 A 
ATOM     15  C45 UNL     1      13.943   9.038   4.280 +1.10 +0.00    +0.031 A 
ATOM     16  C46 UNL     1      12.580   8.742   4.432 +0.62 +0.00    +0.019 A 
BRANCH  14  17
ATOM     17  N3  UNL     1      15.797  10.297   3.222 +0.01 -0.00    -0.313 N 
ATOM     18  C58 UNL     1      16.288  10.737   1.979 -0.39 +0.00    +0.220 C 
ATOM     19  C59 UNL     1      17.738  11.156   1.904 -0.50 +0.00    +0.117 C 
ATOM     20  O10 UNL     1      15.621  10.774   0.942 -0.34 -0.00    -0.273 OA
BRANCH  17  21
ATOM     21  C47 UNL     1      16.687  10.143   4.388 +0.10 +0.00    +0.190 C 
BRANCH  21  22
ATOM     22  C48 UNL     1      18.036   9.548   4.044 -0.14 +0.00    +0.044 A 
ATOM     23  C49 UNL     1      18.431   8.303   4.534 +0.61 +0.00    +0.116 A 
ATOM     24  N4  UNL     1      19.626   7.730   4.239 +0.42 -0.00    -0.348 N 
ATOM     25  C50 UNL     1      20.443   8.442   3.434 +0.70 +0.00    +0.153 A 
ATOM     26  H4  UNL     1      19.890   6.815   4.602 +0.33 +0.00    +0.167 HD
ATOM     27  C51 UNL     1      20.044   9.677   2.940 -0.06 +0.00    +0.147 A 
ATOM     28  N7  UNL     1      21.676   7.848   3.143 +1.57 -0.00    -0.174 N 
ATOM     29  C52 UNL     1      21.001  10.370   2.057 -0.16 +0.00    +0.290 A 
ATOM     30  N5  UNL     1      18.846  10.261   3.217 +0.04 -0.00    -0.350 N 
ATOM     31  O8  UNL     1      20.811  11.492   1.601 -0.00 -0.00    -0.265 OA
ATOM     32  N6  UNL     1      22.158   9.679   1.776 -0.32 -0.00    -0.154 N 
ATOM     33  C53 UNL     1      22.471   8.475   2.347 +0.28 +0.00    +0.689 A 
ATOM     34  H69 UNL     1      22.846  10.202   1.254 +0.16 +0.00    +0.187 HD
ATOM     35  H5  UNL     1      18.576  11.167   2.832 +0.13 +0.00    +0.166 HD
ATOM     36  H7  UNL     1      21.937   6.949   3.548 +0.66 +0.00    +0.186 HD
BRANCH  33  37
ATOM     37  N8  UNL     1      23.700   7.983   1.981 -0.30 -0.00    -0.159 N 
ATOM     38  C54 UNL     1      24.408   8.428   0.874 -0.31 +0.00    +0.239 C 
ATOM     39  O9  UNL     1      23.907   8.601  -0.233 -0.31 -0.00    -0.272 OA
ATOM     40  H70 UNL     1      24.249   7.605   2.737 +0.16 +0.00    +0.187 HD
BRANCH  38  41
ATOM     41  C55 UNL     1      25.916   8.510   1.118 -0.44 +0.00    +0.070 C 
ATOM     42  C56 UNL     1      26.248   8.277   2.592 -0.63 +0.00    +0.019 C 
ATOM     43  C57 UNL     1      26.660   7.498   0.248 -0.42 +0.00    +0.019 C 
ENDBRANCH  38  41
ENDBRANCH  33  37
ENDBRANCH  21  22
ENDBRANCH  17  21
ENDBRANCH  14  17
ENDBRANCH   8  11
ENDBRANCH   5   7
ENDBRANCH   4   5
ENDBRANCH   3   4
ENDBRANCH   1   3
BRANCH   1  44
ATOM     44  C6  UNL     1      10.854   8.435   1.394+75.97 +0.00    +0.079 C 
BRANCH  44  45
ATOM     45  C7  UNL     1      10.612   7.780   0.038 +1.38 +0.00    +0.018 C 
BRANCH  45  46
ATOM     46  C8  UNL     1      11.330   6.434  -0.082 -0.37 +0.00    +0.086 C 
BRANCH  46  47
ATOM     47  S1  UNL     1      10.233   5.042   0.359 +0.00 -0.00    -0.097 SA
BRANCH  47  48
ATOM     48  S2  UNL     1      11.248   3.390  -0.330 +7.90 -0.00    -0.093 SA
BRANCH  48  49
ATOM     49  C9  UNL     1      10.759   3.261  -2.104 +0.96 +0.00    +0.055 C 
ATOM     50  C10 UNL     1      10.394   4.632  -2.673 -0.19 +0.00    +0.022 C 
BRANCH  49  51
ATOM     51  C11 UNL     1       9.555   2.304  -2.242 -0.08 +0.00    +0.025 C 
BRANCH  51  52
ATOM     52  C12 UNL     1       8.215   2.891  -1.788 -0.11 +0.00    +0.104 C 
BRANCH  52  53
ATOM     53  C13 UNL     1       7.282   1.801  -1.293 -0.05 +0.00    +0.220 C 
ATOM     54  O2  UNL     1       6.634   1.135  -2.103 -0.07 -0.00    -0.273 OA
ATOM     55  N1  UNL     1       7.106   1.657   0.063 -0.04 -0.00    -0.343 N 
ATOM     56  C14 UNL     1       6.004   0.859   0.573 +0.66 +0.00    +0.158 C 
ATOM     57  C17 UNL     1       7.868   2.253   1.175 -0.20 +0.00    +0.113 C 
ATOM     58  C15 UNL     1       5.667   1.534   1.900 -0.20 +0.00    +0.138 C 
ATOM     59  C16 UNL     1       7.032   1.940   2.438 -0.29 +0.00    +0.061 C 
BRANCH  58  60
ATOM     60  O6  UNL     1       4.889   2.718   1.704 -0.02 -0.00    -0.394 OA
ATOM     61  H67 UNL     1       5.161   3.109   0.855 +0.06 +0.00    +0.210 HD
ENDBRANCH  58  60
BRANCH  57  62
ATOM     62  C18 UNL     1       9.295   1.677   1.314 -0.17 +0.00    +0.195 C 
BRANCH  62  63
ATOM     63  O3  UNL     1      10.239   2.754   1.349+24.61 -0.00    -0.363 OA
BRANCH  63  64
ATOM     64  C19 UNL     1       9.836   4.008   1.972 +6.24 +0.00    +0.142 C 
BRANCH  64  65
ATOM     65  C20 UNL     1      11.091   4.928   1.933+39.45 -0.00    -0.015 A 
ATOM     66  C21 UNL     1      12.031   4.771   0.890+46.91 +0.00    +0.011 A 
ATOM     67  C22 UNL     1      13.142   5.609   0.773 +4.17 +0.00    +0.001 A 
ATOM     68  C23 UNL     1      13.337   6.639   1.687 +6.19 +0.00    +0.000 A 
ATOM     69  C24 UNL     1      12.411   6.840   2.706 -0.37 +0.00    +0.001 A 
ATOM     70  C25 UNL     1      11.294   6.004   2.820 -0.22 +0.00    +0.011 A 
ENDBRANCH  64  65
BRANCH  64  71
ATOM     71  C26 UNL     1       9.458   3.632   3.443 -0.22 -0.00    -0.014 A 
ATOM     72  C27 UNL     1       8.191   3.945   3.977 -0.27 +0.00    +0.013 A 
ATOM     73  C28 UNL     1       7.840   3.585   5.285 -0.13 +0.00    +0.037 A 
ATOM     74  C29 UNL     1       8.742   2.891   6.088 +0.48 +0.00    +0.068 A 
ATOM     75  C30 UNL     1       9.993   2.557   5.570 +1.02 +0.00    +0.037 A 
ATOM     76  C31 UNL     1      10.347   2.916   4.265 -0.16 +0.00    +0.013 A 
BRANCH  74  77
ATOM     77  O4  UNL     1       8.527   2.481   7.375 +0.48 -0.00    -0.356 OA
ATOM     78  C32 UNL     1       9.480   2.895   8.346 +0.05 +0.00    +0.210 C 
ENDBRANCH  74  77
ENDBRANCH  64  71
BRANCH  64  79
ATOM     79  C33 UNL     1       8.528   4.547   1.326 -0.14 -0.00    -0.014 A 
ATOM     80  C34 UNL     1       8.236   4.313  -0.032 -0.12 +0.00    +0.013 A 
ATOM     81  C35 UNL     1       7.037   4.746  -0.616 -0.06 +0.00    +0.037 A 
ATOM     82  C36 UNL     1       6.080   5.400   0.153 -0.17 +0.00    +0.068 A 
ATOM     83  C37 UNL     1       6.326   5.598   1.511 -0.19 +0.00    +0.037 A 
ATOM     84  C38 UNL     1       7.522   5.163   2.092 -0.14 +0.00    +0.013 A 
BRANCH  82  85
ATOM     85  O5  UNL     1       4.875   5.874  -0.287 -0.11 -0.00    -0.356 OA
ATOM     86  C39 UNL     1       3.733   5.074  -0.010 +2.46 +0.00    +0.210 C 
ENDBRANCH  82  85
ENDBRANCH  64  79
ENDBRANCH  63  64
ENDBRANCH  62  63
ENDBRANCH  57  62
ENDBRANCH  52  53
ENDBRANCH  51  52
ENDBRANCH  49  51
ENDBRANCH  48  49
ENDBRANCH  47  48
ENDBRANCH  46  47
ENDBRANCH  45  46
ENDBRANCH  44  45
ENDBRANCH   1  44
TORSDOF 28
TER
