USER    Run = 1
USER    DPF = ligand_422_receptor.dpf
USER  
USER    Estimated Free Energy of Binding    =  +1.90e+005 kcal/mol  [=(1)+(2)+(3)-(4)]
USER    
USER    (1) Final Intermolecular Energy     =  +1.90e+005 kcal/mol
USER        vdW + Hbond + desolv Energy     =  +1.90e+005 kcal/mol
USER        Electrostatic Energy            =   +0.00 kcal/mol
USER    (2) Final Total Internal Energy     =   +0.00 kcal/mol
USER    (3) Torsional Free Energy           =   +1.19 kcal/mol
USER    (4) Unbound System's Energy  [=(2)] =   +0.00 kcal/mol
USER    
USER    
USER    NEWDPF move ligand_422.pdbqt
USER    NEWDPF about 0.000000 0.000000 0.000000
USER    NEWDPF tran0 18.750599 6.069545 3.112417
USER    NEWDPF quaternion0 0.152502 -0.934340 -0.312730 0.077142
USER    NEWDPF axisangle0 0.152958 -0.937133 -0.313665 171.151368
USER    NEWDPF quat0 0.152958 -0.937133 -0.313665 171.151368
USER  keepresnum = 1 
USER  
REMARK  0 active torsions:
REMARK  status: ('A' for Active; 'I' for Inactive)
REMARK       I    between atoms: C2_2  and  C3_3 
REMARK       I    between atoms: C3_3  and  C5_5 
REMARK       I    between atoms: C5_5  and  C62_62 
REMARK       I    between atoms: C5_5  and  N1_78 
REMARK       I    between atoms: C6_6  and  C7_7 
REMARK       I    between atoms: C6_6  and  N1_78 
REMARK       I    between atoms: C7_7  and  C8_8 
REMARK       I    between atoms: C7_7  and  N3_80 
REMARK       I    between atoms: C8_8  and  C9_9 
REMARK       I    between atoms: C17_17  and  C18_18 
REMARK       I    between atoms: C17_17  and  N3_80 
REMARK       I    between atoms: C18_18  and  C59_59 
REMARK       I    between atoms: C18_18  and  N4_81 
REMARK       I    between atoms: C19_19  and  C20_20 
REMARK       I    between atoms: C19_19  and  N4_81 
REMARK       I    between atoms: C20_20  and  C21_21 
REMARK       I    between atoms: C20_20  and  N6_83 
REMARK       I    between atoms: C21_21  and  C22_22 
REMARK       I    between atoms: C30_30  and  C31_31 
REMARK       I    between atoms: C30_30  and  N6_83 
REMARK       I    between atoms: C31_31  and  C32_32 
REMARK       I    between atoms: C31_31  and  N8_85 
REMARK       I    between atoms: C32_32  and  C33_33 
REMARK       I    between atoms: C41_41  and  C42_42 
REMARK       I    between atoms: C41_41  and  N8_85 
REMARK       I    between atoms: C42_42  and  C43_43 
REMARK       I    between atoms: C42_42  and  N12_90 
REMARK       I    between atoms: C43_43  and  C44_44 
REMARK       I    between atoms: C44_44  and  C45_45 
REMARK       I    between atoms: C45_45  and  N9_86 
REMARK       I    between atoms: C46_46  and  N9_86 
REMARK       I    between atoms: C46_46  and  N10_87 
REMARK       I    between atoms: C46_46  and  N11_89 
REMARK       I    between atoms: C47_47  and  C48_48 
REMARK       I    between atoms: C47_47  and  N12_90 
REMARK       I    between atoms: C48_48  and  C49_49 
REMARK       I    between atoms: C48_48  and  N14_92 
REMARK       I    between atoms: C49_49  and  C50_50 
REMARK       I    between atoms: C50_50  and  C51_51 
REMARK       I    between atoms: C51_51  and  C52_52 
REMARK       I    between atoms: C52_52  and  N13_91 
REMARK       I    between atoms: C53_53  and  C54_54 
REMARK       I    between atoms: C53_53  and  N14_92 
REMARK       I    between atoms: C54_54  and  C55_55 
REMARK       I    between atoms: C54_54  and  N15_93 
REMARK       I    between atoms: C55_55  and  C56_56 
REMARK       I    between atoms: C56_56  and  C57_57 
REMARK       I    between atoms: C57_57  and  C58_58 
REMARK       I    between atoms: C58_58  and  N16_94 
REMARK       I    between atoms: C62_62  and  N17_95 
REMARK       I    between atoms: C63_63  and  C64_64 
REMARK       I    between atoms: C63_63  and  C68_68 
REMARK       I    between atoms: C63_63  and  N17_95 
REMARK       I    between atoms: C64_64  and  C65_65 
REMARK       I    between atoms: C65_65  and  C66_66 
REMARK       I    between atoms: C66_66  and  N18_96 
REMARK       I    between atoms: C67_67  and  N18_96 
REMARK       I    between atoms: C67_67  and  N20_99 
REMARK       I    between atoms: C68_68  and  N21_100 
REMARK       I    between atoms: C69_69  and  C70_70 
REMARK       I    between atoms: C69_69  and  C77_77 
REMARK       I    between atoms: C69_69  and  N21_100 
REMARK       I    between atoms: C70_70  and  C71_71 
REMARK       I    between atoms: C74_74  and  O10_110 
REMARK       I    between atoms: C77_77  and  O12_112 
USER                              x       y       z     vdW  Elec       q    Type
USER                           _______ _______ _______ _____ _____    ______ ____
ROOT
ATOM      1  C1  UNL     1      25.358   9.823  -1.548+99.99 +0.00    +0.005 C 
ATOM      2  C2  UNL     1      25.685   8.506  -2.241+99.99 +0.00    +0.002 C 
ATOM      3  C3  UNL     1      26.622   7.590  -1.420 +2.21 +0.00    +0.013 C 
ATOM      4  C4  UNL     1      27.473   6.762  -2.399 +1.61 +0.00    +0.012 C 
ATOM      5  C5  UNL     1      25.868   6.632  -0.465 -0.33 +0.00    +0.180 C 
ATOM      6  C6  UNL     1      23.559   7.217   0.275 -0.35 +0.00    +0.241 C 
ATOM      7  C7  UNL     1      22.744   7.954   1.351 +0.20 +0.00    +0.181 C 
ATOM      8  C8  UNL     1      22.769   7.164   2.682+12.56 +0.00    +0.075 C 
ATOM      9  C9  UNL     1      21.519   6.391   2.992+99.99 -0.00    -0.028 A 
ATOM     10  C10 UNL     1      20.585   6.745   3.947+37.73 +0.00    +0.096 A 
ATOM     11  C11 UNL     1      19.794   4.903   2.937+99.99 +0.00    +0.042 A 
ATOM     12  C12 UNL     1      19.010   3.816   2.538+99.99 +0.00    +0.030 A 
ATOM     13  C13 UNL     1      19.508   2.991   1.527+99.99 +0.00    +0.002 A 
ATOM     14  C14 UNL     1      20.746   3.246   0.943+99.99 +0.00    +0.001 A 
ATOM     15  C15 UNL     1      21.517   4.341   1.354+99.99 +0.00    +0.014 A 
ATOM     16  C16 UNL     1      21.035   5.194   2.368+99.99 -0.00    -0.002 A 
ATOM     17  C17 UNL     1      20.565   9.107   1.433 +5.55 +0.00    +0.241 C 
ATOM     18  C18 UNL     1      19.095   9.035   0.964 +9.12 +0.00    +0.180 C 
ATOM     19  C19 UNL     1      17.387   8.609   2.714 -0.41 +0.00    +0.241 C 
ATOM     20  C20 UNL     1      16.821   9.115   4.066 -0.40 +0.00    +0.181 C 
ATOM     21  C21 UNL     1      17.905   9.412   5.124 +3.67 +0.00    +0.075 C 
ATOM     22  C22 UNL     1      17.631  10.684   5.875 +8.68 -0.00    -0.028 A 
ATOM     23  C23 UNL     1      18.271  11.894   5.691+99.99 +0.00    +0.096 A 
ATOM     24  C24 UNL     1      16.751  12.210   7.322 +7.75 +0.00    +0.042 A 
ATOM     25  C25 UNL     1      15.937  12.750   8.325+99.99 +0.00    +0.030 A 
ATOM     26  C26 UNL     1      15.005  11.902   8.932+17.14 +0.00    +0.002 A 
ATOM     27  C27 UNL     1      14.898  10.567   8.553+99.99 +0.00    +0.001 A 
ATOM     28  C28 UNL     1      15.725  10.043   7.553+99.99 +0.00    +0.014 A 
ATOM     29  C29 UNL     1      16.666  10.877   6.917+31.96 -0.00    -0.002 A 
ATOM     30  C30 UNL     1      16.016   6.943   5.001 +1.60 +0.00    +0.241 C 
ATOM     31  C31 UNL     1      14.749   6.069   5.088 +4.03 +0.00    +0.181 C 
ATOM     32  C32 UNL     1      14.864   5.038   6.214+19.72 +0.00    +0.075 C 
ATOM     33  C33 UNL     1      14.787   5.662   7.574 -0.23 -0.00    -0.028 A 
ATOM     34  C34 UNL     1      15.851   5.917   8.414+72.19 +0.00    +0.096 A 
ATOM     35  C35 UNL     1      14.007   6.649   9.473 +0.23 +0.00    +0.042 A 
ATOM     36  C36 UNL     1      13.103   7.197  10.391+14.95 +0.00    +0.030 A 
ATOM     37  C37 UNL     1      11.751   7.219  10.035+47.51 +0.00    +0.002 A 
ATOM     38  C38 UNL     1      11.324   6.711   8.811+98.58 +0.00    +0.001 A 
ATOM     39  C39 UNL     1      12.240   6.163   7.906 -0.36 +0.00    +0.014 A 
ATOM     40  C40 UNL     1      13.609   6.127   8.242 -0.61 -0.00    -0.002 A 
ATOM     41  C41 UNL     1      14.160   6.114   2.689+99.99 +0.00    +0.241 C 
ATOM     42  C42 UNL     1      14.366   5.374   1.345+99.99 +0.00    +0.176 C 
ATOM     43  C43 UNL     1      13.905   6.189   0.130+13.22 +0.00    +0.036 C 
ATOM     44  C44 UNL     1      12.386   6.358  -0.005 -0.50 +0.00    +0.022 C 
ATOM     45  C45 UNL     1      12.040   7.261  -1.189 +0.41 +0.00    +0.122 C 
ATOM     46  C46 UNL     1      10.050   8.198  -2.238 -0.34 +0.00    +0.143 C 
ATOM     47  C47 UNL     1      14.332   2.970   1.982+99.99 +0.00    +0.241 C 
ATOM     48  C48 UNL     1      13.415   1.747   2.156+99.99 +0.00    +0.176 C 
ATOM     49  C49 UNL     1      12.943   1.206   0.796+99.99 +0.00    +0.035 C 
ATOM     50  C50 UNL     1      14.102   0.640  -0.034 +5.48 +0.00    +0.004 C 
ATOM     51  C51 UNL     1      13.649   0.016  -1.358+10.11 +0.00    +0.030 C 
ATOM     52  C52 UNL     1      13.136   1.048  -2.362+12.38 +0.00    +0.267 C 
ATOM     53  C53 UNL     1      11.467   1.282   3.615+12.42 +0.00    +0.251 C 
ATOM     54  C54 UNL     1      10.532   1.941   4.651+14.25 +0.00    +0.308 C 
ATOM     55  C55 UNL     1       9.346   2.633   3.967 +3.05 +0.00    +0.045 C 
ATOM     56  C56 UNL     1       8.436   1.699   3.158+35.04 +0.00    +0.004 C 
ATOM     57  C57 UNL     1       7.829   0.521   3.928+99.99 +0.00    +0.030 C 
ATOM     58  C58 UNL     1       6.963   0.955   5.111+99.99 +0.00    +0.267 C 
ATOM     59  C59 UNL     1      18.797   9.888  -0.285 +0.35 +0.00    +0.009 C 
ATOM     60  C60 UNL     1      19.204  11.357  -0.131 -0.54 +0.00    +0.012 C 
ATOM     61  C61 UNL     1      19.434   9.300  -1.546+99.99 +0.00    +0.012 C 
ATOM     62  C62 UNL     1      26.807   5.928   0.538 -0.19 +0.00    +0.241 C 
ATOM     63  C63 UNL     1      26.711   4.462   2.557+99.99 +0.00    +0.176 C 
ATOM     64  C64 UNL     1      28.071   3.761   2.429+99.99 +0.00    +0.036 C 
ATOM     65  C65 UNL     1      28.667   3.241   3.744+99.99 +0.00    +0.022 C 
ATOM     66  C66 UNL     1      27.743   2.308   4.527+99.99 +0.00    +0.122 C 
ATOM     67  C67 UNL     1      28.835   2.256   6.726+18.61 +0.00    +0.143 C 
ATOM     68  C68 UNL     1      26.639   5.615   3.581+99.99 +0.00    +0.241 C 
ATOM     69  C69 UNL     1      27.703   7.712   4.369+99.99 +0.00    +0.186 C 
ATOM     70  C70 UNL     1      29.166   8.030   4.724+99.99 +0.00    +0.074 C 
ATOM     71  C71 UNL     1      29.333   8.492   6.153+99.99 -0.00    -0.056 A 
ATOM     72  C72 UNL     1      29.490   9.851   6.456+99.99 +0.00    +0.010 A 
ATOM     73  C73 UNL     1      29.630  10.265   7.781+99.99 +0.00    +0.037 A 
ATOM     74  C74 UNL     1      29.608   9.325   8.804+99.99 +0.00    +0.065 A 
ATOM     75  C75 UNL     1      29.448   7.972   8.525+83.81 +0.00    +0.037 A 
ATOM     76  C76 UNL     1      29.311   7.556   7.199+99.99 +0.00    +0.010 A 
ATOM     77  C77 UNL     1      27.040   8.944   3.737+13.55 +0.00    +0.163 C 
ATOM     78  N1  UNL     1      24.923   7.324   0.415 -0.14 -0.00    -0.346 N 
ATOM     79  N2  UNL     1      19.544   5.862   3.891+19.58 -0.00    -0.365 N 
ATOM     80  N3  UNL     1      21.409   8.212   0.821+28.02 -0.00    -0.346 N 
ATOM     81  N4  UNL     1      18.283   9.464   2.105 -0.17 -0.00    -0.346 N 
ATOM     82  N5  UNL     1      17.735  12.801   6.567+99.99 -0.00    -0.365 N 
ATOM     83  N6  UNL     1      15.758   8.217   4.521 -0.17 -0.00    -0.346 N 
ATOM     84  N7  UNL     1      15.373   6.510   9.550 +2.91 -0.00    -0.365 N 
ATOM     85  N8  UNL     1      14.635   5.411   3.785+99.99 -0.00    -0.346 N 
ATOM     86  N9  UNL     1      10.593   7.382  -1.306 -0.12 -0.00    -0.367 N 
ATOM     87  N10 UNL     1      10.706   8.996  -2.994 -0.16 -0.00    -0.376 N 
ATOM     88  H10 UNL     1      11.718   9.125  -2.971 -0.30 +0.00    +0.158 HD
ATOM     89  N11 UNL     1       8.708   8.074  -2.273 -0.19 -0.00    -0.274 NA
ATOM     90  N12 UNL     1      13.713   4.065   1.410+99.99 -0.00    -0.346 N 
ATOM     91  N13 UNL     1      12.783   0.398  -3.619+59.46 +0.00    +0.078 N 
ATOM     92  N14 UNL     1      12.296   2.192   2.988+99.99 -0.00    -0.346 N 
ATOM     93  N15 UNL     1      11.313   2.958   5.407 -0.39 +0.00    +0.092 N 
ATOM     94  N16 UNL     1       6.349  -0.198   5.760+99.99 +0.00    +0.078 N 
ATOM     95  N17 UNL     1      26.168   4.957   1.290 +0.42 -0.00    -0.346 N 
ATOM     96  N18 UNL     1      28.473   1.623   5.585 +0.78 -0.00    -0.367 N 
ATOM     97  N19 UNL     1      28.734   3.512   6.951+12.31 -0.00    -0.376 N 
ATOM     98  H19 UNL     1      28.389   4.204   6.286 -0.16 +0.00    +0.158 HD
ATOM     99  N20 UNL     1      29.341   1.383   7.621+15.87 -0.00    -0.274 NA
ATOM    100  N21 UNL     1      27.659   6.532   3.503+99.99 -0.00    -0.345 N 
ATOM    101  O1  UNL     1      23.039   6.563  -0.628 -0.41 -0.00    -0.271 OA
ATOM    102  O2  UNL     1      20.949   9.920   2.273 -0.31 -0.00    -0.271 OA
ATOM    103  O3  UNL     1      17.014   7.563   2.180 -0.51 -0.00    -0.271 OA
ATOM    104  O4  UNL     1      17.147   6.506   5.203+63.10 -0.00    -0.271 OA
ATOM    105  O5  UNL     1      13.675   7.238   2.794 -0.23 -0.00    -0.271 OA
ATOM    106  O6  UNL     1      15.504   2.982   2.350+99.99 -0.00    -0.271 OA
ATOM    107  O7  UNL     1      11.446   0.083   3.368+10.62 -0.00    -0.271 OA
ATOM    108  O8  UNL     1      27.967   6.278   0.744 -0.16 -0.00    -0.271 OA
ATOM    109  O9  UNL     1      25.675   5.752   4.331 +3.56 -0.00    -0.271 OA
ATOM    110  O10 UNL     1      29.742   9.775  10.085 -0.54 -0.00    -0.361 OA
ATOM    111  O11 UNL     1      27.065  10.084   4.179 +2.98 -0.00    -0.648 OA
ATOM    112  O12 UNL     1      26.357   8.730   2.585 -0.01 -0.00    -0.775 OA
ATOM    113  H82 UNL     1      25.316   7.810   1.221 +0.13 +0.00    +0.163 HD
ATOM    114  H83 UNL     1      18.695   5.920   4.449+99.99 +0.00    +0.165 HD
ATOM    115  H84 UNL     1      20.997   7.437   0.308+99.99 +0.00    +0.163 HD
ATOM    116  H85 UNL     1      18.675  10.229   2.644 +0.13 +0.00    +0.163 HD
ATOM    117  H86 UNL     1      18.021  13.766   6.652+69.64 +0.00    +0.165 HD
ATOM    118  H87 UNL     1      14.885   8.292   3.995 +0.10 +0.00    +0.163 HD
ATOM    119  H88 UNL     1      15.939   6.816  10.331 +3.12 +0.00    +0.165 HD
ATOM    120  H89 UNL     1      15.343   4.709   3.564+99.99 +0.00    +0.163 HD
ATOM    121  H90 UNL     1      10.113   6.492  -1.259 +0.09 +0.00    +0.162 HD
ATOM    122  H91 UNL     1      10.068   9.485  -3.621 +0.09 +0.00    +0.158 HD
ATOM    123  H92 UNL     1       8.316   7.951  -1.345 -0.05 +0.00    +0.127 HD
ATOM    124  H93 UNL     1       8.235   8.825  -2.758 -0.03 +0.00    +0.127 HD
ATOM    125  H94 UNL     1      12.699   4.054   1.447+99.99 +0.00    +0.163 HD
ATOM    126  H95 UNL     1      13.604  -0.065  -4.008+99.99 +0.00    +0.312 HD
ATOM    127  H96 UNL     1      12.506   1.104  -4.301 +0.28 +0.00    +0.312 HD
ATOM    128  H97 UNL     1      12.428   3.022   3.569 +5.95 +0.00    +0.163 HD
ATOM    129  H98 UNL     1      12.011   2.462   5.969 +0.51 +0.00    +0.313 HD
ATOM    130  H99 UNL     1      10.692   3.390   6.094 +0.22 +0.00    +0.313 HD
ATOM    131  HA0 UNL     1       7.073  -0.859   6.043 +5.64 +0.00    +0.312 HD
ATOM    132  HA1 UNL     1       5.769  -0.700   5.087 +0.73 +0.00    +0.312 HD
ATOM    133  HA2 UNL     1      25.155   4.946   1.218 +0.10 +0.00    +0.163 HD
ATOM    134  HA3 UNL     1      28.092   0.704   5.775 +0.01 +0.00    +0.162 HD
ATOM    135  HA4 UNL     1      29.050   3.714   7.899 +3.32 +0.00    +0.158 HD
ATOM    136  HA5 UNL     1      29.897   0.660   7.178+74.38 +0.00    +0.127 HD
ATOM    137  HA6 UNL     1      29.855   1.810   8.380 +0.84 +0.00    +0.127 HD
ATOM    138  HA7 UNL     1      28.159   6.575   2.613 +0.84 +0.00    +0.163 HD
ATOM    139  HA8 UNL     1      29.666   9.015  10.685 +0.21 +0.00    +0.217 HD
ATOM    140  HA9 UNL     1      26.058   9.649   2.396 +0.11 +0.00    +0.167 HD
ENDROOT
TORSDOF 51
TER
