USER    Run = 1
USER    DPF = ligand_487_receptor.dpf
USER  
USER    Estimated Free Energy of Binding    =  +1.68e+004 kcal/mol  [=(1)+(2)+(3)-(4)]
USER    
USER    (1) Final Intermolecular Energy     =  +1.68e+004 kcal/mol
USER        vdW + Hbond + desolv Energy     =  +1.68e+004 kcal/mol
USER        Electrostatic Energy            =   +0.00 kcal/mol
USER    (2) Final Total Internal Energy     =   +0.00 kcal/mol
USER    (3) Torsional Free Energy           =   +1.19 kcal/mol
USER    (4) Unbound System's Energy  [=(2)] =   +0.00 kcal/mol
USER    
USER    
USER    NEWDPF move ligand_487.pdbqt
USER    NEWDPF about 0.000000 0.000000 0.000000
USER    NEWDPF tran0 12.006476 7.049849 3.134942
USER    NEWDPF quaternion0 0.112538 0.084890 -0.105856 0.984339
USER    NEWDPF axisangle0 0.638385 0.481550 -0.600479 20.306980
USER    NEWDPF quat0 0.638385 0.481550 -0.600479 20.306980
USER  keepresnum = 1 
USER  
REMARK  0 active torsions:
REMARK  status: ('A' for Active; 'I' for Inactive)
REMARK       I    between atoms: C2_2  and  C3_3 
REMARK       I    between atoms: C3_3  and  C5_5 
REMARK       I    between atoms: C5_5  and  C6_6 
REMARK       I    between atoms: C5_5  and  N8_98 
REMARK       I    between atoms: C6_6  and  N1_91 
REMARK       I    between atoms: C7_7  and  C8_8 
REMARK       I    between atoms: C7_7  and  C9_9 
REMARK       I    between atoms: C7_7  and  N1_91 
REMARK       I    between atoms: C8_8  and  O2_75 
REMARK       I    between atoms: C9_9  and  N2_92 
REMARK       I    between atoms: C10_10  and  C11_11 
REMARK       I    between atoms: C10_10  and  N2_92 
REMARK       I    between atoms: C11_11  and  N3_93 
REMARK       I    between atoms: C12_12  and  C13_13 
REMARK       I    between atoms: C12_12  and  C20_20 
REMARK       I    between atoms: C12_12  and  N3_93 
REMARK       I    between atoms: C13_13  and  C14_14 
REMARK       I    between atoms: C20_20  and  N4_94 
REMARK       I    between atoms: C21_21  and  C22_22 
REMARK       I    between atoms: C21_21  and  C29_29 
REMARK       I    between atoms: C21_21  and  N4_94 
REMARK       I    between atoms: C22_22  and  C23_23 
REMARK       I    between atoms: C29_29  and  N5_95 
REMARK       I    between atoms: C30_30  and  C31_31 
REMARK       I    between atoms: C30_30  and  C34_34 
REMARK       I    between atoms: C30_30  and  N5_95 
REMARK       I    between atoms: C31_31  and  C32_32 
REMARK       I    between atoms: C32_32  and  C33_33 
REMARK       I    between atoms: C33_33  and  O7_80 
REMARK       I    between atoms: C34_34  and  N6_96 
REMARK       I    between atoms: C35_35  and  C36_36 
REMARK       I    between atoms: C35_35  and  C43_43 
REMARK       I    between atoms: C35_35  and  N6_96 
REMARK       I    between atoms: C36_36  and  C37_37 
REMARK       I    between atoms: C43_43  and  N7_97 
REMARK       I    between atoms: C44_44  and  C45_45 
REMARK       I    between atoms: C44_44  and  N8_98 
REMARK       I    between atoms: C49_49  and  C50_50 
REMARK       I    between atoms: C49_49  and  N9_99 
REMARK       I    between atoms: C50_50  and  C51_51 
REMARK       I    between atoms: C50_50  and  N10_100 
REMARK       I    between atoms: C51_51  and  C52_52 
REMARK       I    between atoms: C58_58  and  C59_59 
REMARK       I    between atoms: C58_58  and  N10_100 
REMARK       I    between atoms: C59_59  and  C60_60 
REMARK       I    between atoms: C59_59  and  N12_102 
REMARK       I    between atoms: C60_60  and  C61_61 
REMARK       I    between atoms: C61_61  and  N11_101 
REMARK       I    between atoms: C62_62  and  C63_63 
REMARK       I    between atoms: C62_62  and  N12_102 
REMARK       I    between atoms: C63_63  and  C64_64 
REMARK       I    between atoms: C63_63  and  N13_103 
REMARK       I    between atoms: C64_64  and  C65_65 
REMARK       I    between atoms: C68_68  and  C69_69 
REMARK       I    between atoms: C68_68  and  N13_103 
REMARK       I    between atoms: C69_69  and  C70_70 
REMARK       I    between atoms: C69_69  and  N14_104 
REMARK       I    between atoms: C70_70  and  O16_89 
REMARK       I    between atoms: C72_72  and  N14_104 
USER                              x       y       z     vdW  Elec       q    Type
USER                           _______ _______ _______ _____ _____    ______ ____
ROOT
ATOM      1  C1  UNL     1      12.042   3.850   0.574+99.99 +0.00    +0.005 C 
ATOM      2  C2  UNL     1      11.411   5.223   0.405 +1.09 +0.00    +0.002 C 
ATOM      3  C3  UNL     1      11.969   6.353   1.297 -0.40 +0.00    +0.013 C 
ATOM      4  C4  UNL     1      13.464   6.590   1.055+10.34 +0.00    +0.012 C 
ATOM      5  C5  UNL     1      11.551   6.232   2.781 -0.23 +0.00    +0.180 C 
ATOM      6  C6  UNL     1      12.223   5.115   3.607+19.28 +0.00    +0.241 C 
ATOM      7  C7  UNL     1      12.051   4.054   5.828 -0.37 +0.00    +0.200 C 
ATOM      8  C8  UNL     1      12.565   5.166   6.754 -0.39 +0.00    +0.199 C 
ATOM      9  C9  UNL     1      11.030   3.157   6.544 -0.07 +0.00    +0.242 C 
ATOM     10  C10 UNL     1       9.204   1.546   6.163+99.99 +0.00    +0.225 C 
ATOM     11  C11 UNL     1       7.982   2.467   6.151+83.24 +0.00    +0.235 C 
ATOM     12  C12 UNL     1       7.087   4.535   7.214 -0.44 +0.00    +0.116 C 
ATOM     13  C13 UNL     1       6.675   4.852   8.666+45.34 +0.00    +0.065 C 
ATOM     14  C14 UNL     1       5.545   5.851   8.763+94.13 -0.00    -0.056 A 
ATOM     15  C15 UNL     1       4.241   5.483   8.406+35.02 +0.00    +0.007 A 
ATOM     16  C16 UNL     1       3.199   6.409   8.472+11.94 +0.00    +0.001 A 
ATOM     17  C17 UNL     1       3.452   7.713   8.894+60.06 +0.00    +0.000 A 
ATOM     18  C18 UNL     1       4.745   8.088   9.257+99.99 +0.00    +0.001 A 
ATOM     19  C19 UNL     1       5.787   7.162   9.194+99.99 +0.00    +0.007 A 
ATOM     20  C20 UNL     1       7.800   5.756   6.556 +0.41 +0.00    +0.296 C 
ATOM     21  C21 UNL     1       7.031   5.614   4.217 -0.09 +0.00    +0.315 C 
ATOM     22  C22 UNL     1       6.470   7.030   3.966+11.43 +0.00    +0.084 C 
ATOM     23  C23 UNL     1       5.051   6.968   3.442 +1.38 -0.00    -0.056 A 
ATOM     24  C24 UNL     1       3.973   6.876   4.332 +0.32 +0.00    +0.007 A 
ATOM     25  C25 UNL     1       2.666   6.775   3.851 -0.17 +0.00    +0.001 A 
ATOM     26  C26 UNL     1       2.428   6.766   2.478+14.71 +0.00    +0.000 A 
ATOM     27  C27 UNL     1       3.494   6.857   1.585+60.72 +0.00    +0.001 A 
ATOM     28  C28 UNL     1       4.801   6.956   2.066 +0.36 +0.00    +0.007 A 
ATOM     29  C29 UNL     1       7.529   5.014   2.881 -0.09 +0.00    +0.252 C 
ATOM     30  C30 UNL     1       8.015   2.900   1.724 -0.16 +0.00    +0.177 C 
ATOM     31  C31 UNL     1       7.880   1.389   1.997 -0.01 +0.00    +0.045 C 
ATOM     32  C32 UNL     1       9.008   0.549   1.387 +0.41 +0.00    +0.112 C 
ATOM     33  C33 UNL     1      10.334   0.815   2.049 +1.27 +0.00    +0.139 C 
ATOM     34  C34 UNL     1       7.521   3.186   0.282 -0.05 +0.00    +0.241 C 
ATOM     35  C35 UNL     1       5.560   4.019  -1.073 -0.09 +0.00    +0.180 C 
ATOM     36  C36 UNL     1       6.322   4.895  -2.083+55.00 +0.00    +0.073 C 
ATOM     37  C37 UNL     1       6.426   6.344  -1.673+99.99 -0.00    -0.056 A 
ATOM     38  C38 UNL     1       5.404   7.250  -1.990+99.99 +0.00    +0.007 A 
ATOM     39  C39 UNL     1       5.502   8.589  -1.608 +5.43 +0.00    +0.001 A 
ATOM     40  C40 UNL     1       6.620   9.035  -0.903 +7.87 +0.00    +0.000 A 
ATOM     41  C41 UNL     1       7.640   8.141  -0.582 -0.39 +0.00    +0.001 A 
ATOM     42  C42 UNL     1       7.544   6.804  -0.967 +2.11 +0.00    +0.007 A 
ATOM     43  C43 UNL     1       5.095   2.711  -1.740 -0.06 +0.00    +0.238 C 
ATOM     44  C44 UNL     1      10.991   8.129   4.321 -0.34 +0.00    +0.241 C 
ATOM     45  C45 UNL     1      11.547   9.426   4.959+71.89 +0.00    +0.179 C 
ATOM     46  C46 UNL     1      11.264  10.626   4.056+99.99 +0.00    +0.037 C 
ATOM     47  C47 UNL     1      12.475  10.675   3.136+99.99 +0.00    +0.022 C 
ATOM     48  C48 UNL     1      13.624  10.223   4.029+99.99 +0.00    +0.127 C 
ATOM     49  C49 UNL     1      13.594   8.927   6.239 +0.31 +0.00    +0.243 C 
ATOM     50  C50 UNL     1      15.124   9.000   6.484+99.99 +0.00    +0.181 C 
ATOM     51  C51 UNL     1      15.507  10.159   7.421+99.99 +0.00    +0.073 C 
ATOM     52  C52 UNL     1      15.239  11.555   6.915+82.73 -0.00    -0.056 A 
ATOM     53  C53 UNL     1      14.009  12.178   7.171+28.12 +0.00    +0.007 A 
ATOM     54  C54 UNL     1      13.754  13.464   6.691+16.86 +0.00    +0.001 A 
ATOM     55  C55 UNL     1      14.726  14.139   5.955+21.66 +0.00    +0.000 A 
ATOM     56  C56 UNL     1      15.954  13.533   5.703+70.21 +0.00    +0.001 A 
ATOM     57  C57 UNL     1      16.212  12.248   6.184+70.61 +0.00    +0.007 A 
ATOM     58  C58 UNL     1      16.167   7.664   4.705 -0.09 +0.00    +0.241 C 
ATOM     59  C59 UNL     1      16.835   7.688   3.306 -0.43 +0.00    +0.185 C 
ATOM     60  C60 UNL     1      17.093   6.251   2.835+13.09 +0.00    +0.137 C 
ATOM     61  C61 UNL     1      17.137   6.162   1.331+32.94 +0.00    +0.217 C 
ATOM     62  C62 UNL     1      18.022   9.873   3.170 -0.33 +0.00    +0.241 C 
ATOM     63  C63 UNL     1      19.389  10.514   2.831 -0.04 +0.00    +0.177 C 
ATOM     64  C64 UNL     1      19.381  12.012   3.178 +9.22 +0.00    +0.038 C 
ATOM     65  C65 UNL     1      20.754  12.716   3.249+33.90 -0.00    -0.020 C 
ATOM     66  C66 UNL     1      21.654  12.128   4.337+99.99 +0.00    +0.009 C 
ATOM     67  C67 UNL     1      21.491  12.755   1.913+99.99 +0.00    +0.009 C 
ATOM     68  C68 UNL     1      20.179   9.112   0.935+15.34 +0.00    +0.243 C 
ATOM     69  C69 UNL     1      20.541   9.114  -0.560 +4.26 +0.00    +0.205 C 
ATOM     70  C70 UNL     1      19.387   8.604  -1.440+49.59 +0.00    +0.146 C 
ATOM     71  C71 UNL     1      18.175   9.525  -1.443+14.45 +0.00    +0.042 C 
ATOM     72  C72 UNL     1      22.977   8.752  -0.536 -0.27 +0.00    +0.214 C 
ATOM     73  C73 UNL     1      24.065   7.713  -0.474 -0.47 +0.00    +0.117 C 
ATOM     74  O1  UNL     1      13.400   4.786   3.470+99.99 -0.00    -0.271 OA
ATOM     75  O2  UNL     1      11.546   6.153   6.955 -0.11 -0.00    -0.398 OA
ATOM     76  O3  UNL     1      10.862   3.120   7.761 -0.33 -0.00    -0.271 OA
ATOM     77  O4  UNL     1       7.139   2.431   5.257+65.77 -0.00    -0.272 OA
ATOM     78  O5  UNL     1       8.136   5.654   2.025 -0.09 -0.00    -0.271 OA
ATOM     79  O6  UNL     1      10.542   1.536   3.011 +4.51 -0.00    -0.650 OA
ATOM     80  O7  UNL     1      11.339   0.143   1.460 +1.27 -0.00    -0.776 OA
ATOM     81  O8  UNL     1       8.159   2.814  -0.705 -0.05 -0.00    -0.271 OA
ATOM     82  O9  UNL     1       3.917   2.368  -1.800 -0.04 -0.00    -0.271 OA
ATOM     83  O10 UNL     1       9.809   7.809   4.422 -0.24 -0.00    -0.271 OA
ATOM     84  O11 UNL     1      12.876   8.481   7.147 -0.35 -0.00    -0.271 OA
ATOM     85  O12 UNL     1      15.724   6.635   5.213 +0.08 -0.00    -0.271 OA
ATOM     86  O13 UNL     1      17.248   7.125   0.580 +4.05 -0.00    -0.274 OA
ATOM     87  O14 UNL     1      16.983  10.515   3.325 -0.32 -0.00    -0.271 OA
ATOM     88  O15 UNL     1      20.336   8.128   1.660+99.99 -0.00    -0.271 OA
ATOM     89  O16 UNL     1      19.841   8.508  -2.802+99.99 -0.00    -0.393 OA
ATOM     90  O17 UNL     1      23.207   9.951  -0.425 -0.25 -0.00    -0.274 OA
ATOM     91  N1  UNL     1      11.431   4.632   4.630 -0.05 -0.00    -0.344 N 
ATOM     92  N2  UNL     1      10.350   2.300   5.701 +1.46 -0.00    -0.350 N 
ATOM     93  N3  UNL     1       7.961   3.359   7.205 -0.16 -0.00    -0.353 N 
ATOM     94  N4  UNL     1       8.197   5.592   5.143 -0.21 +0.00    +0.099 N 
ATOM     95  N5  UNL     1       7.278   3.659   2.739 -0.04 -0.00    -0.346 N 
ATOM     96  N6  UNL     1       6.258   3.717   0.180 -0.01 -0.00    -0.346 N 
ATOM     97  N7  UNL     1       6.072   1.924  -2.281 -0.01 -0.00    -0.368 N 
ATOM     98  N8  UNL     1      11.879   7.472   3.497 -0.18 -0.00    -0.346 N 
ATOM     99  N9  UNL     1      13.013   9.418   5.084+10.28 -0.00    -0.337 N 
ATOM    100  N10 UNL     1      15.960   8.894   5.296 +9.45 -0.00    -0.346 N 
ATOM    101  N11 UNL     1      17.088   4.891   0.836+99.99 -0.00    -0.370 N 
ATOM    102  N12 UNL     1      18.058   8.497   3.281 -0.27 -0.00    -0.346 N 
ATOM    103  N13 UNL     1      19.657  10.292   1.413 -0.19 -0.00    -0.346 N 
ATOM    104  N14 UNL     1      21.712   8.233  -0.714 +0.85 -0.00    -0.346 N 
ATOM    105  H83 UNL     1      12.000   6.957   7.293 +0.17 +0.00    +0.209 HD
ATOM    106  H84 UNL     1      12.141   0.401   1.962 +0.05 +0.00    +0.167 HD
ATOM    107  H85 UNL     1      20.750   8.157  -2.766 +0.85 +0.00    +0.210 HD
ATOM    108  H86 UNL     1      10.570   5.144   4.824 +0.10 +0.00    +0.163 HD
ATOM    109  H87 UNL     1      10.445   2.452   4.694 -0.28 +0.00    +0.163 HD
ATOM    110  H88 UNL     1       8.833   3.437   7.729 +0.10 +0.00    +0.163 HD
ATOM    111  H89 UNL     1       8.776   6.414   4.891 +0.19 +0.00    +0.317 HD
ATOM    112  H90 UNL     1       7.123   3.189   3.638 +0.06 +0.00    +0.163 HD
ATOM    113  H91 UNL     1       5.861   4.085   1.040 +0.06 +0.00    +0.163 HD
ATOM    114  H92 UNL     1       5.798   1.003  -2.595 +0.04 +0.00    +0.159 HD
ATOM    115  H93 UNL     1       7.033   2.046  -1.957 +0.05 +0.00    +0.159 HD
ATOM    116  H94 UNL     1      12.858   7.628   3.712 +0.10 +0.00    +0.163 HD
ATOM    117  H95 UNL     1      16.154   9.727   4.741 +0.12 +0.00    +0.163 HD
ATOM    118  H96 UNL     1      16.696   4.140   1.392+54.90 +0.00    +0.159 HD
ATOM    119  H97 UNL     1      17.003   4.804  -0.169+99.99 +0.00    +0.159 HD
ATOM    120  H98 UNL     1      18.882   8.068   2.854 +0.10 +0.00    +0.163 HD
ATOM    121  H99 UNL     1      19.414  11.028   0.760 +0.14 +0.00    +0.163 HD
ATOM    122  HA0 UNL     1      21.578   7.287  -0.370 +0.54 +0.00    +0.163 HD
ENDROOT
TORSDOF 46
TER
