USER    Run = 1
USER    DPF = ligand_484_receptor.dpf
USER  
USER    Estimated Free Energy of Binding    =  +27.29 kcal/mol  [=(1)+(2)+(3)-(4)]
USER    
USER    (1) Final Intermolecular Energy     =  +26.10 kcal/mol
USER        vdW + Hbond + desolv Energy     =  +26.10 kcal/mol
USER        Electrostatic Energy            =   +0.00 kcal/mol
USER    (2) Final Total Internal Energy     =   -1.00 kcal/mol
USER    (3) Torsional Free Energy           =   +1.19 kcal/mol
USER    (4) Unbound System's Energy  [=(2)] =   -1.00 kcal/mol
USER    
USER    
USER    NEWDPF move ligand_484.pdbqt
USER    NEWDPF about 0.000000 0.000000 0.000000
USER    NEWDPF tran0 10.925651 4.317207 6.691881
USER    NEWDPF quaternion0 0.008185 -0.618544 -0.150382 -0.771182
USER    NEWDPF axisangle0 0.012857 -0.971614 -0.236221 -79.079682
USER    NEWDPF quat0 0.012857 -0.971614 -0.236221 -79.079682
USER    NEWDPF dihe0 -69.02 93.94 112.92 -16.43 179.93 34.37 -45.36 179.17 -17.99 -30.68 -88.57 -171.05 -164.61 158.19 33.72 -165.24 131.26 -180.00 -11.60 62.99 -180.00 135.59 -180.00 180.00 -180.00 120.53 117.19 180.00 -72.05 -53.27 -63.12 -180.00 
USER  keepresnum = 1 
USER  
REMARK  32 active torsions:
REMARK  status: ('A' for Active; 'I' for Inactive)
REMARK    1  A    between atoms: C2_2  and  C5_5 
REMARK    2  A    between atoms: C5_5  and  C6_6 
REMARK    3  A    between atoms: C5_5  and  N6_51 
REMARK       I    between atoms: C6_6  and  N1_44 
REMARK    4  A    between atoms: C7_7  and  C8_8 
REMARK    5  A    between atoms: C7_7  and  C12_12 
REMARK    6  A    between atoms: C7_7  and  N1_44 
REMARK    7  A    between atoms: C8_8  and  C9_9 
REMARK    8  A    between atoms: C9_9  and  C10_10 
REMARK    9  A    between atoms: C10_10  and  C11_11 
REMARK       I    between atoms: C12_12  and  N3_47 
REMARK   10  A    between atoms: C13_13  and  C14_14 
REMARK   11  A    between atoms: C13_13  and  N3_47 
REMARK   12  A    between atoms: C17_17  and  C20_20 
REMARK   13  A    between atoms: C20_20  and  N5_50 
REMARK   14  A    between atoms: C21_21  and  C22_22 
REMARK       I    between atoms: C21_21  and  N6_51 
REMARK   15  A    between atoms: C22_22  and  C23_23 
REMARK   16  A    between atoms: C22_22  and  N10_56 
REMARK   17  A    between atoms: C23_23  and  C24_24 
REMARK   18  A    between atoms: C24_24  and  C25_25 
REMARK   19  A    between atoms: C25_25  and  N7_52 
REMARK       I    between atoms: C26_26  and  N8_54 
REMARK       I    between atoms: C26_26  and  N9_55 
REMARK   20  A    between atoms: C27_27  and  C28_28 
REMARK       I    between atoms: C27_27  and  N10_56 
REMARK   21  A    between atoms: C28_28  and  C29_29 
REMARK   22  A    between atoms: C28_28  and  N14_61 
REMARK   23  A    between atoms: C29_29  and  C30_30 
REMARK   24  A    between atoms: C30_30  and  C31_31 
REMARK   25  A    between atoms: C31_31  and  N11_57 
REMARK       I    between atoms: C32_32  and  N12_59 
REMARK       I    between atoms: C32_32  and  N13_60 
REMARK   26  A    between atoms: C33_33  and  C34_34 
REMARK       I    between atoms: C33_33  and  N14_61 
REMARK   27  A    between atoms: C34_34  and  C35_35 
REMARK   28  A    between atoms: C34_34  and  N16_63 
REMARK   29  A    between atoms: C35_35  and  C36_36 
REMARK   30  A    between atoms: C36_36  and  C37_37 
REMARK   31  A    between atoms: C37_37  and  C38_38 
REMARK   32  A    between atoms: C38_38  and  N15_62 
USER                              x       y       z     vdW  Elec       q    Type
USER                           _______ _______ _______ _____ _____    ______ ____
ROOT
ATOM      1  C22 UNL     1      12.913   4.298   6.451 -0.44 +0.00    +0.176 C 
ENDROOT
BRANCH   1   2
ATOM      2  C21 UNL     1      11.632   3.481   6.736 -0.03 +0.00    +0.241 C 
ATOM      3  O3  UNL     1      11.630   2.491   7.467 +3.76 -0.00    -0.271 OA
ATOM      4  N6  UNL     1      10.496   3.910   6.070 -0.20 -0.00    -0.345 N 
ATOM      5  H54 UNL     1      10.577   4.834   5.662 +0.11 +0.00    +0.163 HD
BRANCH   4   6
ATOM      6  C5  UNL     1       9.184   3.582   6.662 -0.40 +0.00    +0.184 C 
BRANCH   6   7
ATOM      7  C2  UNL     1       8.601   4.778   7.492 -0.53 -0.00    -0.022 C 
ATOM      8  C1  UNL     1       9.185   4.733   8.923 +0.32 +0.00    +0.017 C 
ATOM      9  C3  UNL     1       8.937   6.154   6.883 +0.82 +0.00    +0.017 C 
ATOM     10  C4  UNL     1       7.069   4.660   7.624 -0.32 +0.00    +0.017 C 
ENDBRANCH   6   7
BRANCH   6  11
ATOM     11  C6  UNL     1       8.185   3.031   5.608 +1.81 +0.00    +0.241 C 
ATOM     12  O1  UNL     1       8.353   1.932   5.079 +5.91 -0.00    -0.271 OA
ATOM     13  N1  UNL     1       7.035   3.767   5.416 -0.08 -0.00    -0.346 N 
ATOM     14  H48 UNL     1       7.007   4.713   5.777 +0.09 +0.00    +0.163 HD
BRANCH  13  15
ATOM     15  C7  UNL     1       5.992   3.325   4.486 -0.15 +0.00    +0.176 C 
BRANCH  15  16
ATOM     16  C8  UNL     1       4.863   4.363   4.310 -0.20 +0.00    +0.035 C 
BRANCH  16  17
ATOM     17  C9  UNL     1       4.661   5.274   5.526 -0.28 +0.00    +0.007 C 
BRANCH  17  18
ATOM     18  C10 UNL     1       3.834   6.504   5.165 -0.12 +0.00    +0.044 C 
BRANCH  18  19
ATOM     19  C11 UNL     1       2.837   6.776   6.255 -0.22 +0.00    +0.052 C 
ATOM     20  N2  UNL     1       3.199   7.275   7.389 -0.10 -0.00    -0.411 N 
ATOM     21  H49 UNL     1       2.379   7.395   7.994 +0.05 +0.00    +0.155 HD
ATOM     22  H2  UNL     1       4.157   7.513   7.645 +0.06 +0.00    +0.155 HD
ENDBRANCH  18  19
ENDBRANCH  17  18
ENDBRANCH  16  17
ENDBRANCH  15  16
BRANCH  15  23
ATOM     23  C12 UNL     1       6.574   2.913   3.116 -0.17 +0.00    +0.240 C 
ATOM     24  O2  UNL     1       7.566   3.442   2.619 -0.12 -0.00    -0.271 OA
ATOM     25  N3  UNL     1       5.829   1.969   2.440 -0.10 -0.00    -0.355 N 
ATOM     26  H50 UNL     1       4.829   1.982   2.628 +0.06 +0.00    +0.162 HD
BRANCH  25  27
ATOM     27  C13 UNL     1       6.240   1.524   1.126 -0.15 +0.00    +0.161 C 
BRANCH  27  28
ATOM     28  C14 UNL     1       6.998   2.598   0.391 -0.10 -0.00    -0.040 A 
ATOM     29  C15 UNL     1       6.456   3.882   0.246 -0.11 +0.00    +0.010 A 
ATOM     30  C16 UNL     1       7.169   4.884  -0.423 -0.10 +0.00    +0.015 A 
ATOM     31  C17 UNL     1       8.432   4.611  -0.957 -0.13 +0.00    +0.002 A 
ATOM     32  C18 UNL     1       8.992   3.340  -0.789 -0.13 +0.00    +0.015 A 
ATOM     33  C19 UNL     1       8.281   2.342  -0.116 -0.13 +0.00    +0.010 A 
BRANCH  31  34
ATOM     34  C20 UNL     1       9.194   5.656  -1.706 -0.19 +0.00    +0.081 C 
ATOM     35  N4  UNL     1       8.617   6.774  -2.004 +0.10 -0.00    -0.389 N 
ATOM     36  H51 UNL     1       9.258   7.361  -2.541 +0.06 +0.00    +0.157 HD
ATOM     37  H4  UNL     1       7.666   7.031  -1.742 -0.46 +0.00    +0.157 HD
BRANCH  34  38
ATOM     38  N5  UNL     1      10.497   5.448  -2.061 -0.09 -0.00    -0.288 NA
ATOM     39  H52 UNL     1      11.190   5.845  -1.435 +0.06 +0.00    +0.125 HD
ATOM     40  H53 UNL     1      10.722   5.649  -3.028 +0.06 +0.00    +0.125 HD
ENDBRANCH  34  38
ENDBRANCH  31  34
ENDBRANCH  27  28
ENDBRANCH  25  27
ENDBRANCH  15  23
ENDBRANCH  13  15
ENDBRANCH   6  11
ENDBRANCH   4   6
ENDBRANCH   1   2
BRANCH   1  41
ATOM     41  C23 UNL     1      13.246   5.265   7.594 -0.62 +0.00    +0.036 C 
BRANCH  41  42
ATOM     42  C24 UNL     1      14.713   5.315   8.031 -0.29 +0.00    +0.022 C 
BRANCH  42  43
ATOM     43  C25 UNL     1      15.381   6.685   7.972 +3.90 +0.00    +0.121 C 
BRANCH  43  44
ATOM     44  N7  UNL     1      14.375   7.724   7.740 +3.79 -0.00    -0.372 N 
ATOM     45  C26 UNL     1      13.623   8.086   8.710 -0.41 +0.00    +0.121 C 
ATOM     46  N8  UNL     1      12.671   9.020   8.499 -0.24 -0.00    -0.279 NA
ATOM     47  N9  UNL     1      13.620   7.719  10.012 +1.34 -0.00    -0.279 NA
ATOM     48  H55 UNL     1      12.620   9.724   9.225 +0.06 +0.00    +0.126 HD
ATOM     49  H56 UNL     1      12.774   9.434   7.579 +0.09 +0.00    +0.126 HD
ATOM     50  H57 UNL     1      14.132   6.860  10.232 +0.19 +0.00    +0.126 HD
ATOM     51  H58 UNL     1      12.674   7.608  10.368 +2.11 +0.00    +0.126 HD
ATOM     52  H7  UNL     1      14.275   8.151   6.820 +0.24 +0.00    +0.161 HD
ENDBRANCH  43  44
ENDBRANCH  42  43
ENDBRANCH  41  42
ENDBRANCH   1  41
BRANCH   1  53
ATOM     53  N10 UNL     1      12.762   4.972   5.169 +0.19 -0.00    -0.346 N 
ATOM     54  C27 UNL     1      13.285   6.223   4.935 -0.24 +0.00    +0.241 C 
ATOM     55  O4  UNL     1      13.858   6.876   5.806 -0.31 -0.00    -0.271 OA
ATOM     56  H59 UNL     1      12.748   4.358   4.347 +1.22 +0.00    +0.163 HD
BRANCH  54  57
ATOM     57  C28 UNL     1      13.179   6.723   3.475 -0.20 +0.00    +0.176 C 
BRANCH  57  58
ATOM     58  C29 UNL     1      14.477   7.366   2.953 +1.78 +0.00    +0.036 C 
BRANCH  58  59
ATOM     59  C30 UNL     1      14.880   8.598   3.776 -0.50 +0.00    +0.022 C 
BRANCH  59  60
ATOM     60  C31 UNL     1      16.144   9.278   3.246 -0.45 +0.00    +0.121 C 
BRANCH  60  61
ATOM     61  N11 UNL     1      15.948   9.693   1.859 -0.15 -0.00    -0.372 N 
ATOM     62  C32 UNL     1      16.970   9.631   1.084 -0.46 +0.00    +0.121 C 
ATOM     63  N12 UNL     1      16.882   9.954  -0.227 -0.07 -0.00    -0.279 NA
ATOM     64  N13 UNL     1      18.242   9.263   1.360 -0.14 -0.00    -0.279 NA
ATOM     65  H60 UNL     1      15.908  10.063  -0.525 +0.17 +0.00    +0.126 HD
ATOM     66  H61 UNL     1      17.328   9.270  -0.823 +0.08 +0.00    +0.126 HD
ATOM     67  H62 UNL     1      18.476   9.264   2.344 +0.09 +0.00    +0.126 HD
ATOM     68  H63 UNL     1      18.912   9.816   0.835 +0.10 +0.00    +0.126 HD
ATOM     69  H11 UNL     1      15.041  10.016   1.521 -0.34 +0.00    +0.161 HD
ENDBRANCH  60  61
ENDBRANCH  59  60
ENDBRANCH  58  59
ENDBRANCH  57  58
BRANCH  57  70
ATOM     70  N14 UNL     1      11.982   7.534   3.264 -0.19 -0.00    -0.346 N 
ATOM     71  C33 UNL     1      10.944   7.140   2.445 -0.22 +0.00    +0.251 C 
ATOM     72  O5  UNL     1      11.034   6.194   1.667 -0.24 -0.00    -0.271 OA
ATOM     73  H64 UNL     1      11.793   8.256   3.947 +0.09 +0.00    +0.163 HD
BRANCH  71  74
ATOM     74  C34 UNL     1       9.701   8.058   2.547 +0.23 +0.00    +0.308 C 
BRANCH  74  75
ATOM     75  C35 UNL     1       8.613   7.501   3.477 -0.25 +0.00    +0.045 C 
BRANCH  75  76
ATOM     76  C36 UNL     1       7.649   6.508   2.804 -0.30 +0.00    +0.004 C 
BRANCH  76  77
ATOM     77  C37 UNL     1       6.374   7.149   2.262 -0.34 +0.00    +0.030 C 
BRANCH  77  78
ATOM     78  C38 UNL     1       6.377   8.668   2.407 +2.19 +0.00    +0.267 C 
BRANCH  78  79
ATOM     79  N15 UNL     1       5.025   9.130   2.720 +3.42 +0.00    +0.078 N 
ATOM     80  H65 UNL     1       5.114   9.948   3.349 +0.00 +0.00    +0.312 HD
ATOM     81  H66 UNL     1       4.577   8.428   3.315 +0.25 +0.00    +0.312 HD
ENDBRANCH  78  79
ENDBRANCH  77  78
ENDBRANCH  76  77
ENDBRANCH  75  76
ENDBRANCH  74  75
BRANCH  74  82
ATOM     82  N16 UNL     1       9.149   8.208   1.183 +1.47 +0.00    +0.092 N 
ATOM     83  H67 UNL     1       8.321   8.806   1.234 +0.62 +0.00    +0.313 HD
ATOM     84  H68 UNL     1       8.808   7.304   0.854 +0.19 +0.00    +0.313 HD
ENDBRANCH  74  82
ENDBRANCH  71  74
ENDBRANCH  57  70
ENDBRANCH  54  57
ENDBRANCH   1  53
TORSDOF 32
TER
