USER    Run = 1
USER    DPF = ligand_343_receptor.dpf
USER  
USER    Estimated Free Energy of Binding    =  +7.39e+003 kcal/mol  [=(1)+(2)+(3)-(4)]
USER    
USER    (1) Final Intermolecular Energy     =  +7.39e+003 kcal/mol
USER        vdW + Hbond + desolv Energy     =  +7.39e+003 kcal/mol
USER        Electrostatic Energy            =   +0.00 kcal/mol
USER    (2) Final Total Internal Energy     =  +69.24 kcal/mol
USER    (3) Torsional Free Energy           =   +1.19 kcal/mol
USER    (4) Unbound System's Energy  [=(2)] =  +69.24 kcal/mol
USER    
USER    
USER    NEWDPF move ligand_343.pdbqt
USER    NEWDPF about 0.000000 0.000000 0.000000
USER    NEWDPF tran0 27.692323 7.508235 3.822974
USER    NEWDPF quaternion0 0.224406 0.076933 0.250565 0.938584
USER    NEWDPF axisangle0 0.650358 0.222961 0.726170 40.369685
USER    NEWDPF quat0 0.650358 0.222961 0.726170 40.369685
USER    NEWDPF dihe0 -180.00 165.22 156.67 163.16 136.10 179.10 -36.36 -129.11 29.63 116.44 116.44 91.37 -10.01 -161.11 -68.95 -93.80 -118.61 -180.00 180.00 -111.37 156.03 -0.55 152.72 180.00 -56.57 47.85 157.52 
USER  keepresnum = 1 
USER  
REMARK  27 active torsions:
REMARK  status: ('A' for Active; 'I' for Inactive)
REMARK    1  A    between atoms: C2_2  and  C4_4 
REMARK    2  A    between atoms: C4_4  and  C5_5 
REMARK    3  A    between atoms: C4_4  and  N15_90 
REMARK    4  A    between atoms: C5_5  and  C6_6 
REMARK    5  A    between atoms: C6_6  and  C7_7 
REMARK    6  A    between atoms: C7_7  and  C8_8 
REMARK    7  A    between atoms: C7_7  and  C12_12 
REMARK    8  A    between atoms: C8_8  and  C9_9 
REMARK    9  A    between atoms: C9_9  and  C10_10 
REMARK   10  A    between atoms: C10_10  and  N1_70 
REMARK       I    between atoms: C11_11  and  N1_70 
REMARK       I    between atoms: C11_11  and  N2_71 
REMARK       I    between atoms: C12_12  and  N3_72 
REMARK   11  A    between atoms: C13_13  and  N3_72 
REMARK   12  A    between atoms: C16_16  and  C19_19 
REMARK   13  A    between atoms: C19_19  and  O4_56 
REMARK   14  A    between atoms: C20_20  and  O4_56 
REMARK       I    between atoms: C20_20  and  N4_73 
REMARK   15  A    between atoms: C22_22  and  C23_23 
REMARK   16  A    between atoms: C22_22  and  N4_73 
REMARK   17  A    between atoms: C23_23  and  C24_24 
REMARK   18  A    between atoms: C24_24  and  C25_25 
REMARK       I    between atoms: C25_25  and  N5_74 
REMARK   19  A    between atoms: C26_26  and  N5_74 
REMARK   20  A    between atoms: C31_31  and  N8_79 
REMARK   21  A    between atoms: C39_39  and  N10_82 
REMARK   22  A    between atoms: C43_43  and  N14_89 
REMARK   23  A    between atoms: C46_46  and  C47_47 
REMARK       I    between atoms: C46_46  and  N15_90 
REMARK   24  A    between atoms: C47_47  and  C48_48 
REMARK   25  A    between atoms: C48_48  and  N16_91 
REMARK   26  A    between atoms: O14_66  and  P1_92 
REMARK   27  A    between atoms: P2_93  and  S2_95 
USER                              x       y       z     vdW  Elec       q    Type
USER                           _______ _______ _______ _____ _____    ______ ____
ROOT
ATOM      1  C25 UNL     1      26.986   9.626   1.942 +3.43 +0.00    +0.223 C 
ATOM      2  O6  UNL     1      27.166  10.695   1.373+99.99 -0.00    -0.273 OA
ATOM      3  N5  UNL     1      25.776   9.078   2.306 -0.29 -0.00    -0.311 N 
ATOM      4  H60 UNL     1      25.767   8.346   3.000 +0.11 +0.00    +0.170 HD
ENDROOT
BRANCH   3   5
ATOM      5  C26 UNL     1      24.498   9.545   1.994 -0.37 +0.00    +0.139 A 
ATOM      6  C27 UNL     1      23.268   8.943   2.308 -0.37 +0.00    +0.122 A 
ATOM      7  C28 UNL     1      22.131   9.621   1.878 -0.31 +0.00    +0.142 A 
ATOM      8  N9  UNL     1      22.898   7.818   3.012 +0.95 -0.00    -0.346 N 
ATOM      9  N6  UNL     1      22.079  10.791   1.220 +2.87 -0.00    -0.336 N 
ATOM     10  N8  UNL     1      21.074   8.852   2.284 +0.31 -0.00    -0.297 N 
ATOM     11  C29 UNL     1      23.310  11.286   1.009+99.99 +0.00    +0.183 A 
ATOM     12  H6  UNL     1      21.216  11.245   0.920 +0.15 +0.00    +0.168 HD
ATOM     13  N7  UNL     1      24.493  10.750   1.363 +1.00 -0.00    -0.337 N 
ATOM     14  H7  UNL     1      25.367  11.237   1.162 +0.27 +0.00    +0.168 HD
ATOM     15  C30 UNL     1      21.586   7.780   2.960 +7.26 +0.00    +0.188 A 
ATOM     16  H9  UNL     1      23.515   7.152   3.477 +3.37 +0.00    +0.167 HD
BRANCH  10  17
ATOM     17  C31 UNL     1      19.666   9.096   2.067 +1.57 +0.00    +0.267 C 
ATOM     18  C32 UNL     1      18.893   7.963   1.414+99.99 +0.00    +0.251 C 
ATOM     19  C33 UNL     1      17.484   8.254   1.886 -0.20 +0.00    +0.201 C 
ATOM     20  F2  UNL     1      18.972   8.010   0.063+99.99 -0.00    -0.242 F 
ATOM     21  C34 UNL     1      17.724   8.737   3.320 -0.47 +0.00    +0.181 C 
ATOM     22  O12 UNL     1      16.948   9.332   1.113 -0.30 -0.00    -0.295 OA
ATOM     23  C35 UNL     1      17.680   7.625   4.368 +0.76 +0.00    +0.213 C 
ATOM     24  O7  UNL     1      19.028   9.366   3.338 -0.21 -0.00    -0.353 OA
ATOM     25  O8  UNL     1      16.538   6.803   4.192 +2.91 -0.00    -0.311 OA
ATOM     26  P1  UNL     1      15.466   6.600   5.376 +3.14 +0.00    +0.327 P 
ATOM     27  O9  UNL     1      14.671   7.999   5.379 -0.08 -0.00    -0.303 OA
ATOM     28  S1  UNL     1      14.473   4.954   5.351+41.22 -0.00    -0.007 SA
ATOM     29  C36 UNL     1      13.433   8.118   4.682 -0.35 +0.00    +0.201 C 
ATOM     30  C37 UNL     1      13.187   9.559   4.231+31.17 +0.00    +0.181 C 
ATOM     31  C40 UNL     1      12.258   7.843   5.604 -0.27 +0.00    +0.251 C 
ATOM     32  C38 UNL     1      13.537   9.793   2.758+38.83 +0.00    +0.213 C 
ATOM     33  O13 UNL     1      11.793   9.868   4.403+75.23 -0.00    -0.353 OA
ATOM     34  O10 UNL     1      14.857   9.366   2.479 +0.54 -0.00    -0.304 OA
ATOM     35  P2  UNL     1      15.345   9.450   0.938+16.64 +0.00    +0.388 P 
ATOM     36  O11 UNL     1      14.957  10.745   0.293 +0.97 -0.00    -0.246 OA
ATOM     37  C39 UNL     1      11.176   8.814   5.159 +1.50 +0.00    +0.267 C 
ATOM     38  F1  UNL     1      12.617   8.169   6.885 -0.08 -0.00    -0.242 F 
BRANCH  26  39
ATOM     39  O14 UNL     1      16.357   6.752   6.704 +4.21 -0.00    -0.324 OA
ATOM     40  H55 UNL     1      17.233   7.136   6.513 +1.15 +0.00    +0.220 HD
ENDBRANCH  26  39
BRANCH  35  41
ATOM     41  S2  UNL     1      14.604   7.833  -0.140 +1.25 -0.00    -0.058 SA
ATOM     42  H64 UNL     1      14.409   7.066   0.941 -0.25 +0.00    +0.114 HD
ENDBRANCH  35  41
BRANCH  37  43
ATOM     43  N10 UNL     1      10.102   8.255   4.367 -0.26 -0.00    -0.297 N 
ATOM     44  C41 UNL     1       8.769   8.349   4.678+39.23 +0.00    +0.188 A 
ATOM     45  N11 UNL     1       8.010   7.742   3.789 +1.03 -0.00    -0.346 N 
ATOM     46  C42 UNL     1       8.894   7.245   2.853 -0.29 +0.00    +0.116 A 
ATOM     47  H11 UNL     1       6.994   7.659   3.791 +0.41 +0.00    +0.167 HD
ATOM     48  C43 UNL     1       8.707   6.513   1.669 -0.20 +0.00    +0.109 A 
ATOM     49  C45 UNL     1      10.200   7.564   3.191 -0.29 +0.00    +0.142 A 
ATOM     50  N12 UNL     1       9.795   6.188   0.934 -0.09 -0.00    -0.341 N 
ATOM     51  C44 UNL     1      11.010   6.558   1.386 -0.22 +0.00    +0.183 A 
ATOM     52  H12 UNL     1       9.699   5.674   0.058 +0.08 +0.00    +0.167 HD
ATOM     53  N13 UNL     1      11.312   7.252   2.506 -0.17 -0.00    -0.336 N 
ATOM     54  H13 UNL     1      12.259   7.504   2.793 +0.06 +0.00    +0.168 HD
BRANCH  48  55
ATOM     55  N14 UNL     1       7.459   6.119   1.206 -0.09 -0.00    -0.287 NA
ATOM     56  H61 UNL     1       7.489   5.638   0.315 +0.04 +0.00    +0.125 HD
ATOM     57  H62 UNL     1       6.885   5.723   1.938 +0.06 +0.00    +0.125 HD
ENDBRANCH  48  55
ENDBRANCH  37  43
ENDBRANCH  10  17
ENDBRANCH   3   5
BRANCH   1  58
ATOM     58  C24 UNL     1      28.144   8.751   2.394 +1.38 +0.00    +0.105 C 
BRANCH  58  59
ATOM     59  C23 UNL     1      29.274   9.568   3.018+99.99 +0.00    +0.029 C 
BRANCH  59  60
ATOM     60  C22 UNL     1      29.568   9.178   4.467+55.52 +0.00    +0.128 C 
BRANCH  60  61
ATOM     61  N4  UNL     1      29.297  10.246   5.428+45.19 -0.00    -0.332 N 
ATOM     62  C20 UNL     1      28.088  10.921   5.498+99.99 +0.00    +0.362 C 
ATOM     63  O5  UNL     1      27.844  11.809   6.307+99.99 -0.00    -0.238 OA
ATOM     64  C21 UNL     1      30.336  10.556   6.396+99.99 +0.00    +0.155 C 
BRANCH  62  65
ATOM     65  O4  UNL     1      27.193  10.476   4.576+16.28 -0.00    -0.299 OA
BRANCH  65  66
ATOM     66  C19 UNL     1      25.925  11.138   4.560+99.99 +0.00    +0.219 C 
BRANCH  66  67
ATOM     67  C16 UNL     1      24.872  10.227   5.135+99.99 -0.00    -0.034 A 
ATOM     68  C15 UNL     1      25.000   8.837   5.037 +7.98 +0.00    +0.011 A 
ATOM     69  C14 UNL     1      24.013   7.989   5.554 +8.98 +0.00    +0.030 A 
ATOM     70  C13 UNL     1      22.878   8.516   6.170+30.73 +0.00    +0.034 A 
ATOM     71  C18 UNL     1      22.743   9.907   6.257 +1.20 +0.00    +0.030 A 
ATOM     72  C17 UNL     1      23.728  10.755   5.743 +8.30 +0.00    +0.011 A 
BRANCH  70  73
ATOM     73  N3  UNL     1      21.834   7.737   6.710+99.99 -0.00    -0.327 N 
ATOM     74  C12 UNL     1      20.657   8.181   7.284+36.17 +0.00    +0.226 C 
ATOM     75  O3  UNL     1      20.308   9.355   7.386 +7.59 -0.00    -0.273 OA
ATOM     76  H59 UNL     1      21.967   6.738   6.638+99.99 +0.00    +0.169 HD
BRANCH  74  77
ATOM     77  C7  UNL     1      19.731   7.068   7.788+99.99 +0.00    +0.085 C 
BRANCH  77  78
ATOM     78  C6  UNL     1      19.089   6.267   6.637+68.71 +0.00    +0.094 C 
BRANCH  78  79
ATOM     79  C5  UNL     1      20.105   5.698   5.651+80.50 +0.00    +0.150 C 
ATOM     80  O1  UNL     1      20.655   6.414   4.810+99.99 -0.00    -0.296 OA
BRANCH  79  81
ATOM     81  C4  UNL     1      20.353   4.171   5.654 +6.74 +0.00    +0.157 C 
BRANCH  81  82
ATOM     82  C2  UNL     1      20.617   3.665   7.093+72.02 +0.00    +0.007 C 
ATOM     83  C1  UNL     1      19.367   3.118   7.789+99.99 +0.00    +0.012 C 
ATOM     84  C3  UNL     1      21.254   4.762   7.953+99.99 +0.00    +0.012 C 
ENDBRANCH  81  82
BRANCH  81  85
ATOM     85  N15 UNL     1      21.398   3.746   4.723 +5.66 -0.00    -0.349 N 
ATOM     86  C46 UNL     1      21.881   4.592   3.744+96.37 +0.00    +0.219 C 
ATOM     87  O15 UNL     1      21.387   5.689   3.508+17.92 -0.00    -0.274 OA
ATOM     88  H63 UNL     1      21.861   2.858   4.870 +2.86 +0.00    +0.163 HD
BRANCH  86  89
ATOM     89  C47 UNL     1      23.032   4.005   2.955+17.81 +0.00    +0.123 C 
BRANCH  89  90
ATOM     90  C48 UNL     1      24.167   5.001   2.714+99.99 +0.00    +0.145 C 
BRANCH  90  91
ATOM     91  N16 UNL     1      24.166   5.594   1.391 -0.18 -0.00    -0.281 N 
ATOM     92  C49 UNL     1      23.248   6.480   0.937 +0.17 +0.00    +0.250 A 
ATOM     93  C50 UNL     1      23.625   6.831  -0.436 -0.47 +0.00    +0.080 A 
ATOM     94  O16 UNL     1      22.277   6.935   1.513+11.22 -0.00    -0.268 OA
ATOM     95  C51 UNL     1      24.728   6.146  -0.740 -0.44 +0.00    +0.080 A 
ATOM     96  C52 UNL     1      25.088   5.331   0.426 -0.30 +0.00    +0.250 A 
ATOM     97  O17 UNL     1      26.037   4.569   0.450 -0.68 -0.00    -0.268 OA
ENDBRANCH  90  91
ENDBRANCH  89  90
ENDBRANCH  86  89
ENDBRANCH  81  85
ENDBRANCH  79  81
ENDBRANCH  78  79
ENDBRANCH  77  78
BRANCH  77  98
ATOM     98  C8  UNL     1      18.713   7.563   8.835+99.99 +0.00    +0.016 C 
BRANCH  98  99
ATOM     99  C9  UNL     1      17.691   6.523   9.313+99.99 +0.00    +0.020 C 
BRANCH  99 100
ATOM    100  C10 UNL     1      16.407   6.489   8.479+99.99 +0.00    +0.124 C 
BRANCH 100 101
ATOM    101  N1  UNL     1      15.525   5.384   8.798+20.33 -0.00    -0.348 N 
ATOM    102  C11 UNL     1      14.229   5.555   9.189 +5.61 +0.00    +0.291 C 
ATOM    103  O2  UNL     1      13.665   6.630   9.341 -0.45 -0.00    -0.254 OA
ATOM    104  N2  UNL     1      13.593   4.368   9.341+20.85 -0.00    -0.254 NA
ATOM    105  H57 UNL     1      12.629   4.445   9.668 +0.15 +0.00    +0.128 HD
ATOM    106  H58 UNL     1      14.097   3.648   9.838 +4.99 +0.00    +0.128 HD
ATOM    107  H56 UNL     1      15.713   4.492   8.360 +0.84 +0.00    +0.163 HD
ENDBRANCH 100 101
ENDBRANCH  99 100
ENDBRANCH  98  99
ENDBRANCH  77  98
ENDBRANCH  74  77
ENDBRANCH  70  73
ENDBRANCH  66  67
ENDBRANCH  65  66
ENDBRANCH  62  65
ENDBRANCH  60  61
ENDBRANCH  59  60
ENDBRANCH  58  59
ENDBRANCH   1  58
TORSDOF 27
TER
