USER    Run = 1
USER    DPF = ligand_150_receptor.dpf
USER  
USER    Estimated Free Energy of Binding    =   -6.30 kcal/mol  [=(1)+(2)+(3)-(4)]
USER    Estimated Inhibition Constant, Ki   =   24.22 uM (micromolar)  [Temperature = 298.15 K]
USER    
USER    (1) Final Intermolecular Energy     =   -7.49 kcal/mol
USER        vdW + Hbond + desolv Energy     =   -7.49 kcal/mol
USER        Electrostatic Energy            =   +0.00 kcal/mol
USER    (2) Final Total Internal Energy     =   -5.03 kcal/mol
USER    (3) Torsional Free Energy           =   +1.19 kcal/mol
USER    (4) Unbound System's Energy  [=(2)] =   -5.03 kcal/mol
USER    
USER    
USER    NEWDPF move ligand_150.pdbqt
USER    NEWDPF about 0.000000 0.000000 0.000000
USER    NEWDPF tran0 16.636298 5.961812 -0.850001
USER    NEWDPF quaternion0 -0.654374 0.570183 0.367170 0.334472
USER    NEWDPF axisangle0 -0.694366 0.605030 0.389609 140.919178
USER    NEWDPF quat0 -0.694366 0.605030 0.389609 140.919178
USER    NEWDPF dihe0 -180.00 21.82 69.25 -57.66 104.02 -157.07 -145.09 129.13 -180.00 10.69 -1.04 -163.89 180.00 96.41 -64.49 -139.94 -18.52 126.44 
USER  keepresnum = 1 
USER  
REMARK  18 active torsions:
REMARK  status: ('A' for Active; 'I' for Inactive)
REMARK    1  A    between atoms: C3_3  and  N5_46 
REMARK    2  A    between atoms: C6_6  and  C7_7 
REMARK    3  A    between atoms: C7_7  and  C8_8 
REMARK       I    between atoms: C8_8  and  N1_42 
REMARK    4  A    between atoms: C9_9  and  N1_42 
REMARK    5  A    between atoms: C12_12  and  C15_15 
REMARK    6  A    between atoms: C15_15  and  C16_16 
REMARK       I    between atoms: C16_16  and  N2_43 
REMARK    7  A    between atoms: C17_17  and  C18_18 
REMARK    8  A    between atoms: C17_17  and  N2_43 
REMARK    9  A    between atoms: C18_18  and  N3_44 
REMARK   10  A    between atoms: C19_19  and  N3_44 
REMARK   11  A    between atoms: C19_19  and  N4_45 
REMARK   12  A    between atoms: C20_20  and  N4_45 
REMARK   13  A    between atoms: C26_26  and  N5_46 
REMARK   14  A    between atoms: C31_31  and  N9_53 
REMARK   15  A    between atoms: C32_32  and  O6_41 
REMARK   16  A    between atoms: C33_33  and  O5_40 
REMARK   17  A    between atoms: C34_34  and  C35_35 
REMARK   18  A    between atoms: C35_35  and  O4_39 
USER                              x       y       z     vdW  Elec       q    Type
USER                           _______ _______ _______ _____ _____    ______ ____
ROOT
ATOM      1  C8  UNL     1      13.206   6.852  -0.132 -0.15 +0.00    +0.226 C 
ATOM      2  O1  UNL     1      12.481   7.397   0.697 +0.53 -0.00    -0.273 OA
ATOM      3  N1  UNL     1      14.557   7.092  -0.317 +0.46 -0.00    -0.327 N 
ATOM      4  H28 UNL     1      15.029   6.514  -1.003 +0.07 +0.00    +0.169 HD
ENDROOT
BRANCH   1   5
ATOM      5  C7  UNL     1      12.609   5.861  -1.126 +0.20 +0.00    +0.141 C 
BRANCH   5   6
ATOM      6  C6  UNL     1      11.215   5.381  -0.797 -0.27 -0.00    -0.049 A 
ATOM      7  C1  UNL     1      10.241   6.280  -0.351 -0.28 +0.00    +0.010 A 
ATOM      8  C2  UNL     1       8.953   5.833  -0.027 -0.18 +0.00    +0.030 A 
ATOM      9  C3  UNL     1       8.599   4.488  -0.147 -0.12 +0.00    +0.033 A 
ATOM     10  C4  UNL     1       9.583   3.597  -0.602 -0.14 +0.00    +0.030 A 
ATOM     11  C5  UNL     1      10.874   4.033  -0.927 -0.08 +0.00    +0.010 A 
BRANCH   9  12
ATOM     12  N5  UNL     1       7.334   3.979   0.174 -0.00 -0.00    -0.341 N 
ATOM     13  H32 UNL     1       6.782   3.644  -0.609 +0.05 +0.00    +0.167 HD
BRANCH  12  14
ATOM     14  C26 UNL     1       6.626   3.856   1.379 -0.06 +0.00    +0.137 A 
ATOM     15  C29 UNL     1       7.226   4.271   2.584 -0.10 +0.00    +0.122 A 
ATOM     16  C28 UNL     1       6.485   4.133   3.743 -0.13 +0.00    +0.142 A 
ATOM     17  N8  UNL     1       8.468   4.810   2.861 -0.03 -0.00    -0.346 N 
ATOM     18  N7  UNL     1       5.243   3.639   3.869 -0.05 -0.00    -0.336 N 
ATOM     19  N9  UNL     1       7.298   4.599   4.741 -0.11 -0.00    -0.297 N 
ATOM     20  C27 UNL     1       4.757   3.278   2.663 -0.06 +0.00    +0.183 A 
ATOM     21  H7  UNL     1       4.738   3.548   4.751 +0.06 +0.00    +0.168 HD
ATOM     22  N6  UNL     1       5.362   3.356   1.460 -0.01 -0.00    -0.337 N 
ATOM     23  H6  UNL     1       4.878   3.043   0.619 +0.05 +0.00    +0.168 HD
ATOM     24  C30 UNL     1       8.470   5.004   4.164 -0.14 +0.00    +0.188 A 
ATOM     25  H8  UNL     1       9.218   5.014   2.201 +0.05 +0.00    +0.167 HD
BRANCH  19  26
ATOM     26  C31 UNL     1       6.925   4.640   6.143 -0.29 +0.00    +0.262 C 
ATOM     27  C32 UNL     1       6.197   5.937   6.533 -0.15 +0.00    +0.198 C 
ATOM     28  C33 UNL     1       4.741   5.501   6.538 -0.31 +0.00    +0.182 C 
ATOM     29  C34 UNL     1       4.854   4.077   7.057 -0.33 +0.00    +0.179 C 
ATOM     30  O3  UNL     1       6.041   3.530   6.438 -0.36 -0.00    -0.353 OA
BRANCH  27  31
ATOM     31  O6  UNL     1       6.547   6.359   7.865 -0.14 -0.00    -0.388 OA
ATOM     32  H27 UNL     1       5.781   6.157   8.438 +0.16 +0.00    +0.210 HD
ENDBRANCH  27  31
BRANCH  28  33
ATOM     33  O5  UNL     1       3.936   6.331   7.360 -0.19 -0.00    -0.390 OA
ATOM     34  H26 UNL     1       4.561   6.890   7.868 +0.09 +0.00    +0.210 HD
ENDBRANCH  28  33
BRANCH  29  35
ATOM     35  C35 UNL     1       3.651   3.209   6.702 -0.28 +0.00    +0.198 C 
BRANCH  35  36
ATOM     36  O4  UNL     1       4.079   2.082   5.938 -0.45 -0.00    -0.398 OA
ATOM     37  H25 UNL     1       5.025   1.956   6.138 -0.49 +0.00    +0.209 HD
ENDBRANCH  35  36
ENDBRANCH  29  35
ENDBRANCH  19  26
ENDBRANCH  12  14
ENDBRANCH   9  12
ENDBRANCH   5   6
ENDBRANCH   1   5
BRANCH   3  38
ATOM     38  C9  UNL     1      15.382   7.989   0.391 +0.91 +0.00    +0.034 A 
ATOM     39  C10 UNL     1      16.425   8.712  -0.184 -0.49 +0.00    +0.030 A 
ATOM     40  C11 UNL     1      17.202   9.581   0.594 -0.50 +0.00    +0.010 A 
ATOM     41  C12 UNL     1      16.952   9.737   1.961 -0.44 -0.00    -0.049 A 
ATOM     42  C13 UNL     1      15.901   9.014   2.534 -0.46 +0.00    +0.010 A 
ATOM     43  C14 UNL     1      15.126   8.146   1.758 +1.52 +0.00    +0.030 A 
BRANCH  41  44
ATOM     44  C15 UNL     1      17.783  10.683   2.792 -0.43 +0.00    +0.141 C 
BRANCH  44  45
ATOM     45  C16 UNL     1      19.147  10.982   2.189 -0.37 +0.00    +0.221 C 
ATOM     46  O2  UNL     1      19.518  12.123   1.923 -0.46 -0.00    -0.273 OA
ATOM     47  N2  UNL     1      19.923   9.865   1.943 -0.15 -0.00    -0.359 N 
ATOM     48  H29 UNL     1      19.708   9.027   2.473 +0.11 +0.00    +0.162 HD
BRANCH  47  49
ATOM     49  C17 UNL     1      21.289  10.003   1.470 -0.39 +0.00    +0.142 C 
BRANCH  49  50
ATOM     50  C18 UNL     1      22.306  10.130   2.612 +0.15 +0.00    +0.141 C 
BRANCH  50  51
ATOM     51  N3  UNL     1      22.992   8.863   2.900 -0.18 -0.00    -0.365 N 
ATOM     52  H30 UNL     1      22.504   8.282   3.563 +0.12 +0.00    +0.161 HD
BRANCH  51  53
ATOM     53  C19 UNL     1      24.177   8.411   2.438 -0.38 +0.00    +0.172 C 
ATOM     54  S1  UNL     1      25.420   7.825   3.395 -0.66 -0.00    -0.041 SA
BRANCH  53  55
ATOM     55  N4  UNL     1      24.431   8.436   1.102 -0.17 -0.00    -0.328 N 
ATOM     56  H31 UNL     1      23.928   9.210   0.665 +0.13 +0.00    +0.168 HD
BRANCH  55  57
ATOM     57  C20 UNL     1      25.184   7.664   0.184 -0.31 +0.00    +0.119 A 
ATOM     58  C21 UNL     1      26.562   7.947   0.154 -0.22 +0.00    +0.188 A 
ATOM     59  C22 UNL     1      27.436   7.273  -0.695 -0.20 +0.00    +0.199 A 
ATOM     60  F5  UNL     1      27.050   8.897   0.970 -0.12 -0.00    -0.200 F 
ATOM     61  C23 UNL     1      26.953   6.291  -1.539 -0.20 +0.00    +0.199 A 
ATOM     62  F4  UNL     1      28.741   7.578  -0.693 -0.07 -0.00    -0.199 F 
ATOM     63  C24 UNL     1      25.602   5.983  -1.525 -0.31 +0.00    +0.199 A 
ATOM     64  F3  UNL     1      27.785   5.637  -2.360 -0.05 -0.00    -0.199 F 
ATOM     65  C25 UNL     1      24.726   6.659  -0.672 -0.34 +0.00    +0.188 A 
ATOM     66  F2  UNL     1      25.129   5.024  -2.334 -0.15 -0.00    -0.199 F 
ATOM     67  F1  UNL     1      23.440   6.286  -0.697 -0.17 -0.00    -0.200 F 
ENDBRANCH  55  57
ENDBRANCH  53  55
ENDBRANCH  51  53
ENDBRANCH  50  51
ENDBRANCH  49  50
ENDBRANCH  47  49
ENDBRANCH  44  45
ENDBRANCH  41  44
ENDBRANCH   3  38
TORSDOF 18
TER
