USER    Run = 1
USER    DPF = ligand_273_receptor.dpf
USER  
USER    Estimated Free Energy of Binding    =  +2.05e+005 kcal/mol  [=(1)+(2)+(3)-(4)]
USER    
USER    (1) Final Intermolecular Energy     =  +2.05e+005 kcal/mol
USER        vdW + Hbond + desolv Energy     =  +1.52e+005 kcal/mol
USER        Electrostatic Energy            =  +5.34e+004 kcal/mol
USER    (2) Final Total Internal Energy     =   +0.00 kcal/mol
USER    (3) Torsional Free Energy           =   +1.19 kcal/mol
USER    (4) Unbound System's Energy  [=(2)] =   +0.00 kcal/mol
USER    
USER    
USER    NEWDPF move ligand_273.pdbqt
USER    NEWDPF about 0.000000 0.000000 0.000000
USER    NEWDPF tran0 14.434252 6.863252 2.666599
USER    NEWDPF quaternion0 -0.204144 0.688239 -0.560965 0.412275
USER    NEWDPF axisangle0 -0.224074 0.755427 -0.615728 131.304310
USER    NEWDPF quat0 -0.224074 0.755427 -0.615728 131.304310
USER  keepresnum = 1 
USER  
REMARK  0 active torsions:
REMARK  status: ('A' for Active; 'I' for Inactive)
REMARK       I    between atoms: C2_2  and  C3_3 
REMARK       I    between atoms: C3_3  and  C5_5 
REMARK       I    between atoms: C5_5  and  C6_6 
REMARK       I    between atoms: C5_5  and  N5_90 
REMARK       I    between atoms: C6_6  and  N1_86 
REMARK       I    between atoms: C7_7  and  C8_8 
REMARK       I    between atoms: C7_7  and  C10_10 
REMARK       I    between atoms: C7_7  and  N1_86 
REMARK       I    between atoms: C8_8  and  O2_69 
REMARK       I    between atoms: C10_10  and  N2_87 
REMARK       I    between atoms: C11_11  and  C13_13 
REMARK       I    between atoms: C11_11  and  N2_87 
REMARK       I    between atoms: C13_13  and  N3_88 
REMARK       I    between atoms: C14_14  and  C15_15 
REMARK       I    between atoms: C14_14  and  C22_22 
REMARK       I    between atoms: C14_14  and  N3_88 
REMARK       I    between atoms: C15_15  and  C16_16 
REMARK       I    between atoms: C19_19  and  O5_72 
REMARK       I    between atoms: C22_22  and  N4_89 
REMARK       I    between atoms: C23_23  and  C24_24 
REMARK       I    between atoms: C23_23  and  C25_25 
REMARK       I    between atoms: C23_23  and  N4_89 
REMARK       I    between atoms: C24_24  and  O7_74 
REMARK       I    between atoms: C25_25  and  O9_76 
REMARK       I    between atoms: C26_26  and  C27_27 
REMARK       I    between atoms: C26_26  and  N5_90 
REMARK       I    between atoms: C31_31  and  C32_32 
REMARK       I    between atoms: C31_31  and  N6_91 
REMARK       I    between atoms: C32_32  and  N7_92 
REMARK       I    between atoms: C34_34  and  C35_35 
REMARK       I    between atoms: C34_34  and  N7_92 
REMARK       I    between atoms: C35_35  and  C36_36 
REMARK       I    between atoms: C35_35  and  N8_93 
REMARK       I    between atoms: C36_36  and  C37_37 
REMARK       I    between atoms: C40_40  and  C41_41 
REMARK       I    between atoms: C40_40  and  N8_93 
REMARK       I    between atoms: C41_41  and  C42_42 
REMARK       I    between atoms: C41_41  and  N9_94 
REMARK       I    between atoms: C42_42  and  C43_43 
REMARK       I    between atoms: C46_46  and  C47_47 
REMARK       I    between atoms: C46_46  and  N9_94 
REMARK       I    between atoms: C47_47  and  C48_48 
REMARK       I    between atoms: C47_47  and  N13_99 
REMARK       I    between atoms: C48_48  and  C49_49 
REMARK       I    between atoms: C49_49  and  C50_50 
REMARK       I    between atoms: C50_50  and  N10_95 
REMARK       I    between atoms: C51_51  and  N11_97 
REMARK       I    between atoms: C51_51  and  N12_98 
REMARK       I    between atoms: C52_52  and  C53_53 
REMARK       I    between atoms: C52_52  and  N13_99 
REMARK       I    between atoms: C53_53  and  C54_54 
REMARK       I    between atoms: C53_53  and  N14_100 
REMARK       I    between atoms: C54_54  and  C55_55 
REMARK       I    between atoms: C58_58  and  C59_59 
REMARK       I    between atoms: C58_58  and  N14_100 
REMARK       I    between atoms: C59_59  and  N15_101 
REMARK       I    between atoms: C60_60  and  C61_61 
REMARK       I    between atoms: C60_60  and  N15_101 
REMARK       I    between atoms: C61_61  and  C62_62 
REMARK       I    between atoms: C61_61  and  N19_106 
REMARK       I    between atoms: C62_62  and  C63_63 
REMARK       I    between atoms: C63_63  and  C64_64 
REMARK       I    between atoms: C64_64  and  N16_102 
REMARK       I    between atoms: C65_65  and  N17_104 
REMARK       I    between atoms: C65_65  and  N18_105 
REMARK       I    between atoms: C66_66  and  C67_67 
REMARK       I    between atoms: C66_66  and  N19_106 
REMARK       I    between atoms: C67_67  and  N20_107 
USER                              x       y       z     vdW  Elec       q    Type
USER                           _______ _______ _______ _____ _____    ______ ____
ROOT
ATOM      1  C1  UNL     1      16.990   8.445  -2.161 -0.28 +0.00    +0.005 C 
ATOM      2  C2  UNL     1      15.596   9.038  -2.060+99.99 +0.00    +0.002 C 
ATOM      3  C3  UNL     1      15.446  10.288  -1.166+99.99 +0.00    +0.013 C 
ATOM      4  C4  UNL     1      16.151  11.507  -1.769+99.99 +0.00    +0.012 C 
ATOM      5  C5  UNL     1      15.777  10.034   0.327 +0.49 +0.00    +0.180 C 
ATOM      6  C6  UNL     1      17.147  10.592   0.799 -0.37 +0.00    +0.241 C 
ATOM      7  C7  UNL     1      19.552  10.089   1.176 -0.31 +0.00    +0.205 C 
ATOM      8  C8  UNL     1      20.176  11.375   0.572 -0.55 +0.00    +0.146 C 
ATOM      9  C9  UNL     1      20.514  11.285  -0.913 +5.73 +0.00    +0.042 C 
ATOM     10  C10 UNL     1      20.496   8.880   0.978+26.96 +0.00    +0.243 C 
ATOM     11  C11 UNL     1      21.232   7.173  -0.676+93.34 +0.00    +0.172 C 
ATOM     12  C12 UNL     1      20.992   6.893  -2.155 +4.36 +0.00    +0.042 C 
ATOM     13  C13 UNL     1      21.072   5.882   0.151+99.99 +0.00    +0.240 C 
ATOM     14  C14 UNL     1      21.658   4.798   2.328+99.99 +0.00    +0.180 C 
ATOM     15  C15 UNL     1      22.986   4.702   3.098+99.99 +0.00    +0.073 C 
ATOM     16  C16 UNL     1      23.239   3.407   3.838+12.71 -0.00    -0.056 A 
ATOM     17  C17 UNL     1      23.124   2.161   3.203+31.18 +0.00    +0.010 A 
ATOM     18  C18 UNL     1      23.384   0.979   3.902+99.99 +0.00    +0.037 A 
ATOM     19  C19 UNL     1      23.779   1.041   5.233+99.99 +0.00    +0.065 A 
ATOM     20  C20 UNL     1      23.924   2.263   5.874+99.99 +0.00    +0.037 A 
ATOM     21  C21 UNL     1      23.659   3.444   5.177+99.99 +0.00    +0.010 A 
ATOM     22  C22 UNL     1      20.446   4.978   3.282+99.99 +0.00    +0.241 C 
ATOM     23  C23 UNL     1      18.040   5.628   3.388+52.56 +0.00    +0.206 C 
ATOM     24  C24 UNL     1      17.248   4.318   3.372+99.99 +0.00    +0.200 C 
ATOM     25  C25 UNL     1      17.225   6.755   2.764 +1.21 +0.00    +0.165 C 
ATOM     26  C26 UNL     1      14.379  10.184   2.385+20.11 +0.00    +0.241 C 
ATOM     27  C27 UNL     1      13.384  11.094   3.153+99.99 +0.00    +0.179 C 
ATOM     28  C28 UNL     1      12.796  10.401   4.381+99.99 +0.00    +0.037 C 
ATOM     29  C29 UNL     1      11.580   9.677   3.813+11.15 +0.00    +0.022 C 
ATOM     30  C30 UNL     1      11.036  10.662   2.791+99.99 +0.00    +0.127 C 
ATOM     31  C31 UNL     1      12.232  12.369   1.352+73.19 +0.00    +0.243 C 
ATOM     32  C32 UNL     1      10.981  12.496   0.459+90.14 +0.00    +0.172 C 
ATOM     33  C33 UNL     1      11.000  13.802  -0.329+99.99 +0.00    +0.042 C 
ATOM     34  C34 UNL     1       9.838  10.893  -1.057+99.99 +0.00    +0.241 C 
ATOM     35  C35 UNL     1      10.023   9.608  -1.894 +3.20 +0.00    +0.177 C 
ATOM     36  C36 UNL     1      11.111   9.777  -2.971 +0.98 +0.00    +0.038 C 
ATOM     37  C37 UNL     1      10.973   8.834  -4.185 -0.47 -0.00    -0.020 C 
ATOM     38  C38 UNL     1      12.005   9.220  -5.250+99.99+99.99    +0.009 C 
ATOM     39  C39 UNL     1      11.142   7.359  -3.825 -0.33 +0.00    +0.009 C 
ATOM     40  C40 UNL     1      11.287   8.184  -0.240+46.78 +0.00    +0.241 C 
ATOM     41  C41 UNL     1      11.223   6.889   0.605 -0.18 +0.00    +0.177 C 
ATOM     42  C42 UNL     1      11.152   5.642  -0.297 -0.34 +0.00    +0.038 C 
ATOM     43  C43 UNL     1      11.357   4.305   0.444+90.01 -0.00    -0.020 C 
ATOM     44  C44 UNL     1      12.791   4.142   0.954+99.99 +0.00    +0.009 C 
ATOM     45  C45 UNL     1      11.010   3.139  -0.487 +1.86 +0.00    +0.009 C 
ATOM     46  C46 UNL     1       8.843   6.838   1.408 -0.20 +0.00    +0.241 C 
ATOM     47  C47 UNL     1       7.947   6.601   2.652 -0.23 +0.00    +0.176 C 
ATOM     48  C48 UNL     1       6.782   5.659   2.307 -0.20 +0.00    +0.036 C 
ATOM     49  C49 UNL     1       7.229   4.238   1.944 -0.15 +0.00    +0.022 C 
ATOM     50  C50 UNL     1       6.044   3.367   1.534 -0.09 +0.00    +0.121 C 
ATOM     51  C51 UNL     1       6.521   1.095   2.035 +0.05 +0.00    +0.121 C 
ATOM     52  C52 UNL     1       8.939   6.917   4.924 +2.96 +0.00    +0.241 C 
ATOM     53  C53 UNL     1       9.771   6.203   6.026 -0.09 +0.00    +0.177 C 
ATOM     54  C54 UNL     1       9.277   6.523   7.451 +4.01 +0.00    +0.038 C 
ATOM     55  C55 UNL     1       9.257   7.986   7.945+99.99 -0.00    -0.020 C 
ATOM     56  C56 UNL     1       8.730   8.022   9.386+99.99 +0.00    +0.009 C 
ATOM     57  C57 UNL     1      10.612   8.689   7.891+99.99 +0.00    +0.009 C 
ATOM     58  C58 UNL     1      11.891   5.925   4.789 -0.22 +0.00    +0.236 C 
ATOM     59  C59 UNL     1      13.413   6.082   4.858 -0.08 +0.00    +0.225 C 
ATOM     60  C60 UNL     1      14.028   5.050   6.991 -0.38 +0.00    +0.240 C 
ATOM     61  C61 UNL     1      14.784   5.244   8.325 +0.53 +0.00    +0.176 C 
ATOM     62  C62 UNL     1      16.256   4.841   8.176+99.99 +0.00    +0.036 C 
ATOM     63  C63 UNL     1      17.100   5.930   7.502+99.99 +0.00    +0.022 C 
ATOM     64  C64 UNL     1      18.531   5.473   7.222+91.67 +0.00    +0.121 C 
ATOM     65  C65 UNL     1      20.421   4.767   8.391+99.99 +0.00    +0.121 C 
ATOM     66  C66 UNL     1      12.873   4.747   9.790+24.54 +0.00    +0.246 C 
ATOM     67  C67 UNL     1      12.196   3.624  10.581+65.14 +0.00    +0.368 C 
ATOM     68  O1  UNL     1      17.271  11.726   1.262 -0.38 -0.00    -0.271 OA
ATOM     69  O2  UNL     1      21.366  11.729   1.283 +7.29 -0.00    -0.393 OA
ATOM     70  O3  UNL     1      21.417   8.592   1.741 +1.01 -0.00    -0.271 OA
ATOM     71  O4  UNL     1      20.327   4.957  -0.166+99.99 -0.00    -0.271 OA
ATOM     72  O5  UNL     1      24.043  -0.087   5.951+99.99 -0.00    -0.361 OA
ATOM     73  O6  UNL     1      20.410   4.570   4.443 +1.69 -0.00    -0.271 OA
ATOM     74  O7  UNL     1      17.748   3.386   4.331+47.54 -0.00    -0.398 OA
ATOM     75  O8  UNL     1      17.434   7.291   1.683 +0.23 -0.00    -0.648 OA
ATOM     76  O9  UNL     1      16.215   7.145   3.569 -0.34 -0.00    -0.775 OA
ATOM     77  O10 UNL     1      14.855   9.146   2.850 -0.19 -0.00    -0.271 OA
ATOM     78  O11 UNL     1      13.260  13.019   1.140+70.37 -0.00    -0.271 OA
ATOM     79  O12 UNL     1       8.749  11.450  -0.937+13.49 -0.00    -0.271 OA
ATOM     80  O13 UNL     1      12.281   8.912  -0.226+99.99 -0.00    -0.271 OA
ATOM     81  O14 UNL     1       8.370   7.020   0.287 -0.22 -0.00    -0.271 OA
ATOM     82  O15 UNL     1       8.606   8.098   4.969+69.76 -0.00    -0.271 OA
ATOM     83  O16 UNL     1      11.320   5.506   3.781 -0.18 -0.00    -0.272 OA
ATOM     84  O17 UNL     1      13.526   3.980   6.648 -0.45 -0.00    -0.271 OA
ATOM     85  O18 UNL     1      12.354   5.845   9.604 -0.33 -0.00    -0.272 OA
ATOM     86  N1  UNL     1      18.223   9.743   0.627 -0.18 -0.00    -0.344 N 
ATOM     87  N2  UNL     1      20.288   8.175  -0.192+99.99 -0.00    -0.346 N 
ATOM     88  N3  UNL     1      21.737   5.901   1.358+99.99 -0.00    -0.346 N 
ATOM     89  N4  UNL     1      19.314   5.490   2.686+99.99 -0.00    -0.343 N 
ATOM     90  N5  UNL     1      14.766  10.676   1.161 +8.17 -0.00    -0.346 N 
ATOM     91  N6  UNL     1      12.209  11.391   2.326+43.35 -0.00    -0.337 N 
ATOM     92  N7  UNL     1      10.980  11.350  -0.444+99.99 -0.00    -0.346 N 
ATOM     93  N8  UNL     1      10.189   8.451  -1.017 +0.93 -0.00    -0.346 N 
ATOM     94  N9  UNL     1      10.194   6.921   1.650 -0.13 -0.00    -0.346 N 
ATOM     95  N10 UNL     1       6.527   2.038   1.173 -0.05 -0.00    -0.372 N 
ATOM     96  H10 UNL     1       6.870   1.861   0.229 +0.06 +0.00    +0.161 HD
ATOM     97  N11 UNL     1       6.151   1.096   3.333 -0.22 -0.00    -0.279 NA
ATOM     98  N12 UNL     1       6.940  -0.138   1.678+32.45 -0.00    -0.279 NA
ATOM     99  N13 UNL     1       8.668   6.115   3.830 -0.07 -0.00    -0.346 N 
ATOM    100  N14 UNL     1      11.201   6.442   5.864 -0.10 -0.00    -0.346 N 
ATOM    101  N15 UNL     1      13.924   6.187   6.213 -0.23 -0.00    -0.351 N 
ATOM    102  N16 UNL     1      19.220   5.202   8.477+18.43 -0.00    -0.372 N 
ATOM    103  H16 UNL     1      18.768   5.351   9.379 +0.32 +0.00    +0.161 HD
ATOM    104  N17 UNL     1      21.198   4.538   7.308+14.93 -0.00    -0.279 NA
ATOM    105  N18 UNL     1      21.111   4.486   9.517+99.99 -0.00    -0.279 NA
ATOM    106  N19 UNL     1      14.119   4.402   9.307+41.35 -0.00    -0.346 N 
ATOM    107  N20 UNL     1      12.611   2.305  10.064+95.44 +0.00    +0.087 N 
ATOM    108  H89 UNL     1      21.604  12.636   1.021 +2.95 +0.00    +0.210 HD
ATOM    109  H90 UNL     1      23.877  -0.860   5.386 +1.78 +0.00    +0.217 HD
ATOM    110  H91 UNL     1      18.720   3.490   4.384 +0.32 +0.00    +0.209 HD
ATOM    111  H92 UNL     1      15.764   7.926   3.145 -0.01 +0.00    +0.167 HD
ATOM    112  H93 UNL     1      17.966   8.760   0.762 +0.12 +0.00    +0.163 HD
ATOM    113  H94 UNL     1      19.553   8.498  -0.811 +0.31 +0.00    +0.163 HD
ATOM    114  H95 UNL     1      21.947   6.835   1.725 +4.25 +0.00    +0.163 HD
ATOM    115  H96 UNL     1      19.300   5.546   1.670+99.99 +0.00    +0.163 HD
ATOM    116  H97 UNL     1      14.599  11.674   1.006 +0.05 +0.00    +0.163 HD
ATOM    117  H98 UNL     1      11.763  10.693  -0.389+99.99 +0.00    +0.163 HD
ATOM    118  H99 UNL     1       9.335   7.943  -0.772 +0.08 +0.00    +0.163 HD
ATOM    119  HA0 UNL     1      10.495   6.563   2.556 +0.09 +0.00    +0.163 HD
ATOM    120  HA1 UNL     1       6.086   2.016   3.747 -0.08 +0.00    +0.126 HD
ATOM    121  HA2 UNL     1       6.738   0.489   3.894 -0.15 +0.00    +0.126 HD
ATOM    122  HA3 UNL     1       6.287  -0.857   1.963+34.05 +0.00    +0.126 HD
ATOM    123  HA4 UNL     1       7.074  -0.168   0.671 +0.30 +0.00    +0.126 HD
ATOM    124  HA5 UNL     1       9.279   5.309   3.706 +0.09 +0.00    +0.163 HD
ATOM    125  HA6 UNL     1      11.755   6.487   6.717 +0.13 +0.00    +0.163 HD
ATOM    126  HA7 UNL     1      14.516   6.979   6.433 +0.12 +0.00    +0.163 HD
ATOM    127  HA8 UNL     1      21.715   3.669   7.387+20.64 +0.00    +0.126 HD
ATOM    128  HA9 UNL     1      20.723   4.556   6.404 -0.05 +0.00    +0.126 HD
ATOM    129  HB0 UNL     1      20.602   4.830  10.324+99.99 +0.00    +0.126 HD
ATOM    130  HB1 UNL     1      22.049   4.864   9.491 +0.30 +0.00    +0.126 HD
ATOM    131  HB2 UNL     1      14.258   3.393   9.255 +0.49 +0.00    +0.163 HD
ATOM    132  HB3 UNL     1      12.126   1.582  10.594+39.26 +0.00    +0.313 HD
ATOM    133  HB4 UNL     1      12.279   2.214   9.101 +0.73 +0.00    +0.313 HD
ENDROOT
TORSDOF 51
TER
