USER    Run = 1
USER    DPF = ligand_76_receptor.dpf
USER  
USER    Estimated Free Energy of Binding    =  +8.04e+004 kcal/mol  [=(1)+(2)+(3)-(4)]
USER    
USER    (1) Final Intermolecular Energy     =  +8.04e+004 kcal/mol
USER        vdW + Hbond + desolv Energy     =  +8.04e+004 kcal/mol
USER        Electrostatic Energy            =   +0.00 kcal/mol
USER    (2) Final Total Internal Energy     =   +0.00 kcal/mol
USER    (3) Torsional Free Energy           =   +1.19 kcal/mol
USER    (4) Unbound System's Energy  [=(2)] =   +0.00 kcal/mol
USER    
USER    
USER    NEWDPF move ligand_76.pdbqt
USER    NEWDPF about 0.000000 0.000000 0.000000
USER    NEWDPF tran0 14.621278 5.614602 3.839594
USER    NEWDPF quaternion0 -0.934217 0.220532 -0.260001 0.104897
USER    NEWDPF axisangle0 -0.939400 0.221756 -0.261444 167.957479
USER    NEWDPF quat0 -0.939400 0.221756 -0.261444 167.957479
USER  keepresnum = 1 
USER  
REMARK  0 active torsions:
REMARK  status: ('A' for Active; 'I' for Inactive)
REMARK       I    between atoms: C2_2  and  C3_3 
REMARK       I    between atoms: C3_3  and  C4_4 
REMARK       I    between atoms: C4_4  and  C5_5 
REMARK       I    between atoms: C5_5  and  C6_6 
REMARK       I    between atoms: C6_6  and  C7_7 
REMARK       I    between atoms: C7_7  and  C8_8 
REMARK       I    between atoms: C8_8  and  C9_9 
REMARK       I    between atoms: C9_9  and  C10_10 
REMARK       I    between atoms: C10_10  and  N1_67 
REMARK       I    between atoms: C11_11  and  C12_12 
REMARK       I    between atoms: C11_11  and  N1_67 
REMARK       I    between atoms: C18_18  and  N5_71 
REMARK       I    between atoms: C21_21  and  O5_78 
REMARK       I    between atoms: C22_22  and  O5_78 
REMARK       I    between atoms: C25_25  and  C26_26 
REMARK       I    between atoms: C26_26  and  C27_27 
REMARK       I    between atoms: C27_27  and  C28_28 
REMARK       I    between atoms: C27_27  and  N6_72 
REMARK       I    between atoms: C28_28  and  O6_79 
REMARK       I    between atoms: C31_31  and  O7_80 
REMARK       I    between atoms: C40_40  and  O9_82 
REMARK       I    between atoms: C41_41  and  O9_82 
REMARK       I    between atoms: C42_42  and  C43_43 
REMARK       I    between atoms: C43_43  and  O11_84 
REMARK       I    between atoms: C44_44  and  O12_85 
REMARK       I    between atoms: C45_45  and  O13_86 
REMARK       I    between atoms: C46_46  and  N7_73 
REMARK       I    between atoms: C47_47  and  N7_73 
REMARK       I    between atoms: C52_52  and  O15_88 
REMARK       I    between atoms: C56_56  and  O16_89 
REMARK       I    between atoms: C57_57  and  O16_89 
REMARK       I    between atoms: C58_58  and  C59_59 
REMARK       I    between atoms: C59_59  and  O18_91 
REMARK       I    between atoms: C60_60  and  O19_92 
REMARK       I    between atoms: C61_61  and  O20_93 
REMARK       I    between atoms: C62_62  and  O21_94 
REMARK       I    between atoms: C64_64  and  O22_95 
USER                              x       y       z     vdW  Elec       q    Type
USER                           _______ _______ _______ _____ _____    ______ ____
ROOT
ATOM      1  C1  UNL     1       4.183   5.332  -3.730+99.99 +0.00    +0.005 C 
ATOM      2  C2  UNL     1       4.270   5.687  -2.255+99.99 -0.00    -0.005 C 
ATOM      3  C3  UNL     1       3.920   7.146  -1.956+99.99 -0.00    -0.000 C 
ATOM      4  C4  UNL     1       4.806   8.195  -2.639+99.99 +0.00    +0.000 C 
ATOM      5  C5  UNL     1       6.307   8.084  -2.350+99.99 +0.00    +0.000 C 
ATOM      6  C6  UNL     1       6.648   8.225  -0.864 +0.13 +0.00    +0.000 C 
ATOM      7  C7  UNL     1       8.154   8.337  -0.599 -0.01 +0.00    +0.000 C 
ATOM      8  C8  UNL     1       8.997   7.143  -1.055 -0.41 +0.00    +0.002 C 
ATOM      9  C9  UNL     1       8.595   5.782  -0.474 -0.22 +0.00    +0.020 C 
ATOM     10  C10 UNL     1       8.596   5.707   1.054 -0.16 +0.00    +0.122 C 
ATOM     11  C11 UNL     1      10.910   5.080   1.679+12.72 +0.00    +0.245 C 
ATOM     12  C12 UNL     1      12.275   5.676   2.145 +3.50 +0.00    +0.211 C 
ATOM     13  C13 UNL     1      12.802   4.109   3.960+99.99 +0.00    +0.244 C 
ATOM     14  C14 UNL     1      14.012   3.631   4.788+99.92 +0.00    +0.210 C 
ATOM     15  C15 UNL     1      15.831   5.344   5.022+99.99 +0.00    +0.241 C 
ATOM     16  C16 UNL     1      16.097   6.815   5.483 +3.88 +0.00    +0.188 C 
ATOM     17  C17 UNL     1      18.378   6.642   6.271+99.99 +0.00    +0.236 C 
ATOM     18  C18 UNL     1      19.753   6.140   5.729+99.99 +0.00    +0.336 C 
ATOM     19  C19 UNL     1      20.226   4.894   6.464+10.26 -0.00    -0.011 A 
ATOM     20  C20 UNL     1      21.490   4.856   7.068+76.78 +0.00    +0.050 A 
ATOM     21  C21 UNL     1      21.904   3.722   7.778+99.99 +0.00    +0.112 A 
ATOM     22  C22 UNL     1      24.046   2.782   8.043+99.99 +0.00    +0.098 A 
ATOM     23  C23 UNL     1      24.230   2.343   6.727+99.99 +0.00    +0.039 A 
ATOM     24  C24 UNL     1      25.177   1.355   6.443+19.29 +0.00    +0.010 A 
ATOM     25  C25 UNL     1      25.963   0.806   7.464+99.99 -0.00    -0.054 A 
ATOM     26  C26 UNL     1      26.995  -0.258   7.155+89.74 +0.00    +0.076 C 
ATOM     27  C27 UNL     1      28.399   0.259   6.758+99.99 +0.00    +0.245 C 
ATOM     28  C28 UNL     1      29.091   1.065   7.878+68.13 +0.00    +0.199 C 
ATOM     29  C29 UNL     1      25.783   1.260   8.779+99.99 +0.00    +0.033 A 
ATOM     30  C30 UNL     1      24.838   2.250   9.065+99.99 +0.00    +0.068 A 
ATOM     31  C31 UNL     1      21.035   2.639   7.945+99.99 +0.00    +0.134 A 
ATOM     32  C32 UNL     1      19.769   2.658   7.354+23.94 +0.00    +0.112 A 
ATOM     33  C33 UNL     1      19.394   3.764   6.578+38.35 +0.00    +0.050 A 
ATOM     34  C34 UNL     1      17.618   1.684   7.327+99.86 +0.00    +0.098 A 
ATOM     35  C35 UNL     1      16.850   2.592   8.061+99.99 +0.00    +0.040 A 
ATOM     36  C36 UNL     1      15.538   2.859   7.669+99.99 +0.00    +0.012 A 
ATOM     37  C37 UNL     1      14.963   2.191   6.571+99.99 -0.00    -0.025 A 
ATOM     38  C38 UNL     1      15.707   1.183   5.930+99.99 +0.00    +0.036 A 
ATOM     39  C39 UNL     1      17.032   0.936   6.304 +3.96 +0.00    +0.068 A 
ATOM     40  C40 UNL     1      13.649   2.667   5.946+99.99 +0.00    +0.189 C 
ATOM     41  C41 UNL     1      12.122   2.721   7.822+10.40 +0.00    +0.286 C 
ATOM     42  C42 UNL     1       9.976   2.415   6.836 +5.27 +0.00    +0.179 C 
ATOM     43  C43 UNL     1       9.228   1.481   5.887+99.99 +0.00    +0.198 C 
ATOM     44  C44 UNL     1       9.179   2.781   8.108 -0.29 +0.00    +0.180 C 
ATOM     45  C45 UNL     1      10.132   3.054   9.289+99.99 +0.00    +0.177 C 
ATOM     46  C46 UNL     1      11.424   3.729   8.806 +3.13 +0.00    +0.170 C 
ATOM     47  C47 UNL     1      11.993   6.017   7.866 -0.20 +0.00    +0.214 C 
ATOM     48  C48 UNL     1      11.360   7.327   7.468 +4.63 +0.00    +0.117 C 
ATOM     49  C49 UNL     1      15.206   7.736   4.661 -0.40 -0.00    -0.030 A 
ATOM     50  C50 UNL     1      14.395   8.690   5.284 +0.30 +0.00    +0.012 A 
ATOM     51  C51 UNL     1      13.403   9.353   4.555+11.24 +0.00    +0.038 A 
ATOM     52  C52 UNL     1      13.202   9.047   3.211 +2.14 +0.00    +0.076 A 
ATOM     53  C53 UNL     1      14.000   8.104   2.558 +2.05 +0.00    +0.011 A 
ATOM     54  C54 UNL     1      15.047   7.514   3.281 +0.34 +0.00    +0.024 A 
ATOM     55  C55 UNL     1      13.730   7.605   1.199+13.96 +0.00    +0.019 A 
ATOM     56  C56 UNL     1      14.293   8.258   0.082+37.36 +0.00    +0.086 A 
ATOM     57  C57 UNL     1      14.445  10.559  -0.335+28.61 +0.00    +0.298 C 
ATOM     58  C58 UNL     1      14.087  12.407   1.198+30.95 +0.00    +0.179 C 
ATOM     59  C59 UNL     1      13.220  12.808   2.401+46.80 +0.00    +0.198 C 
ATOM     60  C60 UNL     1      15.555  12.202   1.595 +6.46 +0.00    +0.180 C 
ATOM     61  C61 UNL     1      16.401  12.053   0.320 +1.51 +0.00    +0.183 C 
ATOM     62  C62 UNL     1      15.621  11.423  -0.848+99.99 +0.00    +0.205 C 
ATOM     63  C63 UNL     1      14.208   7.714  -1.200+41.73 +0.00    +0.074 A 
ATOM     64  C64 UNL     1      13.520   6.524  -1.383 +0.99 +0.00    +0.069 A 
ATOM     65  C65 UNL     1      12.915   5.877  -0.311 -0.15 +0.00    +0.047 A 
ATOM     66  C66 UNL     1      12.981   6.411   0.991 +0.89 -0.00    -0.010 A 
ATOM     67  N1  UNL     1       9.890   6.019   1.620 -0.07 -0.00    -0.359 N 
ATOM     68  N2  UNL     1      13.163   4.681   2.741+99.99 -0.00    -0.342 N 
ATOM     69  N3  UNL     1      14.578   4.881   5.321+31.88 -0.00    -0.343 N 
ATOM     70  N4  UNL     1      17.510   7.080   5.281+10.76 -0.00    -0.243 NA
ATOM     71  N5  UNL     1      19.656   5.876   4.269+35.81 +0.00    +0.096 N 
ATOM     72  N6  UNL     1      28.369   1.016   5.492 +6.32 +0.00    +0.085 N 
ATOM     73  N7  UNL     1      11.076   5.070   8.265 -0.16 -0.00    -0.349 N 
ATOM     74  O1  UNL     1      10.757   3.911   1.328+99.99 -0.00    -0.271 OA
ATOM     75  O2  UNL     1      11.643   4.111   4.365 +0.35 -0.00    -0.271 OA
ATOM     76  O3  UNL     1      16.623   4.705   4.327+99.99 -0.00    -0.271 OA
ATOM     77  O4  UNL     1      18.066   6.617   7.459+75.60 -0.00    -0.277 OA
ATOM     78  O5  UNL     1      23.152   3.785   8.358+99.99 -0.00    -0.306 OA
ATOM     79  O6  UNL     1      29.190   0.291   9.069+12.30 -0.00    -0.399 OA
ATOM     80  O7  UNL     1      21.413   1.565   8.708+12.05 -0.00    -0.356 OA
ATOM     81  O8  UNL     1      18.965   1.552   7.589 +2.67 -0.00    -0.306 OA
ATOM     82  O9  UNL     1      12.874   3.430   6.865 +0.18 -0.00    -0.347 OA
ATOM     83  O10 UNL     1      11.215   1.803   7.198+20.81 -0.00    -0.349 OA
ATOM     84  O11 UNL     1       7.946   2.008   5.561+99.99 -0.00    -0.398 OA
ATOM     85  O12 UNL     1       8.259   1.767   8.536 +1.00 -0.00    -0.390 OA
ATOM     86  O13 UNL     1       9.456   3.892  10.244+99.99 -0.00    -0.391 OA
ATOM     87  O14 UNL     1      13.208   5.858   7.792 -0.33 -0.00    -0.274 OA
ATOM     88  O15 UNL     1      12.176   9.683   2.570+42.36 -0.00    -0.360 OA
ATOM     89  O16 UNL     1      15.031   9.400   0.289 +8.04 -0.00    -0.317 OA
ATOM     90  O17 UNL     1      13.563  11.207   0.603+28.61 -0.00    -0.348 OA
ATOM     91  O18 UNL     1      13.535  14.115   2.867+99.99 -0.00    -0.398 OA
ATOM     92  O19 UNL     1      16.065  13.285   2.382+49.87 -0.00    -0.390 OA
ATOM     93  O20 UNL     1      17.578  11.294   0.631 -0.24 -0.00    -0.390 OA
ATOM     94  O21 UNL     1      15.122  12.446  -1.721+99.99 -0.00    -0.388 OA
ATOM     95  O22 UNL     1      13.412   5.944  -2.611 +1.06 -0.00    -0.361 OA
ATOM     96 CL1  UNL     1      24.689   2.791  10.699+99.99 -0.00    -0.081 Cl
ATOM     97 CL2  UNL     1      17.936  -0.235   5.418+35.64 -0.00    -0.081 Cl
ATOM     98  H62 UNL     1      10.106   6.990   1.816 +0.09 +0.00    +0.162 HD
ATOM     99  H63 UNL     1      14.154   4.833   2.611+76.68 +0.00    +0.163 HD
ATOM    100  H64 UNL     1      14.040   5.324   6.073 +0.11 +0.00    +0.163 HD
ATOM    101  H65 UNL     1      17.872   6.877   4.351 +0.46 +0.00    +0.131 HD
ATOM    102  H66 UNL     1      19.021   5.082   4.135+43.15 +0.00    +0.314 HD
ATOM    103  H67 UNL     1      20.567   5.535   3.958 +0.37 +0.00    +0.314 HD
ATOM    104  H68 UNL     1      27.830   1.873   5.629 +0.13 +0.00    +0.313 HD
ATOM    105  H69 UNL     1      29.314   1.311   5.249 +0.38 +0.00    +0.313 HD
ATOM    106  H70 UNL     1      10.222   5.446   8.666 +0.13 +0.00    +0.163 HD
ATOM    107  H71 UNL     1      29.631   0.849   9.734 +1.21 +0.00    +0.209 HD
ATOM    108  H72 UNL     1      20.673   0.932   8.694 +1.79 +0.00    +0.218 HD
ATOM    109  H73 UNL     1       8.084   2.608   4.803 -0.33 +0.00    +0.209 HD
ATOM    110  H74 UNL     1       7.634   1.633   7.793 +5.64 +0.00    +0.210 HD
ATOM    111  H75 UNL     1       8.653   3.392  10.495 +1.11 +0.00    +0.210 HD
ATOM    112  H76 UNL     1      12.502   9.932   1.680+85.94 +0.00    +0.217 HD
ATOM    113  H77 UNL     1      14.511  14.140   2.977+99.99 +0.00    +0.209 HD
ATOM    114  H78 UNL     1      17.021  13.109   2.500 +0.18 +0.00    +0.210 HD
ATOM    115  H79 UNL     1      17.303  10.395   0.894 +0.18 +0.00    +0.210 HD
ATOM    116  H80 UNL     1      15.890  12.920  -2.091+99.99 +0.00    +0.210 HD
ATOM    117  H81 UNL     1      13.889   6.477  -3.268 -0.01 +0.00    +0.217 HD
ENDROOT
TORSDOF 35
TER
