USER    Run = 1
USER    DPF = ligand_322_receptor.dpf
USER  
USER    Estimated Free Energy of Binding    =   -2.20 kcal/mol  [=(1)+(2)+(3)-(4)]
USER    Estimated Inhibition Constant, Ki   =   24.30 mM (millimolar)  [Temperature = 298.15 K]
USER    
USER    (1) Final Intermolecular Energy     =   -3.40 kcal/mol
USER        vdW + Hbond + desolv Energy     =   -3.40 kcal/mol
USER        Electrostatic Energy            =   +0.00 kcal/mol
USER    (2) Final Total Internal Energy     =   -1.88 kcal/mol
USER    (3) Torsional Free Energy           =   +1.19 kcal/mol
USER    (4) Unbound System's Energy  [=(2)] =   -1.88 kcal/mol
USER    
USER    
USER    NEWDPF move ligand_322.pdbqt
USER    NEWDPF about 0.000000 0.000000 0.000000
USER    NEWDPF tran0 9.753867 2.549707 3.598359
USER    NEWDPF quaternion0 -0.129282 0.502712 0.830547 -0.201886
USER    NEWDPF axisangle0 -0.132000 0.513281 0.848009 -156.705518
USER    NEWDPF quat0 -0.132000 0.513281 0.848009 -156.705518
USER    NEWDPF dihe0 -120.57 -180.00 -174.15 -26.87 170.33 -61.87 169.46 -178.51 -180.00 -35.75 -35.75 -116.48 -179.96 -71.30 179.55 -8.66 61.23 -76.47 -74.86 12.45 -11.91 180.00 -69.42 79.16 86.00 180.00 180.00 
USER  keepresnum = 1 
USER  
REMARK  27 active torsions:
REMARK  status: ('A' for Active; 'I' for Inactive)
REMARK    1  A    between atoms: C2_2  and  C3_3 
REMARK    2  A    between atoms: C2_2  and  N11_69 
REMARK       I    between atoms: C3_3  and  N1_55 
REMARK    3  A    between atoms: C4_4  and  N1_55 
REMARK    4  A    between atoms: C6_6  and  O6_50 
REMARK    5  A    between atoms: C7_7  and  C10_10 
REMARK       I    between atoms: C10_10  and  N2_56 
REMARK    6  A    between atoms: C11_11  and  C12_12 
REMARK    7  A    between atoms: C11_11  and  N2_56 
REMARK    8  A    between atoms: C12_12  and  C13_13 
REMARK    9  A    between atoms: C13_13  and  C14_14 
REMARK   10  A    between atoms: C14_14  and  C15_15 
REMARK   11  A    between atoms: C14_14  and  N3_57 
REMARK   12  A    between atoms: C15_15  and  O4_48 
REMARK   13  A    between atoms: C16_16  and  C17_17 
REMARK       I    between atoms: C16_16  and  N3_57 
REMARK   14  A    between atoms: C20_20  and  N4_58 
REMARK   15  A    between atoms: C23_23  and  C24_24 
REMARK   16  A    between atoms: C23_23  and  N4_58 
REMARK   17  A    between atoms: C28_28  and  N10_68 
REMARK   18  A    between atoms: C29_29  and  N9_67 
REMARK   19  A    between atoms: C30_30  and  C31_31 
REMARK       I    between atoms: C30_30  and  N11_69 
REMARK   20  A    between atoms: C31_31  and  C32_32 
REMARK   21  A    between atoms: C31_31  and  N12_70 
REMARK   22  A    between atoms: C35_35  and  C36_36 
REMARK       I    between atoms: C35_35  and  N12_70 
REMARK   23  A    between atoms: C36_36  and  C37_37 
REMARK   24  A    between atoms: C37_37  and  C38_38 
REMARK   25  A    between atoms: C38_38  and  C39_39 
REMARK   26  A    between atoms: C39_39  and  C40_40 
REMARK   27  A    between atoms: C40_40  and  N13_71 
USER                              x       y       z     vdW  Elec       q    Type
USER                           _______ _______ _______ _____ _____    ______ ____
ROOT
ATOM      1  C10 UNL     1      12.608   6.794   4.418 -0.28 +0.00    +0.254 C 
ATOM      2  O2  UNL     1      13.347   5.888   4.045 +0.48 -0.00    -0.268 OA
ATOM      3  N2  UNL     1      13.063   7.878   5.127 -0.16 -0.00    -0.357 N 
ATOM      4  H45 UNL     1      12.374   8.567   5.421 +0.12 +0.00    +0.162 HD
ENDROOT
BRANCH   3   5
ATOM      5  C11 UNL     1      14.449   8.069   5.491 +0.43 +0.00    +0.123 C 
BRANCH   5   6
ATOM      6  C12 UNL     1      15.262   8.684   4.353 -0.43 +0.00    +0.022 C 
BRANCH   6   7
ATOM      7  C13 UNL     1      16.259   7.735   3.673 -0.51 +0.00    +0.038 C 
BRANCH   7   8
ATOM      8  C14 UNL     1      16.542   8.025   2.192 -0.14 +0.00    +0.182 C 
BRANCH   8   9
ATOM      9  C15 UNL     1      15.650   9.164   1.694 +0.36 +0.00    +0.163 C 
ATOM     10  O3  UNL     1      15.120  10.024   2.385 +0.25 -0.00    -0.648 OA
BRANCH   9  11
ATOM     11  O4  UNL     1      15.429   9.130   0.364 +0.75 -0.00    -0.775 OA
ATOM     12  H42 UNL     1      14.944   8.289   0.229 -0.40 +0.00    +0.167 HD
ENDBRANCH   9  11
ENDBRANCH   8   9
BRANCH   8  13
ATOM     13  N3  UNL     1      17.934   8.465   2.036 -0.07 -0.00    -0.343 N 
ATOM     14  C16 UNL     1      18.630   8.949   3.126 -0.34 +0.00    +0.252 C 
ATOM     15  O5  UNL     1      18.132   9.111   4.233 -0.33 -0.00    -0.268 OA
ATOM     16  H46 UNL     1      18.479   7.974   1.340 +0.58 +0.00    +0.163 HD
BRANCH  14  17
ATOM     17  C17 UNL     1      20.078   9.218   2.910 -0.25 +0.00    +0.032 A 
ATOM     18  C18 UNL     1      20.558   9.792   1.731 -0.31 +0.00    +0.019 A 
ATOM     19  C19 UNL     1      21.930  10.029   1.578 -0.25 +0.00    +0.024 A 
ATOM     20  C20 UNL     1      22.848   9.731   2.598 -0.36 +0.00    +0.008 A 
ATOM     21  C21 UNL     1      22.351   9.134   3.762 +0.02 +0.00    +0.024 A 
ATOM     22  C22 UNL     1      20.979   8.897   3.927 +1.23 +0.00    +0.019 A 
BRANCH  20  23
ATOM     23  N4  UNL     1      24.207   9.933   2.337 -0.23 -0.00    -0.287 NA
ATOM     24  H47 UNL     1      24.509  10.844   2.678 +0.11 +0.00    +0.128 HD
BRANCH  23  25
ATOM     25  C23 UNL     1      25.192   8.888   2.614 -0.51 +0.00    +0.151 C 
BRANCH  25  26
ATOM     26  C24 UNL     1      25.150   7.750   1.620 -0.40 +0.00    +0.038 A 
ATOM     27  C25 UNL     1      23.987   7.432   0.940 -0.35 +0.00    +0.116 A 
ATOM     28  N5  UNL     1      23.921   6.447   0.009 -0.23 -0.00    -0.348 N 
ATOM     29  C26 UNL     1      25.032   5.749  -0.249 -0.37 +0.00    +0.138 A 
ATOM     30  H5  UNL     1      23.049   6.245  -0.479 +0.10 +0.00    +0.167 HD
ATOM     31  C27 UNL     1      26.211   6.064   0.439 -0.29 +0.00    +0.116 A 
ATOM     32  N8  UNL     1      24.957   4.782  -1.157 -0.27 -0.00    -0.317 N 
ATOM     33  C28 UNL     1      27.294   5.265   0.092 -0.24 +0.00    +0.111 A 
ATOM     34  N6  UNL     1      26.292   7.065   1.370 -0.14 -0.00    -0.352 N 
ATOM     35  N7  UNL     1      27.234   4.286  -0.822 -0.15 -0.00    -0.322 N 
ATOM     36  C29 UNL     1      26.064   4.098  -1.421 -0.31 +0.00    +0.157 A 
ATOM     37  H7  UNL     1      28.047   3.712  -1.045 +0.08 +0.00    +0.169 HD
ATOM     38  H6  UNL     1      27.166   7.285   1.849 +0.11 +0.00    +0.166 HD
ATOM     39  H8  UNL     1      24.081   4.573  -1.635 +0.12 +0.00    +0.170 HD
BRANCH  33  40
ATOM     40  N10 UNL     1      28.549   5.468   0.726 +0.01 -0.00    -0.287 NA
ATOM     41  H50 UNL     1      28.870   4.561   1.064 +0.05 +0.00    +0.125 HD
ATOM     42  H51 UNL     1      29.218   5.733   0.005 +0.06 +0.00    +0.125 HD
ENDBRANCH  33  40
BRANCH  36  43
ATOM     43  N9  UNL     1      25.985   3.092  -2.359 -0.31 -0.00    -0.274 NA
ATOM     44  H48 UNL     1      25.212   2.474  -2.152 +0.09 +0.00    +0.127 HD
ATOM     45  H49 UNL     1      26.895   2.675  -2.500 +0.04 +0.00    +0.127 HD
ENDBRANCH  36  43
ENDBRANCH  25  26
ENDBRANCH  23  25
ENDBRANCH  20  23
ENDBRANCH  14  17
ENDBRANCH   8  13
ENDBRANCH   7   8
ENDBRANCH   6   7
ENDBRANCH   5   6
ENDBRANCH   3   5
BRANCH   1  46
ATOM     46  C7  UNL     1      11.143   6.743   4.111 -0.30 +0.00    +0.065 A 
ATOM     47  C6  UNL     1      10.503   7.508   3.125 -0.32 +0.00    +0.083 A 
ATOM     48  C5  UNL     1       9.122   7.393   2.911 -0.33 +0.00    +0.067 A 
ATOM     49  C4  UNL     1       8.356   6.509   3.674 -0.22 +0.00    +0.037 A 
ATOM     50  C9  UNL     1       8.987   5.742   4.657 -0.23 +0.00    +0.030 A 
ATOM     51  C8  UNL     1      10.365   5.859   4.875 -0.27 +0.00    +0.022 A 
BRANCH  47  52
ATOM     52  O6  UNL     1      11.211   8.389   2.346 +3.99 -0.00    -0.360 OA
ATOM     53  H43 UNL     1      12.144   8.375   2.629 -0.13 +0.00    +0.217 HD
ENDBRANCH  47  52
BRANCH  49  54
ATOM     54  N1  UNL     1       6.967   6.339   3.521 -0.05 -0.00    -0.325 N 
ATOM     55  C3  UNL     1       6.079   7.122   2.796 +0.28 +0.00    +0.244 C 
ATOM     56  O1  UNL     1       6.379   8.085   2.096 -0.36 -0.00    -0.271 OA
ATOM     57  H44 UNL     1       6.547   5.545   3.994 +0.08 +0.00    +0.169 HD
BRANCH  55  58
ATOM     58  C2  UNL     1       4.644   6.556   2.857 -0.18 +0.00    +0.172 C 
ATOM     59  C1  UNL     1       3.852   7.124   4.028 +0.19 +0.00    +0.042 C 
BRANCH  58  60
ATOM     60  N11 UNL     1       4.695   5.091   2.928 -0.06 -0.00    -0.346 N 
ATOM     61  C30 UNL     1       3.865   4.389   3.778 -0.08 +0.00    +0.241 C 
ATOM     62  O7  UNL     1       2.927   4.913   4.373 -0.06 -0.00    -0.271 OA
ATOM     63  H52 UNL     1       5.572   4.656   2.661 +0.06 +0.00    +0.163 HD
BRANCH  61  64
ATOM     64  C31 UNL     1       4.154   2.872   3.844 -0.14 +0.00    +0.180 C 
BRANCH  64  65
ATOM     65  C32 UNL     1       4.882   2.504   5.158 -0.04 +0.00    +0.009 C 
ATOM     66  C33 UNL     1       5.511   3.747   5.795 -0.34 +0.00    +0.012 C 
ATOM     67  C34 UNL     1       3.984   1.795   6.177 +0.25 +0.00    +0.012 C 
ENDBRANCH  64  65
BRANCH  64  68
ATOM     68  N12 UNL     1       4.904   2.490   2.653 -0.04 -0.00    -0.347 N 
ATOM     69  C35 UNL     1       6.286   2.498   2.685 -0.18 +0.00    +0.218 C 
ATOM     70  O8  UNL     1       6.931   2.978   3.609 -0.18 -0.00    -0.274 OA
ATOM     71  H53 UNL     1       4.492   1.744   2.099 +0.06 +0.00    +0.163 HD
BRANCH  69  72
ATOM     72  C36 UNL     1       6.908   1.889   1.442 -0.21 +0.00    +0.103 C 
BRANCH  72  73
ATOM     73  C37 UNL     1       6.717   2.774   0.211 -0.12 +0.00    +0.009 C 
BRANCH  73  74
ATOM     74  C38 UNL     1       7.826   2.628  -0.835 -0.12 +0.00    +0.002 C 
BRANCH  74  75
ATOM     75  C39 UNL     1       9.015   3.581  -0.687 -0.16 +0.00    +0.020 C 
BRANCH  75  76
ATOM     76  C40 UNL     1      10.357   2.866  -0.522 +0.10 +0.00    +0.135 C 
BRANCH  76  77
ATOM     77  N13 UNL     1      10.197   1.428  -0.593 -0.13 -0.00    -0.281 N 
ATOM     78  C41 UNL     1      10.270   0.704  -1.738 -0.13 +0.00    +0.250 A 
ATOM     79  C42 UNL     1      10.119  -0.707  -1.366 -0.27 +0.00    +0.080 A 
ATOM     80  O9  UNL     1      10.455   1.091  -2.878 -0.42 -0.00    -0.268 OA
ATOM     81  C43 UNL     1      10.010  -0.766  -0.039 -0.12 +0.00    +0.080 A 
ATOM     82  C44 UNL     1      10.089   0.605   0.479 -0.23 +0.00    +0.250 A 
ATOM     83  O10 UNL     1      10.072   0.884   1.663 -0.35 -0.00    -0.268 OA
ENDBRANCH  76  77
ENDBRANCH  75  76
ENDBRANCH  74  75
ENDBRANCH  73  74
ENDBRANCH  72  73
ENDBRANCH  69  72
ENDBRANCH  64  68
ENDBRANCH  61  64
ENDBRANCH  58  60
ENDBRANCH  55  58
ENDBRANCH  49  54
ENDBRANCH   1  46
TORSDOF 27
TER
