USER    Run = 1
USER    DPF = ligand_187_receptor.dpf
USER  
USER    Estimated Free Energy of Binding    = +144.87 kcal/mol  [=(1)+(2)+(3)-(4)]
USER    
USER    (1) Final Intermolecular Energy     = +143.68 kcal/mol
USER        vdW + Hbond + desolv Energy     = +143.68 kcal/mol
USER        Electrostatic Energy            =   +0.00 kcal/mol
USER    (2) Final Total Internal Energy     =  +35.65 kcal/mol
USER    (3) Torsional Free Energy           =   +1.19 kcal/mol
USER    (4) Unbound System's Energy  [=(2)] =  +35.65 kcal/mol
USER    
USER    
USER    NEWDPF move ligand_187.pdbqt
USER    NEWDPF about 0.000000 0.000000 0.000000
USER    NEWDPF tran0 16.215723 10.086694 2.307520
USER    NEWDPF quaternion0 -0.006910 -0.495794 0.792154 0.355855
USER    NEWDPF axisangle0 -0.007394 -0.530521 0.847639 138.308339
USER    NEWDPF quat0 -0.007394 -0.530521 0.847639 138.308339
USER    NEWDPF dihe0 180.00 -50.73 -131.11 -119.44 73.39 111.59 104.55 154.38 -179.55 49.94 -41.13 -20.55 -179.28 91.69 114.50 -90.94 -15.29 -126.85 131.41 -56.22 -44.38 -180.00 46.48 91.33 -111.54 -86.43 
USER  keepresnum = 1 
USER  
REMARK  26 active torsions:
REMARK  status: ('A' for Active; 'I' for Inactive)
REMARK    1  A    between atoms: C2_2  and  C5_5 
REMARK    2  A    between atoms: C7_7  and  N8_54 
REMARK    3  A    between atoms: C8_8  and  S1_73 
REMARK    4  A    between atoms: C9_9  and  N1_45 
REMARK    5  A    between atoms: C11_11  and  C12_12 
REMARK       I    between atoms: C11_11  and  N1_45 
REMARK    6  A    between atoms: C12_12  and  C13_13 
REMARK    7  A    between atoms: C13_13  and  C14_14 
REMARK    8  A    between atoms: C14_14  and  C15_15 
REMARK    9  A    between atoms: C15_15  and  N2_46 
REMARK       I    between atoms: C16_16  and  N3_48 
REMARK       I    between atoms: C16_16  and  N4_49 
REMARK   10  A    between atoms: C17_17  and  C18_18 
REMARK   11  A    between atoms: C17_17  and  S1_73 
REMARK   12  A    between atoms: C18_18  and  N5_50 
REMARK       I    between atoms: C19_19  and  N6_52 
REMARK       I    between atoms: C19_19  and  N7_53 
REMARK   13  A    between atoms: C20_20  and  C21_21 
REMARK       I    between atoms: C20_20  and  N8_54 
REMARK   14  A    between atoms: C23_23  and  C25_25 
REMARK       I    between atoms: C25_25  and  N11_59 
REMARK   15  A    between atoms: C26_26  and  N11_59 
REMARK   16  A    between atoms: C27_27  and  S2_74 
REMARK   17  A    between atoms: C28_28  and  N12_60 
REMARK   18  A    between atoms: C30_30  and  C32_32 
REMARK   19  A    between atoms: C36_36  and  C37_37 
REMARK       I    between atoms: C36_36  and  N12_60 
REMARK   20  A    between atoms: C37_37  and  C38_38 
REMARK   21  A    between atoms: C38_38  and  C39_39 
REMARK   22  A    between atoms: C39_39  and  C40_40 
REMARK   23  A    between atoms: C40_40  and  N13_61 
REMARK       I    between atoms: C41_41  and  N14_63 
REMARK       I    between atoms: C41_41  and  N15_64 
REMARK   24  A    between atoms: C42_42  and  C43_43 
REMARK   25  A    between atoms: C42_42  and  S2_74 
REMARK   26  A    between atoms: C43_43  and  N16_65 
REMARK       I    between atoms: C44_44  and  N17_67 
REMARK       I    between atoms: C44_44  and  N18_68 
USER                              x       y       z     vdW  Elec       q    Type
USER                           _______ _______ _______ _____ _____    ______ ____
ROOT
ATOM      1  C21 UNL     1      16.258   9.475   4.100 -0.26 +0.00    +0.104 A 
ATOM      2  C22 UNL     1      15.625   8.278   4.329 -0.40 +0.00    +0.070 A 
ATOM      3  C23 UNL     1      14.468   8.100   3.612 -0.40 +0.00    +0.104 A 
ATOM      4  C24 UNL     1      14.659  10.146   2.616 +4.59 +0.00    +0.181 A 
ATOM      5  N9  UNL     1      13.962   9.017   2.749 +5.67 -0.00    -0.348 N 
ATOM      6  H9  UNL     1      13.097   8.853   2.232 +2.91 +0.00    +0.167 HD
ATOM      7  N10 UNL     1      15.802  10.432   3.247 +0.17 -0.00    -0.348 N 
ATOM      8  H10 UNL     1      16.299  11.310   3.100 +0.13 +0.00    +0.167 HD
ENDROOT
BRANCH   1   9
ATOM      9  C20 UNL     1      17.546   9.786   4.803 +0.56 +0.00    +0.272 C 
ATOM     10  N8  UNL     1      18.595   8.998   4.379 +0.17 -0.00    -0.320 N 
ATOM     11  H58 UNL     1      18.364   8.322   3.650 +0.11 +0.00    +0.169 HD
ATOM     12  O2  UNL     1      17.575  10.666   5.654 +1.32 -0.00    -0.266 OA
BRANCH  10  13
ATOM     13  C7  UNL     1      19.935   8.974   4.824+22.48 +0.00    +0.054 A 
ATOM     14  C6  UNL     1      20.280   8.932   6.177+42.60 +0.00    +0.039 A 
ATOM     15  C5  UNL     1      21.624   8.891   6.605 +9.79 -0.00    -0.046 A 
ATOM     16  C10 UNL     1      22.624   8.890   5.616+14.19 +0.00    +0.039 A 
ATOM     17  C9  UNL     1      22.316   8.936   4.251 +3.22 +0.00    +0.054 A 
ATOM     18  C8  UNL     1      20.961   8.987   3.855 +1.07 +0.00    +0.054 A 
BRANCH  15  19
ATOM     19  C2  UNL     1      21.947   8.843   8.111 +1.16 -0.00    -0.024 C 
ATOM     20  C1  UNL     1      20.700   8.838   9.025 +1.98 +0.00    +0.019 C 
ATOM     21  C3  UNL     1      22.746   7.559   8.429+14.98 +0.00    +0.019 C 
ATOM     22  C4  UNL     1      22.790  10.077   8.501 +9.91 +0.00    +0.019 C 
ENDBRANCH  15  19
BRANCH  17  23
ATOM     23  N1  UNL     1      23.309   8.939   3.237 -0.24 -0.00    -0.326 N 
ATOM     24  C11 UNL     1      24.480   9.670   3.176 -0.49 +0.00    +0.222 C 
ATOM     25  O1  UNL     1      24.893  10.461   4.017 -0.06 -0.00    -0.273 OA
ATOM     26  H49 UNL     1      23.109   8.324   2.448 +0.12 +0.00    +0.169 HD
BRANCH  24  27
ATOM     27  C12 UNL     1      25.226   9.404   1.877 -0.47 +0.00    +0.103 C 
BRANCH  27  28
ATOM     28  C13 UNL     1      25.223   7.938   1.448 -0.49 +0.00    +0.011 C 
BRANCH  28  29
ATOM     29  C14 UNL     1      26.157   7.679   0.260 -0.43 +0.00    +0.020 C 
BRANCH  29  30
ATOM     30  C15 UNL     1      26.932   6.370   0.406 -0.30 +0.00    +0.121 C 
BRANCH  30  31
ATOM     31  N2  UNL     1      26.071   5.371   1.037 -0.07 -0.00    -0.372 N 
ATOM     32  C16 UNL     1      24.870   5.264   0.612 -0.49 +0.00    +0.121 C 
ATOM     33  N3  UNL     1      24.034   4.368   1.179 -0.35 -0.00    -0.279 NA
ATOM     34  N4  UNL     1      24.228   5.939  -0.366 -0.29 -0.00    -0.279 NA
ATOM     35  H50 UNL     1      23.135   4.778   1.404 +0.08 +0.00    +0.126 HD
ATOM     36  H51 UNL     1      24.466   3.984   2.014 +0.09 +0.00    +0.126 HD
ATOM     37  H52 UNL     1      23.604   5.340  -0.895 +0.08 +0.00    +0.126 HD
ATOM     38  H53 UNL     1      24.841   6.453  -0.986 +0.09 +0.00    +0.126 HD
ATOM     39  H2  UNL     1      26.419   4.779   1.791 +0.25 +0.00    +0.161 HD
ENDBRANCH  30  31
ENDBRANCH  29  30
ENDBRANCH  28  29
ENDBRANCH  27  28
ENDBRANCH  24  27
ENDBRANCH  17  23
BRANCH  18  40
ATOM     40  S1  UNL     1      20.530   9.053   2.096 +1.61 -0.00    -0.124 SA
BRANCH  40  41
ATOM     41  C17 UNL     1      18.760   9.504   2.255 -0.37 +0.00    +0.099 C 
BRANCH  41  42
ATOM     42  C18 UNL     1      18.408  10.666   1.323 -0.46 +0.00    +0.132 C 
BRANCH  42  43
ATOM     43  N5  UNL     1      18.044  10.155  -0.006 -0.18 -0.00    -0.371 N 
ATOM     44  C19 UNL     1      17.033   9.373  -0.074 -0.45 +0.00    +0.121 C 
ATOM     45  N6  UNL     1      16.631   8.870  -1.260 -0.11 -0.00    -0.279 NA
ATOM     46  N7  UNL     1      16.219   8.918   0.905 -0.30 -0.00    -0.279 NA
ATOM     47  H54 UNL     1      15.628   8.937  -1.391 +0.21 +0.00    +0.126 HD
ATOM     48  H55 UNL     1      17.115   9.317  -2.029 +0.09 +0.00    +0.126 HD
ATOM     49  H56 UNL     1      16.577   9.029   1.844 +0.09 +0.00    +0.126 HD
ATOM     50  H57 UNL     1      15.926   7.962   0.744 -0.30 +0.00    +0.126 HD
ATOM     51  H5  UNL     1      18.575  10.413  -0.839 +0.15 +0.00    +0.161 HD
ENDBRANCH  42  43
ENDBRANCH  41  42
ENDBRANCH  40  41
ENDBRANCH  18  40
ENDBRANCH  10  13
ENDBRANCH   1   9
BRANCH   3  52
ATOM     52  C25 UNL     1      13.682   6.832   3.760 -0.14 +0.00    +0.272 C 
ATOM     53  N11 UNL     1      12.556   6.984   4.539 -0.18 -0.00    -0.320 N 
ATOM     54  H59 UNL     1      12.371   7.943   4.845 +0.12 +0.00    +0.169 HD
ATOM     55  O3  UNL     1      14.070   5.811   3.205+10.02 -0.00    -0.266 OA
BRANCH  53  56
ATOM     56  C26 UNL     1      11.581   6.033   4.908 -0.29 +0.00    +0.054 A 
ATOM     57  C27 UNL     1      10.528   5.781   4.003 -0.24 +0.00    +0.054 A 
ATOM     58  C28 UNL     1       9.531   4.834   4.320 -0.24 +0.00    +0.054 A 
ATOM     59  C29 UNL     1       9.605   4.150   5.535 -0.36 +0.00    +0.039 A 
ATOM     60  C30 UNL     1      10.646   4.381   6.460 -0.39 -0.00    -0.046 A 
ATOM     61  C31 UNL     1      11.625   5.333   6.119 -0.35 +0.00    +0.039 A 
BRANCH  57  62
ATOM     62  S2  UNL     1      10.451   6.701   2.441 -0.40 -0.00    -0.124 SA
BRANCH  62  63
ATOM     63  C42 UNL     1      11.511   5.634   1.395 +1.04 +0.00    +0.099 C 
BRANCH  63  64
ATOM     64  C43 UNL     1      10.794   4.904   0.260 +1.18 +0.00    +0.132 C 
BRANCH  64  65
ATOM     65  N16 UNL     1      11.331   5.266  -1.053 -0.11 -0.00    -0.371 N 
ATOM     66  C44 UNL     1      12.103   6.279  -1.154 -0.40 +0.00    +0.121 C 
ATOM     67  N17 UNL     1      12.591   7.118  -0.214 -0.13 -0.00    -0.279 NA
ATOM     68  N18 UNL     1      12.542   6.656  -2.375 +0.05 -0.00    -0.279 NA
ATOM     69  H65 UNL     1      13.528   7.435  -0.433 -0.10 +0.00    +0.126 HD
ATOM     70  H66 UNL     1      12.548   6.776   0.744 +0.03 +0.00    +0.126 HD
ATOM     71  H67 UNL     1      12.433   7.653  -2.523 +0.13 +0.00    +0.126 HD
ATOM     72  H68 UNL     1      12.016   6.149  -3.081 +0.06 +0.00    +0.126 HD
ATOM     73  H16 UNL     1      11.091   4.717  -1.878 +0.08 +0.00    +0.161 HD
ENDBRANCH  64  65
ENDBRANCH  63  64
ENDBRANCH  62  63
ENDBRANCH  57  62
BRANCH  58  74
ATOM     74  N12 UNL     1       8.511   4.604   3.368 -0.06 -0.00    -0.326 N 
ATOM     75  C36 UNL     1       8.304   5.210   2.146 -0.10 +0.00    +0.222 C 
ATOM     76  O4  UNL     1       9.048   6.002   1.579 -0.12 -0.00    -0.273 OA
ATOM     77  H60 UNL     1       7.835   3.902   3.653 +0.08 +0.00    +0.169 HD
BRANCH  75  78
ATOM     78  C37 UNL     1       6.959   4.834   1.552 -0.12 +0.00    +0.103 C 
BRANCH  78  79
ATOM     79  C38 UNL     1       5.969   4.516   2.673 -0.16 +0.00    +0.011 C 
BRANCH  79  80
ATOM     80  C39 UNL     1       5.571   5.746   3.495 -0.21 +0.00    +0.020 C 
BRANCH  80  81
ATOM     81  C40 UNL     1       4.396   5.504   4.448 -0.17 +0.00    +0.121 C 
BRANCH  81  82
ATOM     82  N13 UNL     1       4.863   5.653   5.826 -0.10 -0.00    -0.372 N 
ATOM     83  C41 UNL     1       5.424   4.658   6.397 -0.39 +0.00    +0.121 C 
ATOM     84  N14 UNL     1       5.811   4.762   7.691 -0.01 -0.00    -0.279 NA
ATOM     85  N15 UNL     1       5.716   3.430   5.919 -0.20 -0.00    -0.279 NA
ATOM     86  H61 UNL     1       5.488   3.960   8.225 +0.21 +0.00    +0.126 HD
ATOM     87  H62 UNL     1       5.386   5.603   8.081 +0.05 +0.00    +0.126 HD
ATOM     88  H63 UNL     1       5.661   3.347   4.911 -0.05 +0.00    +0.126 HD
ATOM     89  H64 UNL     1       6.596   3.064   6.260 -0.37 +0.00    +0.126 HD
ATOM     90  H13 UNL     1       4.742   6.536   6.322 +0.07 +0.00    +0.161 HD
ENDBRANCH  81  82
ENDBRANCH  80  81
ENDBRANCH  79  80
ENDBRANCH  78  79
ENDBRANCH  75  78
ENDBRANCH  58  74
BRANCH  60  91
ATOM     91  C32 UNL     1      10.679   3.599   7.788 -0.46 -0.00    -0.024 C 
ATOM     92  C33 UNL     1       9.617   2.478   7.757 +0.53 +0.00    +0.019 C 
ATOM     93  C34 UNL     1      10.376   4.555   8.962 +1.49 +0.00    +0.019 C 
ATOM     94  C35 UNL     1      12.038   2.927   8.088 +1.46 +0.00    +0.019 C 
ENDBRANCH  60  91
ENDBRANCH  53  56
ENDBRANCH   3  52
TORSDOF 26
TER
