USER    Run = 1
USER    DPF = ligand_135_receptor.dpf
USER  
USER    Estimated Free Energy of Binding    = +192.80 kcal/mol  [=(1)+(2)+(3)-(4)]
USER    
USER    (1) Final Intermolecular Energy     = +191.60 kcal/mol
USER        vdW + Hbond + desolv Energy     = +191.60 kcal/mol
USER        Electrostatic Energy            =   +0.00 kcal/mol
USER    (2) Final Total Internal Energy     =   +2.73 kcal/mol
USER    (3) Torsional Free Energy           =   +1.19 kcal/mol
USER    (4) Unbound System's Energy  [=(2)] =   +2.73 kcal/mol
USER    
USER    
USER    NEWDPF move ligand_135.pdbqt
USER    NEWDPF about 0.000000 0.000000 0.000000
USER    NEWDPF tran0 15.374177 6.297568 -3.515115
USER    NEWDPF quaternion0 0.105971 -0.269260 -0.931647 -0.219777
USER    NEWDPF axisangle0 0.108627 -0.276009 -0.954997 -154.608094
USER    NEWDPF quat0 0.108627 -0.276009 -0.954997 -154.608094
USER    NEWDPF dihe0 -147.13 153.69 72.00 180.00 179.95 -159.74 -11.20 102.28 83.02 -46.88 172.84 27.92 161.28 156.69 180.00 -60.98 52.86 -40.68 3.87 105.42 180.00 -144.88 -133.74 -115.16 -9.85 16.84 -135.87 127.35 -118.83 -88.22 
USER  keepresnum = 1 
USER  
REMARK  30 active torsions:
REMARK  status: ('A' for Active; 'I' for Inactive)
REMARK    1  A    between atoms: C2_2  and  C40_40 
REMARK    2  A    between atoms: C4_4  and  N13_56 
REMARK    3  A    between atoms: C5_5  and  S2_74 
REMARK    4  A    between atoms: C6_6  and  N1_41 
REMARK    5  A    between atoms: C7_7  and  C8_8 
REMARK       I    between atoms: C7_7  and  N1_41 
REMARK    6  A    between atoms: C10_10  and  C12_12 
REMARK       I    between atoms: C12_12  and  N4_46 
REMARK    7  A    between atoms: C13_13  and  N4_46 
REMARK    8  A    between atoms: C14_14  and  S1_73 
REMARK    9  A    between atoms: C15_15  and  N5_47 
REMARK   10  A    between atoms: C17_17  and  C19_19 
REMARK   11  A    between atoms: C20_20  and  C21_21 
REMARK       I    between atoms: C20_20  and  N5_47 
REMARK   12  A    between atoms: C21_21  and  C22_22 
REMARK   13  A    between atoms: C22_22  and  C23_23 
REMARK   14  A    between atoms: C23_23  and  C24_24 
REMARK   15  A    between atoms: C24_24  and  N6_48 
REMARK       I    between atoms: C25_25  and  N7_50 
REMARK       I    between atoms: C25_25  and  N8_51 
REMARK   16  A    between atoms: C26_26  and  C27_27 
REMARK   17  A    between atoms: C26_26  and  S1_73 
REMARK   18  A    between atoms: C27_27  and  N9_52 
REMARK   19  A    between atoms: C28_28  and  C29_29 
REMARK       I    between atoms: C28_28  and  N9_52 
REMARK   20  A    between atoms: C29_29  and  N10_53 
REMARK   21  A    between atoms: C30_30  and  C31_31 
REMARK   22  A    between atoms: C30_30  and  S2_74 
REMARK   23  A    between atoms: C31_31  and  N11_54 
REMARK   24  A    between atoms: C32_32  and  C33_33 
REMARK       I    between atoms: C32_32  and  N11_54 
REMARK   25  A    between atoms: C33_33  and  N12_55 
REMARK   26  A    between atoms: C34_34  and  C35_35 
REMARK       I    between atoms: C34_34  and  N13_56 
REMARK   27  A    between atoms: C35_35  and  C36_36 
REMARK   28  A    between atoms: C36_36  and  C37_37 
REMARK   29  A    between atoms: C37_37  and  C38_38 
REMARK   30  A    between atoms: C38_38  and  N14_57 
REMARK       I    between atoms: C39_39  and  N15_59 
REMARK       I    between atoms: C39_39  and  N16_60 
USER                              x       y       z     vdW  Elec       q    Type
USER                           _______ _______ _______ _____ _____    ______ ____
ROOT
ATOM      1  C8  UNL     1      13.081   6.498  -1.128 -0.07 +0.00    +0.104 A 
ATOM      2  C9  UNL     1      13.850   7.377  -0.406 +0.52 +0.00    +0.070 A 
ATOM      3  C10 UNL     1      15.075   7.652  -0.963 +4.49 +0.00    +0.104 A 
ATOM      4  C11 UNL     1      14.679   6.275  -2.740+57.38 +0.00    +0.181 A 
ATOM      5  N2  UNL     1      15.516   7.120  -2.132+21.11 -0.00    -0.348 N 
ATOM      6  H2  UNL     1      16.430   7.351  -2.522 -0.02 +0.00    +0.167 HD
ATOM      7  N3  UNL     1      13.464   5.929  -2.303 +2.83 -0.00    -0.348 N 
ATOM      8  H3  UNL     1      12.865   5.282  -2.815 +0.64 +0.00    +0.167 HD
ENDROOT
BRANCH   1   9
ATOM      9  C7  UNL     1      11.718   6.116  -0.630 -0.30 +0.00    +0.272 C 
ATOM     10  N1  UNL     1      10.847   7.185  -0.566 -0.12 -0.00    -0.320 N 
ATOM     11  H35 UNL     1      11.238   8.076  -0.871 +0.02 +0.00    +0.169 HD
ATOM     12  O1  UNL     1      11.485   4.955  -0.325 -0.21 -0.00    -0.266 OA
BRANCH  10  13
ATOM     13  C6  UNL     1       9.494   7.211  -0.159 -0.27 +0.00    +0.055 A 
ATOM     14  C1  UNL     1       8.522   7.938  -0.848 -0.32 +0.00    +0.047 A 
ATOM     15  C2  UNL     1       7.190   7.954  -0.408 -0.36 +0.00    +0.052 A 
ATOM     16  C3  UNL     1       6.835   7.219   0.734 -0.38 +0.00    +0.047 A 
ATOM     17  C4  UNL     1       7.785   6.483   1.450 -0.24 +0.00    +0.054 A 
ATOM     18  C5  UNL     1       9.122   6.470   0.990 -0.23 +0.00    +0.054 A 
BRANCH  15  19
ATOM     19  C40 UNL     1       6.143   8.728  -1.173 +3.57 +0.00    +0.417 C 
ATOM     20  F4  UNL     1       6.265   8.602  -2.523+10.52 -0.00    -0.166 F 
ATOM     21  F5  UNL     1       4.879   8.321  -0.871+13.65 -0.00    -0.166 F 
ATOM     22  F6  UNL     1       6.177  10.067  -0.925+13.89 -0.00    -0.166 F 
ENDBRANCH  15  19
BRANCH  17  23
ATOM     23  N13 UNL     1       7.453   5.752   2.619 -0.05 -0.00    -0.326 N 
ATOM     24  C34 UNL     1       6.199   5.588   3.173 -0.13 +0.00    +0.222 C 
ATOM     25  O6  UNL     1       5.152   6.081   2.764 -0.16 -0.00    -0.273 OA
ATOM     26  H48 UNL     1       8.227   5.268   3.074 +0.09 +0.00    +0.169 HD
BRANCH  24  27
ATOM     27  C35 UNL     1       6.190   4.688   4.393 -0.21 +0.00    +0.103 C 
BRANCH  27  28
ATOM     28  C36 UNL     1       7.215   3.567   4.268 -0.30 +0.00    +0.011 C 
BRANCH  28  29
ATOM     29  C37 UNL     1       8.491   3.750   5.095 -0.38 +0.00    +0.020 C 
BRANCH  29  30
ATOM     30  C38 UNL     1       8.657   5.165   5.652 -0.28 +0.00    +0.121 C 
BRANCH  30  31
ATOM     31  N14 UNL     1       9.739   5.853   4.943 -0.06 -0.00    -0.372 N 
ATOM     32  C39 UNL     1      10.910   5.764   5.453 -0.28 +0.00    +0.121 C 
ATOM     33  N15 UNL     1      11.362   5.067   6.517 -0.17 -0.00    -0.279 NA
ATOM     34  N16 UNL     1      11.935   6.453   4.899 -0.16 -0.00    -0.279 NA
ATOM     35  H49 UNL     1      10.705   4.403   6.907 +0.09 +0.00    +0.126 HD
ATOM     36  H50 UNL     1      12.236   4.578   6.311 +0.09 +0.00    +0.126 HD
ATOM     37  H51 UNL     1      11.563   7.214   4.329 +0.08 +0.00    +0.126 HD
ATOM     38  H52 UNL     1      12.527   6.847   5.624 +0.10 +0.00    +0.126 HD
ATOM     39  H14 UNL     1       9.568   6.378   4.085 +0.09 +0.00    +0.161 HD
ENDBRANCH  30  31
ENDBRANCH  29  30
ENDBRANCH  28  29
ENDBRANCH  27  28
ENDBRANCH  24  27
ENDBRANCH  17  23
BRANCH  18  40
ATOM     40  S2  UNL     1      10.367   5.464   1.836 +0.20 -0.00    -0.124 SA
BRANCH  40  41
ATOM     41  C30 UNL     1       9.508   3.840   1.816 +1.51 +0.00    +0.099 C 
BRANCH  41  42
ATOM     42  C31 UNL     1       9.397   3.225   0.419 +0.15 +0.00    +0.133 C 
BRANCH  42  43
ATOM     43  N11 UNL     1       8.047   3.264  -0.119 +0.01 -0.00    -0.359 N 
ATOM     44  C32 UNL     1       7.740   2.611  -1.298 -0.04 +0.00    +0.245 C 
ATOM     45  O5  UNL     1       8.520   1.866  -1.882 -0.18 -0.00    -0.272 OA
ATOM     46  H45 UNL     1       7.450   4.047   0.141 +0.06 +0.00    +0.162 HD
BRANCH  44  47
ATOM     47  C33 UNL     1       6.330   2.903  -1.825 -0.02 +0.00    +0.368 C 
BRANCH  47  48
ATOM     48  N12 UNL     1       6.376   3.416  -3.210 -0.14 +0.00    +0.087 N 
ATOM     49  H46 UNL     1       5.529   3.092  -3.682 +0.07 +0.00    +0.313 HD
ATOM     50  H47 UNL     1       6.267   4.435  -3.165 -0.08 +0.00    +0.313 HD
ENDBRANCH  47  48
ENDBRANCH  44  47
ENDBRANCH  42  43
ENDBRANCH  41  42
ENDBRANCH  40  41
ENDBRANCH  18  40
ENDBRANCH  10  13
ENDBRANCH   1   9
BRANCH   3  51
ATOM     51  C12 UNL     1      16.017   8.591  -0.271 -0.27 +0.00    +0.272 C 
ATOM     52  N4  UNL     1      16.884   7.954   0.590 -0.11 -0.00    -0.320 N 
ATOM     53  H36 UNL     1      16.782   6.939   0.645 -0.33 +0.00    +0.169 HD
ATOM     54  O2  UNL     1      15.958   9.791  -0.507 +2.31 -0.00    -0.266 OA
BRANCH  52  55
ATOM     55  C13 UNL     1      17.879   8.502   1.430 +0.70 +0.00    +0.055 A 
ATOM     56  C14 UNL     1      18.823   9.394   0.859 +0.66 +0.00    +0.054 A 
ATOM     57  C15 UNL     1      19.864   9.911   1.664 -0.30 +0.00    +0.054 A 
ATOM     58  C16 UNL     1      19.874   9.644   3.039 -0.06 +0.00    +0.047 A 
ATOM     59  C17 UNL     1      18.925   8.788   3.614 -0.37 +0.00    +0.052 A 
ATOM     60  C18 UNL     1      17.949   8.203   2.795 -0.43 +0.00    +0.047 A 
BRANCH  56  61
ATOM     61  S1  UNL     1      18.507   9.984  -0.833 +4.47 -0.00    -0.124 SA
BRANCH  61  62
ATOM     62  C26 UNL     1      18.315  11.771  -0.494 +6.08 +0.00    +0.099 C 
BRANCH  62  63
ATOM     63  C27 UNL     1      17.306  12.000   0.630 -0.17 +0.00    +0.133 C 
BRANCH  63  64
ATOM     64  N9  UNL     1      16.774  10.757   1.152 -0.20 -0.00    -0.359 N 
ATOM     65  C28 UNL     1      15.876  10.701   2.196 -0.32 +0.00    +0.245 C 
ATOM     66  O4  UNL     1      15.464  11.691   2.796 +0.25 -0.00    -0.272 OA
ATOM     67  H42 UNL     1      17.055   9.857   0.767 +0.13 +0.00    +0.162 HD
BRANCH  65  68
ATOM     68  C29 UNL     1      15.466   9.273   2.577 -0.02 +0.00    +0.368 C 
BRANCH  68  69
ATOM     69  N10 UNL     1      14.888   9.227   3.938 -0.22 +0.00    +0.087 N 
ATOM     70  H43 UNL     1      13.897   9.470   3.864 +0.14 +0.00    +0.313 HD
ATOM     71  H44 UNL     1      15.307   9.980   4.484 +0.34 +0.00    +0.313 HD
ENDBRANCH  68  69
ENDBRANCH  65  68
ENDBRANCH  63  64
ENDBRANCH  62  63
ENDBRANCH  61  62
ENDBRANCH  56  61
BRANCH  57  72
ATOM     72  N5  UNL     1      20.908  10.738   1.188 -0.19 -0.00    -0.326 N 
ATOM     73  C20 UNL     1      21.466  10.615  -0.077 -0.15 +0.00    +0.222 C 
ATOM     74  O3  UNL     1      21.150   9.781  -0.918 +3.30 -0.00    -0.273 OA
ATOM     75  H37 UNL     1      21.513  11.163   1.883 +0.20 +0.00    +0.169 HD
BRANCH  73  76
ATOM     76  C21 UNL     1      22.606  11.600  -0.291 +1.63 +0.00    +0.103 C 
BRANCH  76  77
ATOM     77  C22 UNL     1      23.880  11.169   0.434+14.82 +0.00    +0.011 C 
BRANCH  77  78
ATOM     78  C23 UNL     1      23.987   9.654   0.622 +0.10 +0.00    +0.020 C 
BRANCH  78  79
ATOM     79  C24 UNL     1      25.356   9.203   1.131 -0.07 +0.00    +0.121 C 
BRANCH  79  80
ATOM     80  N6  UNL     1      25.210   8.599   2.452 -0.20 -0.00    -0.372 N 
ATOM     81  C25 UNL     1      24.818   9.311   3.437 -0.56 +0.00    +0.121 C 
ATOM     82  N7  UNL     1      24.457  10.611   3.489 -0.70 -0.00    -0.279 NA
ATOM     83  N8  UNL     1      24.719   8.759   4.665 -0.35 -0.00    -0.279 NA
ATOM     84  H38 UNL     1      24.244  11.019   2.588 +0.19 +0.00    +0.126 HD
ATOM     85  H39 UNL     1      23.694  10.768   4.138 +0.04 +0.00    +0.126 HD
ATOM     86  H40 UNL     1      25.139   7.833   4.653 +0.03 +0.00    +0.126 HD
ATOM     87  H41 UNL     1      25.159   9.332   5.375 +0.86 +0.00    +0.126 HD
ATOM     88  H6  UNL     1      25.420   7.610   2.587 +0.13 +0.00    +0.161 HD
ENDBRANCH  79  80
ENDBRANCH  78  79
ENDBRANCH  77  78
ENDBRANCH  76  77
ENDBRANCH  73  76
ENDBRANCH  57  72
BRANCH  59  89
ATOM     89  C19 UNL     1      18.969   8.460   5.086+10.43 +0.00    +0.417 C 
ATOM     90  F1  UNL     1      18.580   7.182   5.361 +7.82 -0.00    -0.166 F 
ATOM     91  F2  UNL     1      18.153   9.262   5.823+12.29 -0.00    -0.166 F 
ATOM     92  F3  UNL     1      20.214   8.589   5.622 +3.69 -0.00    -0.166 F 
ENDBRANCH  59  89
ENDBRANCH  52  55
ENDBRANCH   3  51
TORSDOF 30
TER
