USER    Run = 1
USER    DPF = ligand_225_receptor.dpf
USER  
USER    Estimated Free Energy of Binding    =  +1.32e+004 kcal/mol  [=(1)+(2)+(3)-(4)]
USER    
USER    (1) Final Intermolecular Energy     =  +1.32e+004 kcal/mol
USER        vdW + Hbond + desolv Energy     =  +1.32e+004 kcal/mol
USER        Electrostatic Energy            =   +0.00 kcal/mol
USER    (2) Final Total Internal Energy     =   +0.00 kcal/mol
USER    (3) Torsional Free Energy           =   +1.19 kcal/mol
USER    (4) Unbound System's Energy  [=(2)] =   +0.00 kcal/mol
USER    
USER    
USER    NEWDPF move ligand_225.pdbqt
USER    NEWDPF about 0.000000 0.000000 0.000000
USER    NEWDPF tran0 13.555679 7.632918 2.219444
USER    NEWDPF quaternion0 0.942138 0.329420 0.046466 -0.041226
USER    NEWDPF axisangle0 0.942939 0.329701 0.046505 -175.274554
USER    NEWDPF quat0 0.942939 0.329701 0.046505 -175.274554
USER  keepresnum = 1 
USER  
REMARK  0 active torsions:
REMARK  status: ('A' for Active; 'I' for Inactive)
REMARK       I    between atoms: N1_1  and  C12_24 
REMARK       I    between atoms: N2_2  and  C5_17 
REMARK       I    between atoms: N2_2  and  C6_18 
REMARK       I    between atoms: N3_3  and  C13_25 
REMARK       I    between atoms: N3_3  and  C16_28 
REMARK       I    between atoms: N4_4  and  C17_29 
REMARK       I    between atoms: N4_4  and  C18_30 
REMARK       I    between atoms: N5_5  and  C19_31 
REMARK       I    between atoms: N5_5  and  C20_32 
REMARK       I    between atoms: N6_6  and  C22_34 
REMARK       I    between atoms: N7_7  and  C23_35 
REMARK       I    between atoms: N7_7  and  C26_38 
REMARK       I    between atoms: N8_8  and  C27_39 
REMARK       I    between atoms: N8_8  and  C28_40 
REMARK       I    between atoms: N9_9  and  C29_41 
REMARK       I    between atoms: N9_9  and  C30_42 
REMARK       I    between atoms: N10_10  and  C31_43 
REMARK       I    between atoms: N10_10  and  C32_44 
REMARK       I    between atoms: N11_11  and  C33_45 
REMARK       I    between atoms: N11_11  and  C37_49 
REMARK       I    between atoms: N12_12  and  C41_53 
REMARK       I    between atoms: C1_13  and  C5_17 
REMARK       I    between atoms: C6_18  and  C7_19 
REMARK       I    between atoms: C6_18  and  C11_23 
REMARK       I    between atoms: C7_19  and  C8_20 
REMARK       I    between atoms: C11_23  and  O2_73 
REMARK       I    between atoms: C12_24  and  C13_25 
REMARK       I    between atoms: C16_28  and  C17_29 
REMARK       I    between atoms: C17_29  and  C56_68 
REMARK       I    between atoms: C18_30  and  C19_31 
REMARK       I    between atoms: C19_31  and  C52_64 
REMARK       I    between atoms: C20_32  and  C21_33 
REMARK       I    between atoms: C22_34  and  C23_35 
REMARK       I    between atoms: C26_38  and  C27_39 
REMARK       I    between atoms: C27_39  and  C46_58 
REMARK       I    between atoms: C28_40  and  C29_41 
REMARK       I    between atoms: C29_41  and  C42_54 
REMARK       I    between atoms: C30_42  and  C31_43 
REMARK       I    between atoms: C31_43  and  C39_51 
REMARK       I    between atoms: C32_44  and  C33_45 
REMARK       I    between atoms: C33_45  and  C34_46 
REMARK       I    between atoms: C39_51  and  C40_52 
REMARK       I    between atoms: C40_52  and  C41_53 
REMARK       I    between atoms: C42_54  and  C44_56 
REMARK       I    between atoms: C52_64  and  C53_65 
REMARK       I    between atoms: C56_68  and  C57_69 
USER                              x       y       z     vdW  Elec       q    Type
USER                           _______ _______ _______ _____ _____    ______ ____
ROOT
ATOM      1  N1  UNL     1      18.539  10.646   1.438 -0.19 -0.00    -0.337 N 
ATOM      2  N2  UNL     1      21.007  10.004  -0.053 -0.09 -0.00    -0.353 N 
ATOM      3  N3  UNL     1      16.685   9.068   3.365 -0.23 -0.00    -0.342 N 
ATOM      4  N4  UNL     1      14.313  10.160   4.689+99.99 -0.00    -0.346 N 
ATOM      5  N5  UNL     1      13.246  11.034   7.154 +6.93 -0.00    -0.346 N 
ATOM      6  N6  UNL     1       9.813  10.187   6.609+99.99 -0.00    -0.337 N 
ATOM      7  N7  UNL     1       8.602   8.439   4.468+22.02 -0.00    -0.342 N 
ATOM      8  N8  UNL     1      10.360   5.390   3.448 -0.07 -0.00    -0.346 N 
ATOM      9  N9  UNL     1      11.134   4.022   0.180+11.40 -0.00    -0.346 N 
ATOM     10  N10 UNL     1       9.410   3.098  -1.738 -0.04 -0.00    -0.346 N 
ATOM     11  N11 UNL     1       5.766   3.663  -1.578 -0.04 -0.00    -0.344 N 
ATOM     12  N12 UNL     1      14.357  -0.518  -2.484 +2.07 -0.00    -0.370 N 
ATOM     13  C1  UNL     1      18.913  11.311   0.172 -0.47 +0.00    +0.179 C 
ATOM     14  C2  UNL     1      18.498  12.780   0.365 +0.58 +0.00    +0.037 C 
ATOM     15  C3  UNL     1      17.498  12.737   1.508 -0.68 +0.00    +0.022 C 
ATOM     16  C4  UNL     1      18.052  11.633   2.389 -0.52 +0.00    +0.127 C 
ATOM     17  C5  UNL     1      20.417  11.234  -0.208 -0.13 +0.00    +0.241 C 
ATOM     18  C6  UNL     1      22.379   9.688  -0.467 +0.02 +0.00    +0.108 C 
ATOM     19  C7  UNL     1      22.798   8.383   0.236 -0.45 +0.00    +0.031 C 
ATOM     20  C8  UNL     1      24.270   7.958   0.068 -0.50 -0.00    -0.021 C 
ATOM     21  C9  UNL     1      24.520   6.659   0.840 -0.51 +0.00    +0.009 C 
ATOM     22  C10 UNL     1      25.250   9.034   0.536 +0.79 +0.00    +0.009 C 
ATOM     23  C11 UNL     1      22.485   9.599  -2.005+99.99 +0.00    +0.189 C 
ATOM     24  C12 UNL     1      18.415   9.267   1.498 -0.01 +0.00    +0.248 C 
ATOM     25  C13 UNL     1      17.944   8.551   2.813 -0.49 +0.00    +0.106 C 
ATOM     26  C14 UNL     1      17.812   7.035   2.563 +0.26 +0.00    +0.048 C 
ATOM     27  C15 UNL     1      19.051   8.756   3.865 -0.27 +0.00    +0.048 C 
ATOM     28  C16 UNL     1      15.509   9.080   2.647 -0.24 +0.00    +0.241 C 
ATOM     29  C17 UNL     1      14.211   9.341   3.471 +1.71 +0.00    +0.177 C 
ATOM     30  C18 UNL     1      14.930   9.709   5.844+22.13 +0.00    +0.241 C 
ATOM     31  C19 UNL     1      14.654  10.616   7.076+15.01 +0.00    +0.180 C 
ATOM     32  C20 UNL     1      12.199  10.135   7.199+24.91 +0.00    +0.241 C 
ATOM     33  C21 UNL     1      10.822  10.765   7.492+99.99 +0.00    +0.179 C 
ATOM     34  C22 UNL     1       9.808  10.523   5.267+99.99 +0.00    +0.248 C 
ATOM     35  C23 UNL     1       8.733   9.900   4.306+34.23 +0.00    +0.106 C 
ATOM     36  C24 UNL     1       7.381  10.571   4.626+99.99 +0.00    +0.048 C 
ATOM     37  C25 UNL     1       9.055  10.241   2.837+99.99 +0.00    +0.048 C 
ATOM     38  C26 UNL     1       9.673   7.598   4.203 -0.10 +0.00    +0.241 C 
ATOM     39  C27 UNL     1       9.319   6.094   4.189 -0.20 +0.00    +0.180 C 
ATOM     40  C28 UNL     1      10.264   5.246   2.079 +0.54 +0.00    +0.241 C 
ATOM     41  C29 UNL     1      11.543   4.703   1.401+99.99 +0.00    +0.180 C 
ATOM     42  C30 UNL     1      10.942   2.655   0.156+24.45 +0.00    +0.241 C 
ATOM     43  C31 UNL     1      10.364   2.126  -1.177 -0.20 +0.00    +0.177 C 
ATOM     44  C32 UNL     1       8.114   3.137  -1.256 -0.05 +0.00    +0.246 C 
ATOM     45  C33 UNL     1       7.118   4.103  -1.984 +0.14 +0.00    +0.109 C 
ATOM     46  C34 UNL     1       7.322   4.153  -3.521 +0.04 +0.00    +0.036 C 
ATOM     47  C35 UNL     1       6.243   4.907  -4.293+13.74 +0.00    +0.008 C 
ATOM     48  C36 UNL     1       7.361   5.504  -1.393 +7.46 +0.00    +0.049 C 
ATOM     49  C37 UNL     1       5.193   2.503  -2.057 -0.06 +0.00    +0.214 C 
ATOM     50  C38 UNL     1       3.937   2.106  -1.327 -0.08 +0.00    +0.117 C 
ATOM     51  C39 UNL     1      11.499   1.887  -2.180 +2.98 +0.00    +0.044 C 
ATOM     52  C40 UNL     1      12.438   0.756  -1.758 -0.22 +0.00    +0.105 C 
ATOM     53  C41 UNL     1      13.472   0.464  -2.822+22.78 +0.00    +0.215 C 
ATOM     54  C42 UNL     1      12.552   5.853   1.155 +0.43 +0.00    +0.013 C 
ATOM     55  C43 UNL     1      12.147   6.778  -0.000 -0.32 +0.00    +0.012 C 
ATOM     56  C44 UNL     1      14.004   5.351   0.998+99.99 +0.00    +0.002 C 
ATOM     57  C45 UNL     1      14.282   4.453  -0.198+99.99 +0.00    +0.005 C 
ATOM     58  C46 UNL     1       9.133   5.544   5.621 -0.31 +0.00    +0.009 C 
ATOM     59  C47 UNL     1      10.435   5.484   6.425 -0.38 +0.00    +0.012 C 
ATOM     60  C48 UNL     1       8.482   4.157   5.587 -0.40 +0.00    +0.012 C 
ATOM     61  C49 UNL     1       9.029   9.200   7.327+99.99 +0.00    +0.127 C 
ATOM     62  C50 UNL     1       9.007   9.748   8.742+99.99 +0.00    +0.022 C 
ATOM     63  C51 UNL     1      10.388  10.374   8.913+14.56 +0.00    +0.037 C 
ATOM     64  C52 UNL     1      15.250  10.157   8.432+99.99 +0.00    +0.013 C 
ATOM     65  C53 UNL     1      16.797  10.084   8.449+99.99 +0.00    +0.002 C 
ATOM     66  C54 UNL     1      17.499  11.362   8.010+47.96 +0.00    +0.005 C 
ATOM     67  C55 UNL     1      14.691   8.827   8.947+24.71 +0.00    +0.012 C 
ATOM     68  C56 UNL     1      13.117   9.915   2.543+99.47 +0.00    +0.038 C 
ATOM     69  C57 UNL     1      13.448  11.216   1.772+29.22 -0.00    -0.020 C 
ATOM     70  C58 UNL     1      12.282  11.566   0.841+99.99 +0.00    +0.009 C 
ATOM     71  C59 UNL     1      13.748  12.410   2.676+99.99 +0.00    +0.009 C 
ATOM     72  O1  UNL     1      21.018  12.165  -0.748 -0.45 -0.00    -0.271 OA
ATOM     73  O2  UNL     1      22.520  10.888  -2.618+99.99 -0.00    -0.399 OA
ATOM     74  O3  UNL     1      18.844   8.591   0.549+12.68 -0.00    -0.271 OA
ATOM     75  O4  UNL     1      15.482   8.804   1.448 -0.05 -0.00    -0.271 OA
ATOM     76  O5  UNL     1      15.757   8.801   5.828+82.52 -0.00    -0.271 OA
ATOM     77  O6  UNL     1      12.355   8.929   7.031 -0.30 -0.00    -0.271 OA
ATOM     78  O7  UNL     1      10.568  11.418   4.872+99.99 -0.00    -0.271 OA
ATOM     79  O8  UNL     1      10.822   8.001   4.036 -0.32 -0.00    -0.271 OA
ATOM     80  O9  UNL     1       9.260   5.565   1.442 -0.11 -0.00    -0.271 OA
ATOM     81  O10 UNL     1      11.365   1.905   1.034+69.67 -0.00    -0.271 OA
ATOM     82  O11 UNL     1       7.795   2.532  -0.230 -0.05 -0.00    -0.271 OA
ATOM     83  O12 UNL     1       5.644   1.833  -2.979 -0.04 -0.00    -0.274 OA
ATOM     84  O13 UNL     1      13.534   1.027  -3.906+99.99 -0.00    -0.274 OA
ATOM     85  H1  UNL     1      20.354   9.225   0.061 +0.14 +0.00    +0.163 HD
ATOM     86  H2  UNL     1      16.544   8.898   4.361 +0.11 +0.00    +0.163 HD
ATOM     87  H3  UNL     1      13.467  10.682   4.899+99.99 +0.00    +0.163 HD
ATOM     88  H4  UNL     1      13.059  12.003   7.376 +0.38 +0.00    +0.163 HD
ATOM     89  H5  UNL     1       7.689   8.050   4.265 +0.64 +0.00    +0.163 HD
ATOM     90  H6  UNL     1      11.299   5.480   3.822 +0.05 +0.00    +0.163 HD
ATOM     91  H7  UNL     1      10.480   4.532  -0.408 -0.01 +0.00    +0.163 HD
ATOM     92  H8  UNL     1       9.550   3.352  -2.707 +0.06 +0.00    +0.163 HD
ATOM     93  H9  UNL     1       5.573   3.823  -0.595 +0.04 +0.00    +0.163 HD
ATOM     94  H10 UNL     1      15.115  -0.696  -3.131 -0.22 +0.00    +0.159 HD
ATOM     95  H11 UNL     1      14.451  -0.851  -1.534 +3.25 +0.00    +0.159 HD
ATOM     96  HA4 UNL     1      21.981  11.494  -2.066 +3.43 +0.00    +0.209 HD
ENDROOT
TORSDOF 34
TER
