USER    Run = 1
USER    DPF = ligand_117_receptor.dpf
USER  
USER    Estimated Free Energy of Binding    =  +96.42 kcal/mol  [=(1)+(2)+(3)-(4)]
USER    
USER    (1) Final Intermolecular Energy     =  +95.23 kcal/mol
USER        vdW + Hbond + desolv Energy     =  +95.23 kcal/mol
USER        Electrostatic Energy            =   +0.00 kcal/mol
USER    (2) Final Total Internal Energy     =   +6.69 kcal/mol
USER    (3) Torsional Free Energy           =   +1.19 kcal/mol
USER    (4) Unbound System's Energy  [=(2)] =   +6.69 kcal/mol
USER    
USER    
USER    NEWDPF move ligand_117.pdbqt
USER    NEWDPF about 0.000000 0.000000 0.000000
USER    NEWDPF tran0 11.791044 5.123565 4.833687
USER    NEWDPF quaternion0 0.724475 -0.342770 0.229008 -0.552449
USER    NEWDPF axisangle0 0.869147 -0.411219 0.274740 -112.929634
USER    NEWDPF quat0 0.869147 -0.411219 0.274740 -112.929634
USER    NEWDPF dihe0 -1.98 18.13 38.60 146.83 108.31 -17.01 -35.79 60.39 -158.31 16.62 3.49 -167.76 100.10 9.90 169.08 31.05 79.65 180.00 180.00 -138.57 -74.37 
USER  keepresnum = 1 
USER  
REMARK  21 active torsions:
REMARK  status: ('A' for Active; 'I' for Inactive)
REMARK    1  A    between atoms: C2_2  and  C3_3 
REMARK    2  A    between atoms: C3_3  and  C5_5 
REMARK    3  A    between atoms: C19_19  and  C47_47 
REMARK    4  A    between atoms: C21_21  and  O14_70 
REMARK    5  A    between atoms: C24_24  and  C26_26 
REMARK    6  A    between atoms: C26_26  and  C27_27 
REMARK       I    between atoms: C27_27  and  N9_81 
REMARK    7  A    between atoms: C28_28  and  C29_29 
REMARK    8  A    between atoms: C28_28  and  N9_81 
REMARK    9  A    between atoms: C32_32  and  N10_82 
REMARK   10  A    between atoms: C35_35  and  C36_36 
REMARK       I    between atoms: C35_35  and  N10_82 
REMARK   11  A    between atoms: C36_36  and  N11_83 
REMARK   12  A    between atoms: C38_38  and  C39_39 
REMARK       I    between atoms: C38_38  and  N11_83 
REMARK   13  A    between atoms: C39_39  and  N12_84 
REMARK   14  A    between atoms: C40_40  and  C41_41 
REMARK       I    between atoms: C40_40  and  N12_84 
REMARK   15  A    between atoms: C41_41  and  C42_42 
REMARK   16  A    between atoms: C42_42  and  N13_85 
REMARK   17  A    between atoms: C45_45  and  S2_88 
REMARK   18  A    between atoms: C47_47  and  C49_49 
REMARK   19  A    between atoms: C49_49  and  C50_50 
REMARK   20  A    between atoms: C49_49  and  O16_72 
REMARK   21  A    between atoms: C50_50  and  O15_71 
USER                              x       y       z     vdW  Elec       q    Type
USER                           _______ _______ _______ _____ _____    ______ ____
ROOT
ATOM      1  C5  UNL     1       7.351   8.142  -1.289 +0.70 +0.00    +0.180 C 
ATOM      2  C6  UNL     1       7.998   7.144  -2.283 +9.33 +0.00    +0.241 C 
ATOM      3  C7  UNL     1       8.730   4.822  -2.667 -0.10 +0.00    +0.225 C 
ATOM      4  C8  UNL     1      10.263   4.816  -2.697 -0.14 +0.00    +0.236 C 
ATOM      5  C9  UNL     1      10.512   4.282  -0.229 +0.48 +0.00    +0.186 C 
ATOM      6  C10 UNL     1      10.821   2.782  -0.133 +6.19 +0.00    +0.116 C 
ATOM      7  C11 UNL     1       8.481   1.817   1.061 -0.21 +0.00    +0.077 A 
ATOM      8  C12 UNL     1       7.378   2.208   1.802 -0.23 -0.00    -0.010 A 
ATOM      9  C13 UNL     1       7.400   3.001   3.081 -0.26 +0.00    +0.077 C 
ATOM     10  C14 UNL     1       6.655   4.353   3.097 -0.12 +0.00    +0.181 C 
ATOM     11  C15 UNL     1       6.425   4.991   1.709 -0.09 +0.00    +0.241 C 
ATOM     12  C16 UNL     1       4.629   5.963   0.308 +1.28 +0.00    +0.225 C 
ATOM     13  C17 UNL     1       5.248   6.993  -0.650 +5.23 +0.00    +0.236 C 
ATOM     14  C18 UNL     1       5.170   4.608   5.156 -0.17 +0.00    +0.252 C 
ATOM     15  C19 UNL     1       6.267   5.303   6.022 -0.21 +0.00    +0.320 C 
ATOM     16  C20 UNL     1       8.695   5.257   6.185 -0.14 +0.00    +0.355 C 
ATOM     17  C21 UNL     1       9.811   4.463   6.928 -0.36 +0.00    +0.189 C 
ATOM     18  C22 UNL     1      10.316   4.034   5.535 -0.37 +0.00    +0.163 C 
ATOM     19  C23 UNL     1       9.798   6.168   4.127 -0.18 +0.00    +0.245 C 
ATOM     20  C24 UNL     1      10.982   6.080   3.142 -0.22 +0.00    +0.185 C 
ATOM     21  C25 UNL     1      11.251   5.068   0.869 +9.28 +0.00    +0.241 C 
ATOM     22  C51 UNL     1       6.231   1.666   1.123 -0.19 -0.00    -0.000 A 
ATOM     23  C52 UNL     1       4.845   1.636   1.385 -0.17 +0.00    +0.014 A 
ATOM     24  C53 UNL     1       3.974   1.033   0.469 -0.16 +0.00    +0.001 A 
ATOM     25  C54 UNL     1       4.462   0.450  -0.696 +0.28 +0.00    +0.002 A 
ATOM     26  C55 UNL     1       5.831   0.433  -0.968 +0.03 +0.00    +0.030 A 
ATOM     27  C56 UNL     1       6.686   1.041  -0.041 -0.11 +0.00    +0.043 A 
ATOM     28  O1  UNL     1       8.407   7.497  -3.387 +0.70 -0.00    -0.271 OA
ATOM     29  O2  UNL     1      10.898   4.706  -3.747 -0.31 -0.00    -0.272 OA
ATOM     30  O3  UNL     1       7.267   4.995   0.811 -0.07 -0.00    -0.271 OA
ATOM     31  O4  UNL     1       4.668   7.331  -1.679 +9.77 -0.00    -0.272 OA
ATOM     32  O5  UNL     1       4.027   4.397   5.569 -0.13 -0.00    -0.271 OA
ATOM     33  O6  UNL     1       8.969   7.078   3.994 -0.19 -0.00    -0.271 OA
ATOM     34  O7  UNL     1      12.391   5.503   0.718 -0.14 -0.00    -0.271 OA
ATOM     35  N1  UNL     1       8.189   5.861  -1.808 +0.79 -0.00    -0.351 N 
ATOM     36  N2  UNL     1      10.961   4.811  -1.520 -0.05 -0.00    -0.346 N 
ATOM     37  N3  UNL     1       5.266   5.737   1.601 -0.10 -0.00    -0.351 N 
ATOM     38  N4  UNL     1       6.509   7.429  -0.321 -0.14 -0.00    -0.346 N 
ATOM     39  N5  UNL     1       5.402   4.272   3.853 -0.04 -0.00    -0.346 N 
ATOM     40  N6  UNL     1       7.476   4.437   6.091 -0.30 +0.00    +0.123 N 
ATOM     41  N7  UNL     1       9.547   5.147   5.003 -0.09 -0.00    -0.315 N 
ATOM     42  N8  UNL     1      10.546   5.201   2.047 +0.63 -0.00    -0.346 N 
ATOM     43  N14 UNL     1       8.056   1.124  -0.034 -0.06 -0.00    -0.350 N 
ATOM     44  S1  UNL     1      10.182   1.958   1.364 +9.10 -0.00    -0.109 SA
ATOM     45  H62 UNL     1       7.695   5.583  -0.963 -0.18 +0.00    +0.163 HD
ATOM     46  H63 UNL     1      11.966   4.869  -1.654 +0.14 +0.00    +0.163 HD
ATOM     47  H64 UNL     1       4.641   5.676   2.398 +0.04 +0.00    +0.163 HD
ATOM     48  H65 UNL     1       6.968   6.934   0.434 +0.06 +0.00    +0.163 HD
ATOM     49  H66 UNL     1       4.625   3.769   3.444 +0.06 +0.00    +0.163 HD
ATOM     50  H67 UNL     1       7.346   3.852   6.931 +0.15 +0.00    +0.319 HD
ATOM     51  H68 UNL     1       9.547   5.027   1.982 -0.02 +0.00    +0.163 HD
ATOM     52  H73 UNL     1       8.661   0.682  -0.712 +0.08 +0.00    +0.166 HD
ENDROOT
BRANCH  20  53
ATOM     53  C26 UNL     1      12.374   5.754   3.680 +2.42 +0.00    +0.137 C 
BRANCH  53  54
ATOM     54  C27 UNL     1      13.371   6.891   3.590 -0.25 +0.00    +0.220 C 
ATOM     55  O8  UNL     1      14.476   6.798   3.067 +2.67 -0.00    -0.274 OA
ATOM     56  N9  UNL     1      12.884   8.075   4.091 -0.19 -0.00    -0.357 N 
ATOM     57  H69 UNL     1      12.033   8.072   4.641 +0.10 +0.00    +0.162 HD
BRANCH  56  58
ATOM     58  C28 UNL     1      13.702   9.265   4.122 +3.42 +0.00    +0.161 C 
BRANCH  58  59
ATOM     59  C29 UNL     1      15.135   8.933   3.809 -0.37 -0.00    -0.040 A 
ATOM     60  C30 UNL     1      15.997   8.459   4.804 +1.02 +0.00    +0.011 A 
ATOM     61  C31 UNL     1      17.335   8.185   4.508 -0.16 +0.00    +0.030 A 
ATOM     62  C32 UNL     1      17.839   8.383   3.217 -0.53 +0.00    +0.034 A 
ATOM     63  C33 UNL     1      16.985   8.872   2.229 -0.49 +0.00    +0.030 A 
ATOM     64  C34 UNL     1      15.644   9.146   2.522 -0.35 +0.00    +0.011 A 
BRANCH  62  65
ATOM     65  N10 UNL     1      19.194   8.070   3.007 +0.70 -0.00    -0.325 N 
ATOM     66  C35 UNL     1      20.273   8.936   2.903 +0.05 +0.00    +0.244 C 
ATOM     67  O9  UNL     1      20.214  10.159   3.002 -0.10 -0.00    -0.271 OA
ATOM     68  H70 UNL     1      19.422   7.078   2.923 +1.06 +0.00    +0.169 HD
BRANCH  66  69
ATOM     69  C36 UNL     1      21.615   8.182   2.698 +2.53 +0.00    +0.172 C 
ATOM     70  C37 UNL     1      22.758   8.876   3.428 -0.33 +0.00    +0.042 C 
BRANCH  69  71
ATOM     71  N11 UNL     1      21.945   8.036   1.278 +4.24 -0.00    -0.347 N 
ATOM     72  C38 UNL     1      22.661   8.976   0.580 -0.33 +0.00    +0.236 C 
ATOM     73  O10 UNL     1      23.122   9.982   1.120 -0.23 -0.00    -0.272 OA
ATOM     74  H71 UNL     1      21.915   7.088   0.896 +1.03 +0.00    +0.163 HD
BRANCH  72  75
ATOM     75  C39 UNL     1      22.886   8.669  -0.901 +0.48 +0.00    +0.225 C 
BRANCH  75  76
ATOM     76  N12 UNL     1      23.603   7.418  -1.073 -0.26 -0.00    -0.352 N 
ATOM     77  C40 UNL     1      24.173   7.086  -2.279 -0.28 +0.00    +0.219 C 
ATOM     78  O11 UNL     1      24.161   7.842  -3.244 +1.43 -0.00    -0.274 OA
ATOM     79  H72 UNL     1      23.528   6.726  -0.339 +0.11 +0.00    +0.162 HD
BRANCH  77  80
ATOM     80  C41 UNL     1      24.858   5.737  -2.297 -0.36 +0.00    +0.123 C 
BRANCH  80  81
ATOM     81  C42 UNL     1      25.317   5.324  -0.900 -0.44 +0.00    +0.144 C 
BRANCH  81  82
ATOM     82  N13 UNL     1      26.640   5.842  -0.575 -0.16 -0.00    -0.287 N 
ATOM     83  C43 UNL     1      27.797   5.297  -1.048 -0.19 +0.00    +0.228 C 
ATOM     84  C44 UNL     1      28.969   6.038  -0.478 -0.18 +0.00    +0.128 C 
ATOM     85  O12 UNL     1      27.889   4.359  -1.825 -0.15 -0.00    -0.273 OA
ATOM     86  C45 UNL     1      28.343   7.253   0.188 -0.28 +0.00    +0.145 C 
ATOM     87  C46 UNL     1      26.856   7.010   0.099 -0.25 +0.00    +0.240 C 
ATOM     88  O13 UNL     1      25.984   7.768   0.504 -0.24 -0.00    -0.272 OA
BRANCH  86  89
ATOM     89  S2  UNL     1      28.870   7.450   1.910 -0.38 -0.00    -0.167 SA
ATOM     90  H74 UNL     1      28.307   8.665   2.078 +0.03 +0.00    +0.102 HD
ENDBRANCH  86  89
ENDBRANCH  81  82
ENDBRANCH  80  81
ENDBRANCH  77  80
ENDBRANCH  75  76
ENDBRANCH  72  75
ENDBRANCH  69  71
ENDBRANCH  66  69
ENDBRANCH  62  65
ENDBRANCH  58  59
ENDBRANCH  56  58
ENDBRANCH  53  54
ENDBRANCH  20  53
BRANCH  17  91
ATOM     91  O14 UNL     1      10.743   5.245   7.723 -0.15 -0.00    -0.390 OA
ATOM     92  H59 UNL     1      10.792   6.117   7.271 +0.16 +0.00    +0.210 HD
ENDBRANCH  17  91
BRANCH  15  93
ATOM     93  C47 UNL     1       5.662   5.666   7.426 -0.26 +0.00    +0.055 C 
ATOM     94  C48 UNL     1       4.719   4.567   7.937 +2.00 +0.00    +0.015 C 
BRANCH  93  95
ATOM     95  C49 UNL     1       4.986   7.063   7.454 -0.20 +0.00    +0.148 C 
BRANCH  95  96
ATOM     96  C50 UNL     1       5.688   8.077   8.368 +1.62 +0.00    +0.196 C 
BRANCH  96  97
ATOM     97  O15 UNL     1       5.226   9.384   8.010 -0.16 -0.00    -0.398 OA
ATOM     98  H60 UNL     1       6.006   9.966   8.007 +0.00 +0.00    +0.209 HD
ENDBRANCH  96  97
ENDBRANCH  95  96
BRANCH  95  99
ATOM     99  O16 UNL     1       3.618   6.945   7.881 +0.08 -0.00    -0.393 OA
ATOM    100  H61 UNL     1       3.271   6.189   7.361 +0.08 +0.00    +0.210 HD
ENDBRANCH  95  99
ENDBRANCH  93  95
ENDBRANCH  15  93
BRANCH   1 101
ATOM    101  C3  UNL     1       8.376   9.037  -0.544 +8.18 +0.00    +0.013 C 
ATOM    102  C4  UNL     1       8.783   8.502   0.833 +9.65 +0.00    +0.012 C 
BRANCH 101 103
ATOM    103  C2  UNL     1       9.591   9.424  -1.420 +9.83 +0.00    +0.002 C 
ATOM    104  C1  UNL     1       9.475   9.142  -2.913 +0.54 +0.00    +0.005 C 
ENDBRANCH 101 103
ENDBRANCH   1 101
TORSDOF 21
TER
