USER    Run = 1
USER    DPF = ligand_424_receptor.dpf
USER  
USER    Estimated Free Energy of Binding    =  +1.90e+005 kcal/mol  [=(1)+(2)+(3)-(4)]
USER    
USER    (1) Final Intermolecular Energy     =  +1.90e+005 kcal/mol
USER        vdW + Hbond + desolv Energy     =  +1.90e+005 kcal/mol
USER        Electrostatic Energy            =   +0.00 kcal/mol
USER    (2) Final Total Internal Energy     =   +0.00 kcal/mol
USER    (3) Torsional Free Energy           =   +1.19 kcal/mol
USER    (4) Unbound System's Energy  [=(2)] =   +0.00 kcal/mol
USER    
USER    
USER    NEWDPF move ligand_424.pdbqt
USER    NEWDPF about 0.000000 0.000000 0.000000
USER    NEWDPF tran0 18.762230 6.065844 3.116729
USER    NEWDPF quaternion0 -0.151946 0.934123 0.313680 -0.077016
USER    NEWDPF axisangle0 -0.152399 0.936906 0.314614 -171.165839
USER    NEWDPF quat0 -0.152399 0.936906 0.314614 -171.165839
USER  keepresnum = 1 
USER  
REMARK  0 active torsions:
REMARK  status: ('A' for Active; 'I' for Inactive)
REMARK       I    between atoms: C2_2  and  C3_3 
REMARK       I    between atoms: C3_3  and  C5_5 
REMARK       I    between atoms: C5_5  and  C62_62 
REMARK       I    between atoms: C5_5  and  N1_78 
REMARK       I    between atoms: C6_6  and  C7_7 
REMARK       I    between atoms: C6_6  and  N1_78 
REMARK       I    between atoms: C7_7  and  C8_8 
REMARK       I    between atoms: C7_7  and  N3_80 
REMARK       I    between atoms: C8_8  and  C9_9 
REMARK       I    between atoms: C17_17  and  C18_18 
REMARK       I    between atoms: C17_17  and  N3_80 
REMARK       I    between atoms: C18_18  and  C59_59 
REMARK       I    between atoms: C18_18  and  N4_81 
REMARK       I    between atoms: C19_19  and  C20_20 
REMARK       I    between atoms: C19_19  and  N4_81 
REMARK       I    between atoms: C20_20  and  C21_21 
REMARK       I    between atoms: C20_20  and  N6_83 
REMARK       I    between atoms: C21_21  and  C22_22 
REMARK       I    between atoms: C30_30  and  C31_31 
REMARK       I    between atoms: C30_30  and  N6_83 
REMARK       I    between atoms: C31_31  and  C32_32 
REMARK       I    between atoms: C31_31  and  N8_85 
REMARK       I    between atoms: C32_32  and  C33_33 
REMARK       I    between atoms: C41_41  and  C42_42 
REMARK       I    between atoms: C41_41  and  N8_85 
REMARK       I    between atoms: C42_42  and  C43_43 
REMARK       I    between atoms: C42_42  and  N12_90 
REMARK       I    between atoms: C43_43  and  C44_44 
REMARK       I    between atoms: C44_44  and  C45_45 
REMARK       I    between atoms: C45_45  and  N9_86 
REMARK       I    between atoms: C46_46  and  N9_86 
REMARK       I    between atoms: C46_46  and  N10_87 
REMARK       I    between atoms: C46_46  and  N11_89 
REMARK       I    between atoms: C47_47  and  C48_48 
REMARK       I    between atoms: C47_47  and  N12_90 
REMARK       I    between atoms: C48_48  and  C49_49 
REMARK       I    between atoms: C48_48  and  N14_92 
REMARK       I    between atoms: C49_49  and  C50_50 
REMARK       I    between atoms: C50_50  and  C51_51 
REMARK       I    between atoms: C51_51  and  C52_52 
REMARK       I    between atoms: C52_52  and  N13_91 
REMARK       I    between atoms: C53_53  and  C54_54 
REMARK       I    between atoms: C53_53  and  N14_92 
REMARK       I    between atoms: C54_54  and  C55_55 
REMARK       I    between atoms: C54_54  and  N15_93 
REMARK       I    between atoms: C55_55  and  C56_56 
REMARK       I    between atoms: C56_56  and  C57_57 
REMARK       I    between atoms: C57_57  and  C58_58 
REMARK       I    between atoms: C58_58  and  N16_94 
REMARK       I    between atoms: C62_62  and  N17_95 
REMARK       I    between atoms: C63_63  and  C64_64 
REMARK       I    between atoms: C63_63  and  C68_68 
REMARK       I    between atoms: C63_63  and  N17_95 
REMARK       I    between atoms: C64_64  and  C65_65 
REMARK       I    between atoms: C65_65  and  C66_66 
REMARK       I    between atoms: C66_66  and  N18_96 
REMARK       I    between atoms: C67_67  and  N18_96 
REMARK       I    between atoms: C67_67  and  N20_99 
REMARK       I    between atoms: C68_68  and  N21_100 
REMARK       I    between atoms: C69_69  and  C70_70 
REMARK       I    between atoms: C69_69  and  C77_77 
REMARK       I    between atoms: C69_69  and  N21_100 
REMARK       I    between atoms: C70_70  and  C71_71 
REMARK       I    between atoms: C74_74  and  O10_110 
REMARK       I    between atoms: C77_77  and  O12_112 
USER                              x       y       z     vdW  Elec       q    Type
USER                           _______ _______ _______ _____ _____    ______ ____
ROOT
ATOM      1  C1  UNL     1      25.369   9.823  -1.541+99.99 +0.00    +0.005 C 
ATOM      2  C2  UNL     1      25.694   8.507  -2.238+99.99 +0.00    +0.002 C 
ATOM      3  C3  UNL     1      26.631   7.589  -1.419 +2.17 +0.00    +0.013 C 
ATOM      4  C4  UNL     1      27.481   6.763  -2.401 +1.61 +0.00    +0.012 C 
ATOM      5  C5  UNL     1      25.877   6.630  -0.465 -0.33 +0.00    +0.180 C 
ATOM      6  C6  UNL     1      23.569   7.215   0.277 -0.35 +0.00    +0.241 C 
ATOM      7  C7  UNL     1      22.755   7.951   1.356 +0.19 +0.00    +0.181 C 
ATOM      8  C8  UNL     1      22.781   7.159   2.685+13.06 +0.00    +0.075 C 
ATOM      9  C9  UNL     1      21.531   6.385   2.994+99.99 -0.00    -0.028 A 
ATOM     10  C10 UNL     1      20.598   6.739   3.951+39.71 +0.00    +0.096 A 
ATOM     11  C11 UNL     1      19.804   4.899   2.938+99.99 +0.00    +0.042 A 
ATOM     12  C12 UNL     1      19.019   3.813   2.537+99.99 +0.00    +0.030 A 
ATOM     13  C13 UNL     1      19.516   2.990   1.525+99.99 +0.00    +0.002 A 
ATOM     14  C14 UNL     1      20.754   3.246   0.941+99.99 +0.00    +0.001 A 
ATOM     15  C15 UNL     1      21.525   4.339   1.352+99.99 +0.00    +0.014 A 
ATOM     16  C16 UNL     1      21.046   5.190   2.369+99.99 -0.00    -0.002 A 
ATOM     17  C17 UNL     1      20.577   9.105   1.441 +5.42 +0.00    +0.241 C 
ATOM     18  C18 UNL     1      19.107   9.035   0.974 +9.23 +0.00    +0.180 C 
ATOM     19  C19 UNL     1      17.401   8.607   2.724 -0.41 +0.00    +0.241 C 
ATOM     20  C20 UNL     1      16.836   9.111   4.078 -0.40 +0.00    +0.181 C 
ATOM     21  C21 UNL     1      17.921   9.405   5.135 +4.03 +0.00    +0.075 C 
ATOM     22  C22 UNL     1      17.648  10.676   5.890 +9.19 -0.00    -0.028 A 
ATOM     23  C23 UNL     1      18.289  11.885   5.707+99.99 +0.00    +0.096 A 
ATOM     24  C24 UNL     1      16.771  12.199   7.340 +7.78 +0.00    +0.042 A 
ATOM     25  C25 UNL     1      15.958  12.738   8.345+99.99 +0.00    +0.030 A 
ATOM     26  C26 UNL     1      15.026  11.890   8.951+18.27 +0.00    +0.002 A 
ATOM     27  C27 UNL     1      14.917  10.556   8.569+99.99 +0.00    +0.001 A 
ATOM     28  C28 UNL     1      15.743  10.033   7.567+99.99 +0.00    +0.014 A 
ATOM     29  C29 UNL     1      16.685  10.868   6.932+33.99 -0.00    -0.002 A 
ATOM     30  C30 UNL     1      16.029   6.938   5.009 +1.68 +0.00    +0.241 C 
ATOM     31  C31 UNL     1      14.762   6.064   5.095 +4.30 +0.00    +0.181 C 
ATOM     32  C32 UNL     1      14.877   5.031   6.220+21.07 +0.00    +0.075 C 
ATOM     33  C33 UNL     1      14.802   5.652   7.581 -0.18 -0.00    -0.028 A 
ATOM     34  C34 UNL     1      15.867   5.905   8.421+77.36 +0.00    +0.096 A 
ATOM     35  C35 UNL     1      14.024   6.636   9.482 +0.30 +0.00    +0.042 A 
ATOM     36  C36 UNL     1      13.122   7.184  10.402+14.26 +0.00    +0.030 A 
ATOM     37  C37 UNL     1      11.770   7.207  10.048+45.39 +0.00    +0.002 A 
ATOM     38  C38 UNL     1      11.341   6.702   8.822+83.01 +0.00    +0.001 A 
ATOM     39  C39 UNL     1      12.256   6.155   7.916 -0.37 +0.00    +0.014 A 
ATOM     40  C40 UNL     1      13.625   6.117   8.251 -0.61 -0.00    -0.002 A 
ATOM     41  C41 UNL     1      14.172   6.115   2.697+99.99 +0.00    +0.241 C 
ATOM     42  C42 UNL     1      14.376   5.377   1.352+99.99 +0.00    +0.176 C 
ATOM     43  C43 UNL     1      13.914   6.195   0.139+13.71 +0.00    +0.036 C 
ATOM     44  C44 UNL     1      12.395   6.365   0.006 -0.49 +0.00    +0.022 C 
ATOM     45  C45 UNL     1      12.049   7.271  -1.177 +0.45 +0.00    +0.122 C 
ATOM     46  C46 UNL     1      10.059   8.211  -2.223 -0.34 +0.00    +0.143 C 
ATOM     47  C47 UNL     1      14.340   2.972   1.984+99.99 +0.00    +0.241 C 
ATOM     48  C48 UNL     1      13.423   1.749   2.156+99.99 +0.00    +0.176 C 
ATOM     49  C49 UNL     1      12.949   1.211   0.795+99.99 +0.00    +0.035 C 
ATOM     50  C50 UNL     1      14.107   0.646  -0.036 +5.82 +0.00    +0.004 C 
ATOM     51  C51 UNL     1      13.653   0.025  -1.361 +9.76 +0.00    +0.030 C 
ATOM     52  C52 UNL     1      13.139   1.059  -2.363+13.17 +0.00    +0.267 C 
ATOM     53  C53 UNL     1      11.475   1.283   3.616+12.75 +0.00    +0.251 C 
ATOM     54  C54 UNL     1      10.542   1.940   4.654+13.67 +0.00    +0.308 C 
ATOM     55  C55 UNL     1       9.356   2.635   3.973 +3.03 +0.00    +0.045 C 
ATOM     56  C56 UNL     1       8.444   1.703   3.162+35.76 +0.00    +0.004 C 
ATOM     57  C57 UNL     1       7.837   0.524   3.931+99.99 +0.00    +0.030 C 
ATOM     58  C58 UNL     1       6.972   0.956   5.115+99.99 +0.00    +0.267 C 
ATOM     59  C59 UNL     1      18.809   9.891  -0.273 +0.32 +0.00    +0.009 C 
ATOM     60  C60 UNL     1      19.217  11.359  -0.117 -0.55 +0.00    +0.012 C 
ATOM     61  C61 UNL     1      19.444   9.305  -1.536+99.99 +0.00    +0.012 C 
ATOM     62  C62 UNL     1      26.817   5.923   0.535 -0.19 +0.00    +0.241 C 
ATOM     63  C63 UNL     1      26.721   4.453   2.551+99.99 +0.00    +0.176 C 
ATOM     64  C64 UNL     1      28.081   3.752   2.421+99.99 +0.00    +0.036 C 
ATOM     65  C65 UNL     1      28.677   3.229   3.734+99.99 +0.00    +0.022 C 
ATOM     66  C66 UNL     1      27.753   2.295   4.516+99.99 +0.00    +0.122 C 
ATOM     67  C67 UNL     1      28.847   2.238   6.714+16.93 +0.00    +0.143 C 
ATOM     68  C68 UNL     1      26.650   5.605   3.578+99.99 +0.00    +0.241 C 
ATOM     69  C69 UNL     1      27.716   7.699   4.369+99.99 +0.00    +0.186 C 
ATOM     70  C70 UNL     1      29.180   8.016   4.723+99.99 +0.00    +0.074 C 
ATOM     71  C71 UNL     1      29.349   8.474   6.153+99.99 -0.00    -0.056 A 
ATOM     72  C72 UNL     1      29.507   9.832   6.458+99.99 +0.00    +0.010 A 
ATOM     73  C73 UNL     1      29.648  10.244   7.785+99.99 +0.00    +0.037 A 
ATOM     74  C74 UNL     1      29.627   9.302   8.806+99.99 +0.00    +0.065 A 
ATOM     75  C75 UNL     1      29.465   7.950   8.524+77.68 +0.00    +0.037 A 
ATOM     76  C76 UNL     1      29.327   7.537   7.198+99.99 +0.00    +0.010 A 
ATOM     77  C77 UNL     1      27.054   8.933   3.740+14.41 +0.00    +0.163 C 
ATOM     78  N1  UNL     1      24.934   7.321   0.416 -0.14 -0.00    -0.346 N 
ATOM     79  N2  UNL     1      19.556   5.856   3.895+18.99 -0.00    -0.365 N 
ATOM     80  N3  UNL     1      21.421   8.211   0.828+26.29 -0.00    -0.346 N 
ATOM     81  N4  UNL     1      18.296   9.462   2.116 -0.17 -0.00    -0.346 N 
ATOM     82  N5  UNL     1      17.755  12.791   6.585+99.99 -0.00    -0.365 N 
ATOM     83  N6  UNL     1      15.772   8.213   4.532 -0.17 -0.00    -0.346 N 
ATOM     84  N7  UNL     1      15.390   6.496   9.558 +3.00 -0.00    -0.365 N 
ATOM     85  N8  UNL     1      14.647   5.409   3.792+99.99 -0.00    -0.346 N 
ATOM     86  N9  UNL     1      10.602   7.393  -1.292 -0.12 -0.00    -0.367 N 
ATOM     87  N10 UNL     1      10.715   9.011  -2.977 -0.15 -0.00    -0.376 N 
ATOM     88  H10 UNL     1      11.727   9.139  -2.955 -0.31 +0.00    +0.158 HD
ATOM     89  N11 UNL     1       8.717   8.089  -2.257 -0.19 -0.00    -0.274 NA
ATOM     90  N12 UNL     1      13.721   4.069   1.415+99.99 -0.00    -0.346 N 
ATOM     91  N13 UNL     1      12.785   0.412  -3.621+58.63 +0.00    +0.078 N 
ATOM     92  N14 UNL     1      12.305   2.193   2.990+99.99 -0.00    -0.346 N 
ATOM     93  N15 UNL     1      11.324   2.955   5.412 -0.38 +0.00    +0.092 N 
ATOM     94  N16 UNL     1       6.358  -0.198   5.762+99.99 +0.00    +0.078 N 
ATOM     95  N17 UNL     1      26.177   4.951   1.286 +0.43 -0.00    -0.346 N 
ATOM     96  N18 UNL     1      28.483   1.607   5.572 +0.85 -0.00    -0.367 N 
ATOM     97  N19 UNL     1      28.747   3.493   6.942+12.02 -0.00    -0.376 N 
ATOM     98  H19 UNL     1      28.402   4.187   6.278 -0.15 +0.00    +0.158 HD
ATOM     99  N20 UNL     1      29.353   1.363   7.607+15.92 -0.00    -0.274 NA
ATOM    100  N21 UNL     1      27.671   6.521   3.501+99.99 -0.00    -0.345 N 
ATOM    101  O1  UNL     1      23.048   6.563  -0.626 -0.41 -0.00    -0.271 OA
ATOM    102  O2  UNL     1      20.963   9.916   2.283 -0.31 -0.00    -0.271 OA
ATOM    103  O3  UNL     1      17.026   7.563   2.189 -0.51 -0.00    -0.271 OA
ATOM    104  O4  UNL     1      17.160   6.499   5.210+68.62 -0.00    -0.271 OA
ATOM    105  O5  UNL     1      13.687   7.239   2.805 -0.23 -0.00    -0.271 OA
ATOM    106  O6  UNL     1      15.512   2.982   2.351+99.99 -0.00    -0.271 OA
ATOM    107  O7  UNL     1      11.453   0.084   3.366+10.80 -0.00    -0.271 OA
ATOM    108  O8  UNL     1      27.977   6.272   0.741 -0.16 -0.00    -0.271 OA
ATOM    109  O9  UNL     1      25.687   5.740   4.328 +3.81 -0.00    -0.271 OA
ATOM    110  O10 UNL     1      29.763   9.749  10.087 -0.48 -0.00    -0.361 OA
ATOM    111  O11 UNL     1      27.081  10.072   4.184 +2.90 -0.00    -0.648 OA
ATOM    112  O12 UNL     1      26.371   8.722   2.589 -0.01 -0.00    -0.775 OA
ATOM    113  H82 UNL     1      25.327   7.805   1.224 +0.13 +0.00    +0.163 HD
ATOM    114  H83 UNL     1      18.707   5.914   4.453+99.99 +0.00    +0.165 HD
ATOM    115  H84 UNL     1      21.007   7.438   0.313+99.99 +0.00    +0.163 HD
ATOM    116  H85 UNL     1      18.689  10.226   2.657 +0.13 +0.00    +0.163 HD
ATOM    117  H86 UNL     1      18.041  13.756   6.672+68.24 +0.00    +0.165 HD
ATOM    118  H87 UNL     1      14.899   8.289   4.007 +0.10 +0.00    +0.163 HD
ATOM    119  H88 UNL     1      15.957   6.800  10.339 +3.65 +0.00    +0.165 HD
ATOM    120  H89 UNL     1      15.354   4.707   3.569+99.99 +0.00    +0.163 HD
ATOM    121  H90 UNL     1      10.122   6.503  -1.247 +0.09 +0.00    +0.162 HD
ATOM    122  H91 UNL     1      10.076   9.501  -3.603 +0.09 +0.00    +0.158 HD
ATOM    123  H92 UNL     1       8.326   7.964  -1.329 -0.04 +0.00    +0.127 HD
ATOM    124  H93 UNL     1       8.244   8.841  -2.740 -0.03 +0.00    +0.127 HD
ATOM    125  H94 UNL     1      12.708   4.059   1.452+99.99 +0.00    +0.163 HD
ATOM    126  H95 UNL     1      13.605  -0.051  -4.012+99.99 +0.00    +0.312 HD
ATOM    127  H96 UNL     1      12.508   1.120  -4.301 +0.28 +0.00    +0.312 HD
ATOM    128  H97 UNL     1      12.438   3.022   3.573 +5.98 +0.00    +0.163 HD
ATOM    129  H98 UNL     1      12.022   2.458   5.972 +0.53 +0.00    +0.313 HD
ATOM    130  H99 UNL     1      10.704   3.387   6.100 +0.22 +0.00    +0.313 HD
ATOM    131  HA0 UNL     1       7.082  -0.860   6.044 +5.60 +0.00    +0.312 HD
ATOM    132  HA1 UNL     1       5.777  -0.698   5.089 +0.73 +0.00    +0.312 HD
ATOM    133  HA2 UNL     1      25.165   4.942   1.215 +0.10 +0.00    +0.163 HD
ATOM    134  HA3 UNL     1      28.102   0.688   5.761 +0.01 +0.00    +0.162 HD
ATOM    135  HA4 UNL     1      29.064   3.693   7.890 +3.29 +0.00    +0.158 HD
ATOM    136  HA5 UNL     1      29.908   0.640   7.162+82.62 +0.00    +0.127 HD
ATOM    137  HA6 UNL     1      29.868   1.788   8.366 +0.76 +0.00    +0.127 HD
ATOM    138  HA7 UNL     1      28.171   6.565   2.610 +0.89 +0.00    +0.163 HD
ATOM    139  HA8 UNL     1      29.686   8.988  10.686 +0.23 +0.00    +0.217 HD
ATOM    140  HA9 UNL     1      26.071   9.641   2.401 +0.11 +0.00    +0.167 HD
ENDROOT
TORSDOF 51
TER
