USER    Run = 1
USER    DPF = ligand_471_receptor.dpf
USER  
USER    Estimated Free Energy of Binding    = +559.59 kcal/mol  [=(1)+(2)+(3)-(4)]
USER    
USER    (1) Final Intermolecular Energy     = +558.40 kcal/mol
USER        vdW + Hbond + desolv Energy     = +558.40 kcal/mol
USER        Electrostatic Energy            =   +0.00 kcal/mol
USER    (2) Final Total Internal Energy     = +141.14 kcal/mol
USER    (3) Torsional Free Energy           =   +1.19 kcal/mol
USER    (4) Unbound System's Energy  [=(2)] = +141.14 kcal/mol
USER    
USER    
USER    NEWDPF move ligand_471.pdbqt
USER    NEWDPF about 0.000000 0.000000 0.000000
USER    NEWDPF tran0 20.239340 7.557275 4.315063
USER    NEWDPF quaternion0 -0.108000 0.820848 0.381864 0.410760
USER    NEWDPF axisangle0 -0.118455 0.900306 0.418829 131.494855
USER    NEWDPF quat0 -0.118455 0.900306 0.418829 131.494855
USER    NEWDPF dihe0 -112.68 -123.93 133.59 -17.71 -179.38 150.70 141.27 54.34 37.12 180.00 -164.78 120.12 162.83 6.46 -74.45 -65.94 -148.78 180.00 59.97 108.04 -180.00 27.97 
USER  keepresnum = 1 
USER  
REMARK  22 active torsions:
REMARK  status: ('A' for Active; 'I' for Inactive)
REMARK    1  A    between atoms: C2_2  and  C3_3 
REMARK    2  A    between atoms: C2_2  and  N10_84 
REMARK       I    between atoms: C3_3  and  N1_75 
REMARK    3  A    between atoms: C4_4  and  C5_5 
REMARK    4  A    between atoms: C4_4  and  C60_60 
REMARK    5  A    between atoms: C4_4  and  N1_75 
REMARK       I    between atoms: C5_5  and  N2_76 
REMARK    6  A    between atoms: C7_7  and  N4_78 
REMARK    7  A    between atoms: C9_9  and  C10_10 
REMARK       I    between atoms: C10_10  and  N3_77 
REMARK    8  A    between atoms: C11_11  and  N3_77 
REMARK    9  A    between atoms: C21_21  and  C22_22 
REMARK       I    between atoms: C21_21  and  N4_78 
REMARK   10  A    between atoms: C25_25  and  C28_28 
REMARK       I    between atoms: C28_28  and  N5_79 
REMARK   11  A    between atoms: C29_29  and  N5_79 
REMARK   12  A    between atoms: C34_34  and  C47_47 
REMARK   13  A    between atoms: C36_36  and  C37_37 
REMARK       I    between atoms: C36_36  and  N6_80 
REMARK   14  A    between atoms: C37_37  and  C38_38 
REMARK   15  A    between atoms: C37_37  and  N7_81 
REMARK   16  A    between atoms: C38_38  and  S1_85 
REMARK   17  A    between atoms: C41_41  and  C42_42 
REMARK   18  A    between atoms: C41_41  and  S1_85 
REMARK   19  A    between atoms: C42_42  and  O8_72 
REMARK   20  A    between atoms: C43_43  and  C44_44 
REMARK       I    between atoms: C43_43  and  N7_81 
REMARK   21  A    between atoms: C44_44  and  N8_82 
REMARK       I    between atoms: C47_47  and  N9_83 
REMARK   22  A    between atoms: C48_48  and  N9_83 
USER                              x       y       z     vdW  Elec       q    Type
USER                           _______ _______ _______ _____ _____    ______ ____
ROOT
ATOM      1  C28 UNL     1      19.391   6.667   3.460+21.64 +0.00    +0.256 C 
ATOM      2  O5  UNL     1      19.497   5.463   3.263+61.51 -0.00    -0.267 OA
ATOM      3  N5  UNL     1      20.383   7.625   3.384 +6.23 -0.00    -0.323 N 
ATOM      4  H78 UNL     1      20.094   8.591   3.482 +0.10 +0.00    +0.169 HD
ENDROOT
BRANCH   1   5
ATOM      5  C25 UNL     1      18.046   7.188   3.817 +2.13 +0.00    +0.032 A 
ATOM      6  C24 UNL     1      17.955   8.221   4.758 +1.60 +0.00    +0.018 A 
ATOM      7  C23 UNL     1      16.717   8.799   5.051 +3.41 +0.00    +0.018 A 
ATOM      8  C22 UNL     1      15.569   8.355   4.384 -0.38 +0.00    +0.032 A 
ATOM      9  C27 UNL     1      15.656   7.304   3.461 +1.08 +0.00    +0.018 A 
ATOM     10  C26 UNL     1      16.893   6.723   3.173 +7.88 +0.00    +0.018 A 
BRANCH   8  11
ATOM     11  C21 UNL     1      14.251   9.021   4.554 +0.72 +0.00    +0.252 C 
ATOM     12  O4  UNL     1      13.838   9.316   5.669 +0.37 -0.00    -0.268 OA
ATOM     13  N4  UNL     1      13.495   9.155   3.403 +0.80 -0.00    -0.351 N 
ATOM     14  H77 UNL     1      13.821   8.638   2.596 -0.43 +0.00    +0.163 HD
BRANCH  13  15
ATOM     15  C7  UNL     1      12.043   9.295   3.527 +2.92 +0.00    +0.105 C 
ATOM     16  C6  UNL     1      11.590   8.919   4.945 +3.69 +0.00    +0.152 C 
ATOM     17  N2  UNL     1      11.647   7.459   4.920 -0.15 -0.00    -0.335 N 
ATOM     18  C5  UNL     1      12.320   6.645   5.807 -0.27 +0.00    +0.244 C 
ATOM     19  C9  UNL     1      11.368   6.978   3.550 -0.31 +0.00    +0.181 C 
ATOM     20  O2  UNL     1      12.533   5.463   5.506 -0.27 -0.00    -0.271 OA
ATOM     21  C8  UNL     1      11.309   8.251   2.688 +2.89 +0.00    +0.061 C 
BRANCH  18  22
ATOM     22  C4  UNL     1      12.747   7.179   7.201 -0.36 +0.00    +0.184 C 
BRANCH  22  23
ATOM     23  C60 UNL     1      12.065   8.533   7.582 +0.10 -0.00    -0.022 C 
ATOM     24  C61 UNL     1      12.802   9.720   6.932 +5.31 +0.00    +0.017 C 
ATOM     25  C62 UNL     1      10.587   8.579   7.144 +5.26 +0.00    +0.017 C 
ATOM     26  C63 UNL     1      12.122   8.739   9.111+12.04 +0.00    +0.017 C 
ENDBRANCH  22  23
BRANCH  22  27
ATOM     27  N1  UNL     1      12.401   6.107   8.141 -0.17 -0.00    -0.345 N 
ATOM     28  C3  UNL     1      11.172   5.480   8.163 -0.04 +0.00    +0.251 C 
ATOM     29  O1  UNL     1      10.293   5.693   7.331 -0.19 -0.00    -0.271 OA
ATOM     30  H75 UNL     1      12.934   6.062   9.010 +0.13 +0.00    +0.163 HD
BRANCH  28  31
ATOM     31  C2  UNL     1      11.041   4.464   9.324 +4.53 +0.00    +0.307 C 
ATOM     32  C1  UNL     1      12.413   3.949   9.750 +6.58 +0.00    +0.053 C 
BRANCH  31  33
ATOM     33  N10 UNL     1      10.131   3.385   8.875 +3.35 +0.00    +0.092 N 
ATOM     34  C64 UNL     1      10.758   2.504   7.897 +1.27 +0.00    +0.307 C 
ATOM     35  H82 UNL     1       9.310   3.810   8.436 +0.24 +0.00    +0.316 HD
ENDBRANCH  31  33
ENDBRANCH  28  31
ENDBRANCH  22  27
ENDBRANCH  18  22
BRANCH  19  36
ATOM     36  C10 UNL     1      10.080   6.135   3.433 -0.19 +0.00    +0.241 C 
ATOM     37  O3  UNL     1       8.957   6.635   3.481 -0.18 -0.00    -0.271 OA
ATOM     38  N3  UNL     1      10.290   4.808   3.137 +0.09 -0.00    -0.351 N 
ATOM     39  H76 UNL     1      11.227   4.544   2.836 -0.46 +0.00    +0.163 HD
BRANCH  38  40
ATOM     40  C11 UNL     1       9.204   3.882   2.851 -0.11 +0.00    +0.118 C 
ATOM     41  C12 UNL     1       8.854   3.872   1.354 -0.12 +0.00    +0.030 C 
ATOM     42  C13 UNL     1       8.089   5.131   0.962 -0.18 +0.00    +0.007 C 
ATOM     43  C14 UNL     1       6.761   5.208   1.712 -0.17 +0.00    +0.039 C 
ATOM     44  C15 UNL     1       6.882   4.902   3.183 -0.15 -0.00    -0.050 A 
ATOM     45  C16 UNL     1       5.817   5.237   4.033 -0.19 +0.00    +0.007 A 
ATOM     46  C20 UNL     1       8.007   4.239   3.713 -0.22 -0.00    -0.029 A 
ATOM     47  C17 UNL     1       5.870   4.941   5.395 -0.29 +0.00    +0.001 A 
ATOM     48  C18 UNL     1       6.985   4.300   5.923 -0.36 +0.00    +0.001 A 
ATOM     49  C19 UNL     1       8.047   3.951   5.089 -0.32 +0.00    +0.010 A 
ENDBRANCH  38  40
ENDBRANCH  19  36
ENDBRANCH  13  15
ENDBRANCH   8  11
ENDBRANCH   1   5
BRANCH   3  50
ATOM     50  C29 UNL     1      21.752   7.417   3.116+11.95 +0.00    +0.035 A 
ATOM     51  C30 UNL     1      22.649   8.383   3.589 +1.62 +0.00    +0.039 A 
ATOM     52  C31 UNL     1      24.028   8.273   3.344 +0.02 -0.00    -0.032 A 
ATOM     53  C32 UNL     1      24.524   7.146   2.652 +3.24 -0.00    -0.048 A 
ATOM     54  C35 UNL     1      24.969   9.348   3.860 +0.09 +0.00    +0.166 C 
ATOM     55  C33 UNL     1      26.008   6.983   2.363 -0.23 +0.00    +0.074 C 
ATOM     56  C58 UNL     1      23.624   6.182   2.186+25.21 +0.00    +0.010 A 
ATOM     57  C34 UNL     1      26.841   7.985   3.171 -0.05 +0.00    +0.184 C 
ATOM     58  N6  UNL     1      26.220   9.327   3.105 -0.35 -0.00    -0.332 N 
ATOM     59  C36 UNL     1      26.345  10.021   1.887 +1.52 +0.00    +0.245 C 
ATOM     60  O6  UNL     1      27.142   9.625   1.032 +0.44 -0.00    -0.271 OA
ATOM     61  C59 UNL     1      22.251   6.319   2.415+46.35 +0.00    +0.030 A 
BRANCH  57  62
ATOM     62  C47 UNL     1      28.354   7.911   2.885 +0.39 +0.00    +0.241 C 
ATOM     63  O10 UNL     1      29.181   8.591   3.486 +1.08 -0.00    -0.271 OA
ATOM     64  N9  UNL     1      28.666   7.153   1.773 -0.09 -0.00    -0.351 N 
ATOM     65  H81 UNL     1      27.931   6.560   1.409 +0.10 +0.00    +0.163 HD
BRANCH  64  66
ATOM     66  C48 UNL     1      30.038   6.845   1.411 -0.31 +0.00    +0.118 C 
ATOM     67  C49 UNL     1      30.556   7.857   0.380 -0.26 +0.00    +0.030 C 
ATOM     68  C50 UNL     1      29.996   7.564  -1.010 -0.24 +0.00    +0.007 C 
ATOM     69  C51 UNL     1      30.451   6.188  -1.489 -0.11 +0.00    +0.039 C 
ATOM     70  C52 UNL     1      30.273   5.106  -0.452 -0.09 -0.00    -0.050 A 
ATOM     71  C53 UNL     1      30.342   3.762  -0.852 -0.11 +0.00    +0.007 A 
ATOM     72  C57 UNL     1      30.107   5.412   0.912 -0.21 -0.00    -0.029 A 
ATOM     73  C54 UNL     1      30.216   2.732   0.081 -0.26 +0.00    +0.001 A 
ATOM     74  C55 UNL     1      30.027   3.031   1.426 -0.34 +0.00    +0.001 A 
ATOM     75  C56 UNL     1      29.974   4.362   1.838 +0.96 +0.00    +0.010 A 
ENDBRANCH  64  66
ENDBRANCH  57  62
BRANCH  59  76
ATOM     76  C37 UNL     1      25.671  11.411   1.736 +6.59 +0.00    +0.194 C 
BRANCH  76  77
ATOM     77  C38 UNL     1      25.534  12.234   3.064+20.75 +0.00    +0.030 C 
ATOM     78  C39 UNL     1      26.111  13.664   2.962+85.40 +0.00    +0.029 C 
ATOM     79  C40 UNL     1      26.313  11.517   4.186+99.99 +0.00    +0.029 C 
BRANCH  77  80
ATOM     80  S1  UNL     1      23.754  12.455   3.591+71.07 -0.00    -0.147 SA
BRANCH  80  81
ATOM     81  C41 UNL     1      23.548  11.219   4.913 +4.18 +0.00    +0.184 C 
BRANCH  81  82
ATOM     82  C42 UNL     1      22.369  10.299   4.695 +1.37 +0.00    +0.149 C 
ATOM     83  O7  UNL     1      21.962   9.389   5.397 +1.96 -0.00    -0.649 OA
BRANCH  82  84
ATOM     84  O8  UNL     1      21.734  10.578   3.532 +0.40 -0.00    -0.776 OA
ATOM     85  H74 UNL     1      22.385  10.310   2.849 +0.13 +0.00    +0.167 HD
ENDBRANCH  82  84
ENDBRANCH  81  82
ENDBRANCH  80  81
ENDBRANCH  77  80
ENDBRANCH  76  77
BRANCH  76  86
ATOM     86  N7  UNL     1      24.363  11.143   1.113 +5.82 -0.00    -0.344 N 
ATOM     87  C43 UNL     1      23.732   9.918   1.256 -0.03 +0.00    +0.251 C 
ATOM     88  O9  UNL     1      24.241   8.985   1.871 -0.28 -0.00    -0.271 OA
ATOM     89  H79 UNL     1      23.765  11.945   0.931+11.26 +0.00    +0.163 HD
BRANCH  87  90
ATOM     90  C44 UNL     1      22.347   9.853   0.565 -0.26 +0.00    +0.307 C 
ATOM     91  C45 UNL     1      21.262   9.545   1.596 -0.29 +0.00    +0.053 C 
BRANCH  90  92
ATOM     92  N8  UNL     1      22.418   8.834  -0.505 -0.35 +0.00    +0.092 N 
ATOM     93  C46 UNL     1      23.685   8.843  -1.218 +0.75 +0.00    +0.307 C 
ATOM     94  H80 UNL     1      22.273   7.912  -0.093 +0.24 +0.00    +0.316 HD
ENDBRANCH  90  92
ENDBRANCH  87  90
ENDBRANCH  76  86
ENDBRANCH  59  76
ENDBRANCH   3  50
TORSDOF 22
TER
