USER    Run = 1
USER    DPF = ligand_53_receptor.dpf
USER  
USER    Estimated Free Energy of Binding    =  +9.90e+004 kcal/mol  [=(1)+(2)+(3)-(4)]
USER    
USER    (1) Final Intermolecular Energy     =  +9.90e+004 kcal/mol
USER        vdW + Hbond + desolv Energy     =  +9.90e+004 kcal/mol
USER        Electrostatic Energy            =   +0.00 kcal/mol
USER    (2) Final Total Internal Energy     =   +0.00 kcal/mol
USER    (3) Torsional Free Energy           =   +1.19 kcal/mol
USER    (4) Unbound System's Energy  [=(2)] =   +0.00 kcal/mol
USER    
USER    
USER    NEWDPF move ligand_53.pdbqt
USER    NEWDPF about 0.000000 0.000000 0.000000
USER    NEWDPF tran0 17.003070 6.409909 2.851365
USER    NEWDPF quaternion0 0.026956 0.839912 -0.518526 -0.157961
USER    NEWDPF axisangle0 0.027299 0.850591 -0.525119 -161.822869
USER    NEWDPF quat0 0.027299 0.850591 -0.525119 -161.822869
USER  keepresnum = 1 
USER  
REMARK  0 active torsions:
REMARK  status: ('A' for Active; 'I' for Inactive)
REMARK       I    between atoms: C2_2  and  O1_63 
REMARK       I    between atoms: C3_3  and  C14_14 
REMARK       I    between atoms: C5_5  and  N1_79 
REMARK       I    between atoms: C8_8  and  C9_9 
REMARK       I    between atoms: C8_8  and  N1_79 
REMARK       I    between atoms: C9_9  and  C10_10 
REMARK       I    between atoms: C9_9  and  N3_81 
REMARK       I    between atoms: C10_10  and  C11_11 
REMARK       I    between atoms: C11_11  and  C12_12 
REMARK       I    between atoms: C12_12  and  C13_13 
REMARK       I    between atoms: C13_13  and  N2_80 
REMARK       I    between atoms: C14_14  and  N4_82 
REMARK       I    between atoms: C15_15  and  C16_16 
REMARK       I    between atoms: C15_15  and  C20_20 
REMARK       I    between atoms: C15_15  and  N4_82 
REMARK       I    between atoms: C16_16  and  C17_17 
REMARK       I    between atoms: C17_17  and  C18_18 
REMARK       I    between atoms: C18_18  and  C19_19 
REMARK       I    between atoms: C19_19  and  N5_83 
REMARK       I    between atoms: C20_20  and  N6_84 
REMARK       I    between atoms: C21_21  and  N6_84 
REMARK       I    between atoms: C23_23  and  C28_28 
REMARK       I    between atoms: C24_24  and  O5_67 
REMARK       I    between atoms: C28_28  and  N7_85 
REMARK       I    between atoms: C29_29  and  C30_30 
REMARK       I    between atoms: C29_29  and  C34_34 
REMARK       I    between atoms: C29_29  and  N7_85 
REMARK       I    between atoms: C30_30  and  C31_31 
REMARK       I    between atoms: C31_31  and  C32_32 
REMARK       I    between atoms: C32_32  and  C33_33 
REMARK       I    between atoms: C33_33  and  N8_86 
REMARK       I    between atoms: C34_34  and  N9_87 
REMARK       I    between atoms: C35_35  and  N9_87 
REMARK       I    between atoms: C37_37  and  C42_42 
REMARK       I    between atoms: C38_38  and  O8_70 
REMARK       I    between atoms: C42_42  and  N10_88 
REMARK       I    between atoms: C43_43  and  C44_44 
REMARK       I    between atoms: C43_43  and  C48_48 
REMARK       I    between atoms: C43_43  and  N10_88 
REMARK       I    between atoms: C44_44  and  C45_45 
REMARK       I    between atoms: C45_45  and  C46_46 
REMARK       I    between atoms: C46_46  and  C47_47 
REMARK       I    between atoms: C47_47  and  N11_89 
REMARK       I    between atoms: C48_48  and  O11_73 
REMARK       I    between atoms: C49_49  and  O11_73 
REMARK       I    between atoms: C51_51  and  C56_56 
REMARK       I    between atoms: C52_52  and  O12_74 
REMARK       I    between atoms: C56_56  and  N12_90 
REMARK       I    between atoms: C57_57  and  C58_58 
REMARK       I    between atoms: C57_57  and  C62_62 
REMARK       I    between atoms: C57_57  and  N12_90 
REMARK       I    between atoms: C58_58  and  C59_59 
REMARK       I    between atoms: C59_59  and  C60_60 
REMARK       I    between atoms: C60_60  and  N13_91 
REMARK       I    between atoms: C61_61  and  N13_91 
REMARK       I    between atoms: C61_61  and  N14_92 
REMARK       I    between atoms: C62_62  and  O16_78 
USER                              x       y       z     vdW  Elec       q    Type
USER                           _______ _______ _______ _____ _____    ______ ____
ROOT
ATOM      1  C1  UNL     1      24.074   6.857   3.032+99.99 +0.00    +0.210 C 
ATOM      2  C2  UNL     1      25.307   6.678   5.078 +4.45 +0.00    +0.084 A 
ATOM      3  C3  UNL     1      25.365   6.902   6.469+99.99 +0.00    +0.067 A 
ATOM      4  C4  UNL     1      26.602   6.787   7.142+99.99 +0.00    +0.049 A 
ATOM      5  C5  UNL     1      27.769   6.450   6.458+54.74 +0.00    +0.035 A 
ATOM      6  C6  UNL     1      27.695   6.217   5.083+99.99 +0.00    +0.032 A 
ATOM      7  C7  UNL     1      26.479   6.328   4.400+18.79 +0.00    +0.040 A 
ATOM      8  C8  UNL     1      29.375   6.544   8.385+99.99 +0.00    +0.255 C 
ATOM      9  C9  UNL     1      30.863   6.231   8.691+99.99 +0.00    +0.309 C 
ATOM     10  C10 UNL     1      31.186   4.734   8.552+99.99 +0.00    +0.045 C 
ATOM     11  C11 UNL     1      30.396   3.818   9.496+57.12 +0.00    +0.004 C 
ATOM     12  C12 UNL     1      30.760   2.348   9.268+75.10 +0.00    +0.030 C 
ATOM     13  C13 UNL     1      29.959   1.431  10.190+99.99 +0.00    +0.267 C 
ATOM     14  C14 UNL     1      24.181   7.263   7.322+99.99 +0.00    +0.255 C 
ATOM     15  C15 UNL     1      21.788   7.918   7.399+19.96 +0.00    +0.177 C 
ATOM     16  C16 UNL     1      21.081   6.701   8.026 +1.76 +0.00    +0.035 C 
ATOM     17  C17 UNL     1      20.292   5.786   7.075 +4.43 +0.00    +0.004 C 
ATOM     18  C18 UNL     1      21.081   5.103   5.956+99.99 +0.00    +0.030 C 
ATOM     19  C19 UNL     1      22.155   4.141   6.464+99.99 +0.00    +0.267 C 
ATOM     20  C20 UNL     1      20.856   8.705   6.450+25.16 +0.00    +0.245 C 
ATOM     21  C21 UNL     1      18.800  10.141   6.562+99.99 +0.00    +0.035 A 
ATOM     22  C22 UNL     1      18.700  10.452   5.205+99.99 +0.00    +0.049 A 
ATOM     23  C23 UNL     1      17.596  11.170   4.716+10.68 +0.00    +0.067 A 
ATOM     24  C24 UNL     1      16.615  11.624   5.603+49.77 +0.00    +0.084 A 
ATOM     25  C25 UNL     1      16.714  11.324   6.963 +6.72 +0.00    +0.040 A 
ATOM     26  C26 UNL     1      17.805  10.593   7.438+99.99 +0.00    +0.032 A 
ATOM     27  C27 UNL     1      15.576  13.669   5.434+25.65 +0.00    +0.210 C 
ATOM     28  C28 UNL     1      17.498  11.471   3.267 -0.03 +0.00    +0.255 C 
ATOM     29  C29 UNL     1      17.759  10.583   0.942 -0.42 +0.00    +0.177 C 
ATOM     30  C30 UNL     1      18.692   9.550   0.278 -0.03 +0.00    +0.035 C 
ATOM     31  C31 UNL     1      18.185   8.112   0.051+47.88 +0.00    +0.004 C 
ATOM     32  C32 UNL     1      17.424   7.408   1.176 +4.24 +0.00    +0.030 C 
ATOM     33  C33 UNL     1      18.285   6.859   2.314+11.72 +0.00    +0.267 C 
ATOM     34  C34 UNL     1      16.345  10.642   0.291 +0.09 +0.00    +0.245 C 
ATOM     35  C35 UNL     1      14.097  11.688   0.692 +3.31 +0.00    +0.035 A 
ATOM     36  C36 UNL     1      13.388  11.009  -0.296+99.99 +0.00    +0.049 A 
ATOM     37  C37 UNL     1      12.027  11.277  -0.506+99.99 +0.00    +0.067 A 
ATOM     38  C38 UNL     1      11.377  12.251   0.255+75.53 +0.00    +0.084 A 
ATOM     39  C39 UNL     1      12.076  12.916   1.263+99.99 +0.00    +0.040 A 
ATOM     40  C40 UNL     1      13.430  12.636   1.477+36.30 +0.00    +0.032 A 
ATOM     41  C41 UNL     1       9.832  13.662  -0.686+99.99 +0.00    +0.210 C 
ATOM     42  C42 UNL     1      11.324  10.521  -1.566+99.99 +0.00    +0.255 C 
ATOM     43  C43 UNL     1      10.967   8.250  -2.503 +0.16 +0.00    +0.185 C 
ATOM     44  C44 UNL     1      12.009   8.134  -3.628+11.54 +0.00    +0.035 C 
ATOM     45  C45 UNL     1      13.378   7.621  -3.152+99.99 +0.00    +0.004 C 
ATOM     46  C46 UNL     1      14.390   7.574  -4.301+63.95 +0.00    +0.030 C 
ATOM     47  C47 UNL     1      15.807   7.208  -3.847 +2.30 +0.00    +0.267 C 
ATOM     48  C48 UNL     1      10.659   6.879  -1.897 -0.19 +0.00    +0.287 C 
ATOM     49  C49 UNL     1       9.560   4.863  -2.351 -0.16 +0.00    +0.080 A 
ATOM     50  C50 UNL     1       8.235   4.587  -2.018 -0.05 +0.00    +0.057 A 
ATOM     51  C51 UNL     1       7.867   3.291  -1.624 -0.09 +0.00    +0.068 A 
ATOM     52  C52 UNL     1       8.860   2.297  -1.560 -0.10 +0.00    +0.084 A 
ATOM     53  C53 UNL     1      10.180   2.579  -1.941 -0.19 +0.00    +0.040 A 
ATOM     54  C54 UNL     1      10.533   3.866  -2.340 +0.14 +0.00    +0.040 A 
ATOM     55  C55 UNL     1       9.019   0.732   0.128 -0.23 +0.00    +0.210 C 
ATOM     56  C56 UNL     1       6.427   3.070  -1.284 -0.04 +0.00    +0.255 C 
ATOM     57  C57 UNL     1       4.626   1.416  -0.864 -0.10 +0.00    +0.182 C 
ATOM     58  C58 UNL     1       4.519   0.200   0.062 +2.78 +0.00    +0.038 C 
ATOM     59  C59 UNL     1       5.044   0.501   1.469 +2.33 +0.00    +0.022 C 
ATOM     60  C60 UNL     1       4.994  -0.737   2.362+78.44 +0.00    +0.124 C 
ATOM     61  C61 UNL     1       6.864  -0.390   3.899+99.99 +0.00    +0.291 C 
ATOM     62  C62 UNL     1       3.983   1.091  -2.211 -0.08 +0.00    +0.163 C 
ATOM     63  O1  UNL     1      24.088   6.778   4.454+99.99 -0.00    -0.355 OA
ATOM     64  O2  UNL     1      28.626   6.967   9.262+99.99 -0.00    -0.271 OA
ATOM     65  O3  UNL     1      24.272   7.298   8.546+99.99 -0.00    -0.268 OA
ATOM     66  O4  UNL     1      21.009   8.658   5.230+31.66 -0.00    -0.271 OA
ATOM     67  O5  UNL     1      15.495  12.271   5.151+99.99 -0.00    -0.355 OA
ATOM     68  O6  UNL     1      17.157  12.580   2.868 -0.40 -0.00    -0.268 OA
ATOM     69  O7  UNL     1      16.107  10.111  -0.793+19.46 -0.00    -0.271 OA
ATOM     70  O8  UNL     1      10.039  12.491   0.108+14.44 -0.00    -0.355 OA
ATOM     71  O9  UNL     1      10.754  11.093  -2.485 -0.19 -0.00    -0.268 OA
ATOM     72  O10 UNL     1      11.083   6.492  -0.811 -0.25 -0.00    -0.263 OA
ATOM     73  O11 UNL     1       9.873   6.152  -2.787 -0.14 -0.00    -0.277 OA
ATOM     74  O12 UNL     1       8.559   1.006  -1.202 -0.05 -0.00    -0.355 OA
ATOM     75  O13 UNL     1       5.654   4.020  -1.204 -0.11 -0.00    -0.268 OA
ATOM     76  O14 UNL     1       7.736  -0.451   3.046+99.99 -0.00    -0.254 OA
ATOM     77  O15 UNL     1       4.547   0.689  -3.218 +0.03 -0.00    -0.648 OA
ATOM     78  O16 UNL     1       2.640   1.234  -2.199 +0.05 -0.00    -0.775 OA
ATOM     79  N1  UNL     1      29.037   6.313   7.061+99.99 -0.00    -0.325 N 
ATOM     80  N2  UNL     1      30.324   0.038   9.953+99.99 +0.00    +0.078 N 
ATOM     81  N3  UNL     1      31.223   6.734  10.032+21.18 +0.00    +0.092 N 
ATOM     82  N4  UNL     1      23.001   7.558   6.687+46.64 -0.00    -0.344 N 
ATOM     83  N5  UNL     1      22.896   3.562   5.346+99.99 +0.00    +0.078 N 
ATOM     84  N6  UNL     1      19.847   9.378   7.122+87.98 -0.00    -0.325 N 
ATOM     85  N7  UNL     1      17.753  10.430   2.403 -0.17 -0.00    -0.344 N 
ATOM     86  N8  UNL     1      18.962   7.919   3.045 +0.31 +0.00    +0.078 N 
ATOM     87  N9  UNL     1      15.457  11.459   0.971 -0.27 -0.00    -0.325 N 
ATOM     88  N10 UNL     1      11.420   9.154  -1.451+99.99 -0.00    -0.343 N 
ATOM     89  N11 UNL     1      15.898   5.864  -3.285+99.99 +0.00    +0.078 N 
ATOM     90  N12 UNL     1       6.023   1.773  -1.081 -0.02 -0.00    -0.342 N 
ATOM     91  N13 UNL     1       5.519  -0.469   3.686 +2.79 -0.00    -0.348 N 
ATOM     92  N14 UNL     1       7.158  -0.225   5.214+64.27 -0.00    -0.254 NA
ATOM     93  H68 UNL     1       2.377   1.022  -3.120 +0.03 +0.00    +0.167 HD
ATOM     94  H69 UNL     1      29.791   6.034   6.445+99.99 +0.00    +0.169 HD
ATOM     95  H70 UNL     1      31.309  -0.099  10.176+99.99 +0.00    +0.312 HD
ATOM     96  H71 UNL     1      29.802  -0.559  10.594 +0.75 +0.00    +0.312 HD
ATOM     97  H72 UNL     1      30.540   6.353  10.695+84.44 +0.00    +0.313 HD
ATOM     98  H73 UNL     1      31.013   7.736  10.054 +0.35 +0.00    +0.313 HD
ATOM     99  H74 UNL     1      22.971   7.548   5.669+26.78 +0.00    +0.163 HD
ATOM    100  H75 UNL     1      23.368   4.312   4.841+10.90 +0.00    +0.312 HD
ATOM    101  H76 UNL     1      22.247   3.137   4.687 +0.78 +0.00    +0.312 HD
ATOM    102  H77 UNL     1      19.828   9.276   8.131 +0.76 +0.00    +0.169 HD
ATOM    103  H78 UNL     1      17.993   9.509   2.784 +0.13 +0.00    +0.163 HD
ATOM    104  H79 UNL     1      19.328   7.550   3.930 +0.22 +0.00    +0.312 HD
ATOM    105  H80 UNL     1      19.815   8.177   2.544 +0.32 +0.00    +0.312 HD
ATOM    106  H81 UNL     1      15.862  12.008   1.732 +0.14 +0.00    +0.169 HD
ATOM    107  H82 UNL     1      11.872   8.743  -0.639+99.99 +0.00    +0.163 HD
ATOM    108  H83 UNL     1      15.368   5.823  -2.415+99.99 +0.00    +0.312 HD
ATOM    109  H84 UNL     1      15.462   5.197  -3.921+99.99 +0.00    +0.312 HD
ATOM    110  H85 UNL     1       6.659   1.040  -1.388 +0.05 +0.00    +0.163 HD
ATOM    111  H86 UNL     1       5.007  -0.859   4.465 +0.11 +0.00    +0.163 HD
ATOM    112  H87 UNL     1       6.541   0.395   5.719+99.99 +0.00    +0.128 HD
ATOM    113  H88 UNL     1       8.142  -0.036   5.369+99.99 +0.00    +0.128 HD
ENDROOT
TORSDOF 48
TER
