USER    Run = 1
USER    DPF = ligand_508_receptor.dpf
USER  
USER    Estimated Free Energy of Binding    = +251.71 kcal/mol  [=(1)+(2)+(3)-(4)]
USER    
USER    (1) Final Intermolecular Energy     = +250.51 kcal/mol
USER        vdW + Hbond + desolv Energy     = +250.51 kcal/mol
USER        Electrostatic Energy            =   +0.00 kcal/mol
USER    (2) Final Total Internal Energy     =  +16.15 kcal/mol
USER    (3) Torsional Free Energy           =   +1.19 kcal/mol
USER    (4) Unbound System's Energy  [=(2)] =  +16.15 kcal/mol
USER    
USER    
USER    NEWDPF move ligand_508.pdbqt
USER    NEWDPF about 0.000000 0.000000 0.000000
USER    NEWDPF tran0 25.927041 8.446520 3.051304
USER    NEWDPF quaternion0 0.795233 0.568680 -0.193240 0.082857
USER    NEWDPF axisangle0 0.797977 0.570642 -0.193907 170.494428
USER    NEWDPF quat0 0.797977 0.570642 -0.193907 170.494428
USER    NEWDPF dihe0 6.27 -3.67 -107.28 -139.52 123.67 -178.44 108.08 -179.60 -44.70 46.61 11.85 -46.50 52.41 -118.11 153.71 -49.93 122.40 0.14 77.65 49.16 23.58 76.47 49.61 -11.40 -63.23 22.05 160.70 -109.34 110.43 132.64 5.82 -168.89 
USER  keepresnum = 1 
USER  
REMARK  32 active torsions:
REMARK  status: ('A' for Active; 'I' for Inactive)
REMARK    1  A    between atoms: C2_2  and  C3_3 
REMARK    2  A    between atoms: C2_2  and  N6_60 
REMARK       I    between atoms: C3_3  and  N1_55 
REMARK    3  A    between atoms: C4_4  and  C5_5 
REMARK    4  A    between atoms: C4_4  and  C8_8 
REMARK    5  A    between atoms: C4_4  and  N1_55 
REMARK    6  A    between atoms: C5_5  and  C6_6 
REMARK    7  A    between atoms: C6_6  and  C7_7 
REMARK    8  A    between atoms: C7_7  and  O3_43 
REMARK       I    between atoms: C8_8  and  N2_56 
REMARK    9  A    between atoms: C9_9  and  C11_11 
REMARK   10  A    between atoms: C9_9  and  N2_56 
REMARK       I    between atoms: C11_11  and  N3_57 
REMARK   11  A    between atoms: C12_12  and  C13_13 
REMARK   12  A    between atoms: C12_12  and  C16_16 
REMARK   13  A    between atoms: C12_12  and  N3_57 
REMARK   14  A    between atoms: C13_13  and  C14_14 
REMARK   15  A    between atoms: C14_14  and  C15_15 
REMARK   16  A    between atoms: C15_15  and  O7_47 
REMARK       I    between atoms: C16_16  and  N4_58 
REMARK   17  A    between atoms: C17_17  and  C19_19 
REMARK   18  A    between atoms: C17_17  and  N4_58 
REMARK       I    between atoms: C19_19  and  N5_59 
REMARK   19  A    between atoms: C20_20  and  C21_21 
REMARK   20  A    between atoms: C20_20  and  C22_22 
REMARK   21  A    between atoms: C20_20  and  N5_59 
REMARK   22  A    between atoms: C21_21  and  S1_71 
REMARK   23  A    between atoms: C22_22  and  O11_51 
REMARK   24  A    between atoms: C23_23  and  C24_24 
REMARK       I    between atoms: C23_23  and  N6_60 
REMARK   25  A    between atoms: C24_24  and  C25_25 
REMARK   26  A    between atoms: C25_25  and  C26_26 
REMARK   27  A    between atoms: C26_26  and  N7_61 
REMARK   28  A    between atoms: C27_27  and  C28_28 
REMARK       I    between atoms: C27_27  and  N7_61 
REMARK   29  A    between atoms: C31_31  and  N8_62 
REMARK   30  A    between atoms: C34_34  and  C35_35 
REMARK   31  A    between atoms: C34_34  and  N8_62 
REMARK   32  A    between atoms: C40_40  and  N13_70 
USER                              x       y       z     vdW  Elec       q    Type
USER                           _______ _______ _______ _____ _____    ______ ____
ROOT
ATOM      1  C3  UNL     1      23.129   9.240   2.010 -0.33 +0.00    +0.240 C 
ATOM      2  O1  UNL     1      23.976   9.858   1.364 -0.25 -0.00    -0.271 OA
ATOM      3  N1  UNL     1      23.266   9.024   3.372 -0.22 -0.00    -0.346 N 
ATOM      4  H42 UNL     1      22.373   8.908   3.844 +0.12 +0.00    +0.163 HD
ENDROOT
BRANCH   3   5
ATOM      5  C4  UNL     1      24.320   9.748   4.071 -0.21 +0.00    +0.177 C 
BRANCH   5   6
ATOM      6  C5  UNL     1      24.802  11.023   3.359 +0.09 +0.00    +0.045 C 
BRANCH   6   7
ATOM      7  C6  UNL     1      25.838  10.845   2.250 +5.29 +0.00    +0.112 C 
BRANCH   7   8
ATOM      8  C7  UNL     1      26.238   9.418   2.035 -0.29 +0.00    +0.139 C 
ATOM      9  O2  UNL     1      27.335   9.056   1.633 +0.19 -0.00    -0.650 OA
BRANCH   8  10
ATOM     10  O3  UNL     1      25.231   8.554   2.237 +0.12 -0.00    -0.776 OA
ATOM     11  H39 UNL     1      25.603   7.681   1.994 +0.13 +0.00    +0.167 HD
ENDBRANCH   8  10
ENDBRANCH   7   8
ENDBRANCH   6   7
ENDBRANCH   5   6
BRANCH   5  12
ATOM     12  C8  UNL     1      25.490   8.777   4.366 +1.82 +0.00    +0.241 C 
ATOM     13  O4  UNL     1      26.670   9.120   4.323 +5.33 -0.00    -0.271 OA
ATOM     14  N2  UNL     1      25.093   7.492   4.658 +0.66 -0.00    -0.346 N 
ATOM     15  H43 UNL     1      24.117   7.235   4.476 +1.67 +0.00    +0.163 HD
BRANCH  14  16
ATOM     16  C9  UNL     1      26.034   6.376   4.638 +2.28 +0.00    +0.172 C 
ATOM     17  C10 UNL     1      26.048   5.687   5.995 +4.71 +0.00    +0.042 C 
BRANCH  16  18
ATOM     18  C11 UNL     1      25.620   5.396   3.515+28.40 +0.00    +0.240 C 
ATOM     19  O5  UNL     1      24.738   4.549   3.652+36.79 -0.00    -0.271 OA
ATOM     20  N3  UNL     1      26.342   5.499   2.341+23.05 -0.00    -0.346 N 
ATOM     21  H44 UNL     1      26.835   6.374   2.170 +0.23 +0.00    +0.163 HD
BRANCH  20  22
ATOM     22  C12 UNL     1      25.967   4.746   1.136 +0.79 +0.00    +0.177 C 
BRANCH  22  23
ATOM     23  C13 UNL     1      27.188   3.977   0.611 +2.01 +0.00    +0.045 C 
BRANCH  23  24
ATOM     24  C14 UNL     1      27.152   3.742  -0.898 -0.06 +0.00    +0.112 C 
BRANCH  24  25
ATOM     25  C15 UNL     1      27.548   4.959  -1.679 -0.24 +0.00    +0.139 C 
ATOM     26  O6  UNL     1      28.693   5.311  -1.912 +0.03 -0.00    -0.650 OA
BRANCH  25  27
ATOM     27  O7  UNL     1      26.491   5.637  -2.157 +0.21 -0.00    -0.776 OA
ATOM     28  H40 UNL     1      26.890   6.328  -2.726 +0.12 +0.00    +0.167 HD
ENDBRANCH  25  27
ENDBRANCH  24  25
ENDBRANCH  23  24
ENDBRANCH  22  23
BRANCH  22  29
ATOM     29  C16 UNL     1      25.414   5.783   0.125 -0.33 +0.00    +0.241 C 
ATOM     30  O8  UNL     1      24.320   5.691  -0.424 -0.35 -0.00    -0.271 OA
ATOM     31  N4  UNL     1      26.286   6.827  -0.126 -0.13 -0.00    -0.346 N 
ATOM     32  H45 UNL     1      27.230   6.726   0.243 +0.10 +0.00    +0.163 HD
BRANCH  31  33
ATOM     33  C17 UNL     1      26.110   7.664  -1.300 +2.31 +0.00    +0.172 C 
ATOM     34  C18 UNL     1      25.480   8.995  -0.916+29.49 +0.00    +0.042 C 
BRANCH  33  35
ATOM     35  C19 UNL     1      27.486   7.906  -1.966 +5.69 +0.00    +0.240 C 
ATOM     36  O9  UNL     1      27.684   7.837  -3.181+12.30 -0.00    -0.271 OA
ATOM     37  N5  UNL     1      28.506   8.157  -1.080 +0.08 -0.00    -0.344 N 
ATOM     38  H46 UNL     1      28.314   8.224  -0.085 +0.08 +0.00    +0.163 HD
BRANCH  37  39
ATOM     39  C20 UNL     1      29.909   8.243  -1.494 -0.15 +0.00    +0.191 C 
BRANCH  39  40
ATOM     40  C21 UNL     1      30.784   8.928  -0.434 -0.24 +0.00    +0.106 C 
BRANCH  40  41
ATOM     41  S1  UNL     1      30.956   7.976   1.122 -0.29 -0.00    -0.180 SA
ATOM     42  H53 UNL     1      31.711   8.881   1.779 +0.02 +0.00    +0.101 HD
ENDBRANCH  40  41
ENDBRANCH  39  40
BRANCH  39  43
ATOM     43  C22 UNL     1      29.994   8.959  -2.837 +0.05 +0.00    +0.164 C 
ATOM     44  O10 UNL     1      29.272   8.752  -3.803 -0.21 -0.00    -0.648 OA
BRANCH  43  45
ATOM     45  O11 UNL     1      30.983   9.875  -2.878 +0.11 -0.00    -0.775 OA
ATOM     46  H41 UNL     1      31.796   9.392  -2.580 +0.05 +0.00    +0.167 HD
ENDBRANCH  43  45
ENDBRANCH  39  43
ENDBRANCH  37  39
ENDBRANCH  33  35
ENDBRANCH  31  33
ENDBRANCH  22  29
ENDBRANCH  20  22
ENDBRANCH  16  18
ENDBRANCH  14  16
ENDBRANCH   5  12
ENDBRANCH   3   5
BRANCH   1  47
ATOM     47  C2  UNL     1      21.893   8.578   1.369 +1.32 +0.00    +0.172 C 
ATOM     48  C1  UNL     1      21.518   9.285   0.073 -0.08 +0.00    +0.042 C 
BRANCH  47  49
ATOM     49  N6  UNL     1      20.746   8.564   2.281 +2.65 -0.00    -0.348 N 
ATOM     50  C23 UNL     1      20.598   9.493   3.287 +0.28 +0.00    +0.218 C 
ATOM     51  O12 UNL     1      21.400  10.401   3.486 +0.16 -0.00    -0.274 OA
ATOM     52  H47 UNL     1      19.972   7.942   2.070 +2.66 +0.00    +0.163 HD
BRANCH  50  53
ATOM     53  C24 UNL     1      19.363   9.263   4.137 +4.66 +0.00    +0.104 C 
BRANCH  53  54
ATOM     54  C25 UNL     1      19.509   8.108   5.128 +9.94 +0.00    +0.029 C 
BRANCH  54  55
ATOM     55  C26 UNL     1      18.447   7.022   4.961+49.38 +0.00    +0.123 C 
BRANCH  55  56
ATOM     56  N7  UNL     1      17.112   7.549   4.798 +0.33 -0.00    -0.357 N 
ATOM     57  C27 UNL     1      16.415   7.354   3.627 +0.36 +0.00    +0.251 C 
ATOM     58  O13 UNL     1      16.893   6.793   2.646 +0.04 -0.00    -0.268 OA
ATOM     59  H48 UNL     1      16.621   7.876   5.631 +0.37 +0.00    +0.162 HD
BRANCH  57  60
ATOM     60  C28 UNL     1      15.014   7.856   3.584 -0.44 +0.00    +0.032 A 
ATOM     61  C29 UNL     1      14.648   9.012   2.892 +0.66 +0.00    +0.019 A 
ATOM     62  C30 UNL     1      13.304   9.404   2.851+16.24 +0.00    +0.024 A 
ATOM     63  C31 UNL     1      12.298   8.648   3.471 +0.12 +0.00    +0.008 A 
ATOM     64  C32 UNL     1      12.690   7.519   4.200 -0.41 +0.00    +0.024 A 
ATOM     65  C33 UNL     1      14.028   7.111   4.235 -0.44 +0.00    +0.019 A 
BRANCH  63  66
ATOM     66  N8  UNL     1      10.983   9.129   3.434 +1.31 -0.00    -0.287 NA
ATOM     67  H49 UNL     1      10.537   8.905   2.542 +0.43 +0.00    +0.128 HD
BRANCH  66  68
ATOM     68  C34 UNL     1      10.109   8.890   4.580 +0.00 +0.00    +0.151 C 
BRANCH  68  69
ATOM     69  C35 UNL     1       9.379   7.578   4.407 +0.62 +0.00    +0.038 A 
ATOM     70  C36 UNL     1       8.167   7.525   3.718 +0.87 +0.00    +0.116 A 
ATOM     71  N9  UNL     1       7.480   6.373   3.504 -0.07 -0.00    -0.348 N 
ATOM     72  C37 UNL     1       8.055   5.245   3.980 -0.15 +0.00    +0.140 A 
ATOM     73  H9  UNL     1       6.585   6.360   3.014 +0.07 +0.00    +0.167 HD
ATOM     74  C38 UNL     1       9.270   5.300   4.648 -0.18 +0.00    +0.146 A 
ATOM     75  N12 UNL     1       7.346   4.060   3.749 -0.08 -0.00    -0.317 N 
ATOM     76  C39 UNL     1       9.823   4.016   5.115 -0.22 +0.00    +0.278 A 
ATOM     77  N10 UNL     1       9.973   6.449   4.888 -0.08 -0.00    -0.350 N 
ATOM     78  O14 UNL     1      10.874   3.943   5.745 -0.31 -0.00    -0.265 OA
ATOM     79  N11 UNL     1       9.076   2.903   4.806 -0.13 -0.00    -0.298 N 
ATOM     80  C40 UNL     1       7.874   2.954   4.161 -0.09 +0.00    +0.159 A 
ATOM     81  H50 UNL     1       9.419   2.022   5.158 -0.35 +0.00    +0.171 HD
ATOM     82  H10 UNL     1      10.864   6.461   5.384 +0.11 +0.00    +0.166 HD
ATOM     83  H12 UNL     1       6.444   4.069   3.272 +0.08 +0.00    +0.170 HD
BRANCH  80  84
ATOM     84  N13 UNL     1       7.243   1.773   3.963 +0.49 -0.00    -0.274 NA
ATOM     85  H51 UNL     1       7.657   1.027   4.518 -0.36 +0.00    +0.127 HD
ATOM     86  H52 UNL     1       6.233   1.779   4.027 -0.27 +0.00    +0.127 HD
ENDBRANCH  80  84
ENDBRANCH  68  69
ENDBRANCH  66  68
ENDBRANCH  63  66
ENDBRANCH  57  60
ENDBRANCH  55  56
ENDBRANCH  54  55
ENDBRANCH  53  54
ENDBRANCH  50  53
ENDBRANCH  47  49
ENDBRANCH   1  47
TORSDOF 32
TER
