USER    Run = 1
USER    DPF = ligand_379_receptor.dpf
USER  
USER    Estimated Free Energy of Binding    = +928.29 kcal/mol  [=(1)+(2)+(3)-(4)]
USER    
USER    (1) Final Intermolecular Energy     = +927.09 kcal/mol
USER        vdW + Hbond + desolv Energy     = +927.09 kcal/mol
USER        Electrostatic Energy            =   +0.00 kcal/mol
USER    (2) Final Total Internal Energy     =  +84.81 kcal/mol
USER    (3) Torsional Free Energy           =   +1.19 kcal/mol
USER    (4) Unbound System's Energy  [=(2)] =  +84.81 kcal/mol
USER    
USER    
USER    NEWDPF move ligand_379.pdbqt
USER    NEWDPF about 0.000000 0.000000 0.000000
USER    NEWDPF tran0 17.444073 9.486755 4.584904
USER    NEWDPF quaternion0 -0.353240 -0.208977 0.496182 -0.765084
USER    NEWDPF axisangle0 -0.548568 -0.324534 0.770552 -80.171114
USER    NEWDPF quat0 -0.548568 -0.324534 0.770552 -80.171114
USER    NEWDPF dihe0 -9.86 134.13 -151.68 53.86 93.11 -109.10 -28.28 -23.22 97.40 179.10 -151.35 -61.42 -63.99 -178.21 -66.45 -166.21 -180.00 25.99 111.34 -61.71 
USER  keepresnum = 1 
USER  
REMARK  20 active torsions:
REMARK  status: ('A' for Active; 'I' for Inactive)
REMARK    1  A    between atoms: C2_2  and  C3_3 
REMARK    2  A    between atoms: C2_2  and  N9_91 
REMARK       I    between atoms: C3_3  and  N1_83 
REMARK    3  A    between atoms: C4_4  and  C5_5 
REMARK    4  A    between atoms: C4_4  and  C69_69 
REMARK    5  A    between atoms: C4_4  and  N1_83 
REMARK       I    between atoms: C5_5  and  N2_84 
REMARK    6  A    between atoms: C7_7  and  N4_86 
REMARK    7  A    between atoms: C9_9  and  C10_10 
REMARK       I    between atoms: C10_10  and  N3_85 
REMARK    8  A    between atoms: C11_11  and  N3_85 
REMARK    9  A    between atoms: C22_22  and  C23_23 
REMARK       I    between atoms: C22_22  and  N4_86 
REMARK   10  A    between atoms: C26_26  and  N5_87 
REMARK   11  A    between atoms: C29_29  and  C30_30 
REMARK       I    between atoms: C29_29  and  N5_87 
REMARK   12  A    between atoms: C33_33  and  C36_36 
REMARK   13  A    between atoms: C36_36  and  C37_37 
REMARK   14  A    between atoms: C37_37  and  C38_38 
REMARK   15  A    between atoms: C37_37  and  N8_90 
REMARK       I    between atoms: C38_38  and  N6_88 
REMARK   16  A    between atoms: C41_41  and  C42_42 
REMARK       I    between atoms: C42_42  and  N7_89 
REMARK   17  A    between atoms: C43_43  and  N7_89 
REMARK   18  A    between atoms: C54_54  and  O9_82 
REMARK       I    between atoms: C54_54  and  N8_90 
REMARK   19  A    between atoms: C55_55  and  C56_56 
REMARK   20  A    between atoms: C55_55  and  O9_82 
USER                              x       y       z     vdW  Elec       q    Type
USER                           _______ _______ _______ _____ _____    ______ ____
ROOT
ATOM      1  C29 UNL     1      14.245   8.260   3.560 -0.31 +0.00    +0.256 C 
ATOM      2  O5  UNL     1      14.688   7.599   2.628 +0.62 -0.00    -0.267 OA
ATOM      3  N5  UNL     1      14.975   9.051   4.430 -0.03 -0.00    -0.323 N 
ATOM      4  H83 UNL     1      14.449   9.635   5.065 +0.18 +0.00    +0.169 HD
ENDROOT
BRANCH   1   5
ATOM      5  C30 UNL     1      12.772   8.251   3.796 -0.34 +0.00    +0.032 A 
ATOM      6  C31 UNL     1      12.153   7.259   4.565 -0.38 +0.00    +0.017 A 
ATOM      7  C32 UNL     1      10.767   7.268   4.733 -0.36 +0.00    +0.008 A 
ATOM      8  C33 UNL     1       9.975   8.249   4.116 -0.34 -0.00    -0.056 A 
ATOM      9  C34 UNL     1      10.600   9.238   3.348 +4.40 +0.00    +0.008 A 
ATOM     10  C35 UNL     1      11.988   9.236   3.183 +5.36 +0.00    +0.017 A 
BRANCH   8  11
ATOM     11  C36 UNL     1       8.466   8.201   4.256+16.08 +0.00    +0.073 C 
BRANCH  11  12
ATOM     12  C37 UNL     1       7.751   7.056   3.503 +0.07 +0.00    +0.183 C 
BRANCH  12  13
ATOM     13  C38 UNL     1       7.443   5.868   4.439 -0.11 +0.00    +0.243 C 
ATOM     14  O6  UNL     1       8.173   4.875   4.445 -0.14 -0.00    -0.271 OA
ATOM     15  N6  UNL     1       6.356   5.997   5.310 +0.07 -0.00    -0.337 N 
ATOM     16  C39 UNL     1       5.076   6.507   4.777 +2.58 +0.00    +0.131 C 
ATOM     17  C41 UNL     1       6.108   4.936   6.326 -0.35 +0.00    +0.179 C 
ATOM     18  C74 UNL     1       4.069   4.850   4.547 -0.19 +0.00    +0.002 C 
ATOM     19  C40 UNL     1       5.308   3.816   5.630 -0.34 +0.00    +0.041 C 
ATOM     20  C53 UNL     1       2.389   4.955   5.298 -0.14 +0.00    +0.011 C 
BRANCH  17  21
ATOM     21  C42 UNL     1       7.250   4.455   7.255 -0.37 +0.00    +0.241 C 
ATOM     22  O7  UNL     1       7.553   5.082   8.271 -0.20 -0.00    -0.271 OA
ATOM     23  N7  UNL     1       7.872   3.290   6.889 +0.07 -0.00    -0.351 N 
ATOM     24  H84 UNL     1       7.826   3.058   5.896 -0.32 +0.00    +0.163 HD
BRANCH  23  25
ATOM     25  C43 UNL     1       9.002   2.743   7.624 +0.05 +0.00    +0.118 C 
ATOM     26  C44 UNL     1       9.098   3.323   9.045 +0.94 +0.00    +0.030 C 
ATOM     27  C45 UNL     1       9.670   4.737   9.040 +1.85 +0.00    +0.007 C 
ATOM     28  C46 UNL     1      11.080   4.748   8.461 -0.44 +0.00    +0.039 C 
ATOM     29  C47 UNL     1      11.216   3.950   7.188 -0.44 -0.00    -0.050 A 
ATOM     30  C48 UNL     1      12.352   4.144   6.387 -0.48 +0.00    +0.007 A 
ATOM     31  C52 UNL     1      10.267   2.977   6.817 -0.24 -0.00    -0.029 A 
ATOM     32  C49 UNL     1      12.542   3.398   5.224 +2.16 +0.00    +0.001 A 
ATOM     33  C50 UNL     1      11.601   2.443   4.851 +2.43 +0.00    +0.001 A 
ATOM     34  C51 UNL     1      10.471   2.235   5.640 +3.79 +0.00    +0.010 A 
ENDBRANCH  23  25
ENDBRANCH  17  21
ENDBRANCH  12  13
BRANCH  12  35
ATOM     35  N8  UNL     1       6.481   7.449   2.905 +0.54 -0.00    -0.323 N 
ATOM     36  C54 UNL     1       6.002   8.715   2.973+34.93 +0.00    +0.361 C 
ATOM     37  O8  UNL     1       6.629   9.684   3.370+30.14 -0.00    -0.239 OA
ATOM     38  H85 UNL     1       5.786   6.725   2.756 +0.07 +0.00    +0.165 HD
BRANCH  36  39
ATOM     39  O9  UNL     1       4.703   8.713   2.597 +2.97 -0.00    -0.303 OA
BRANCH  39  40
ATOM     40  C55 UNL     1       4.081   7.418   2.629 +1.18 +0.00    +0.194 C 
BRANCH  40  41
ATOM     41  C56 UNL     1       4.529   6.602   1.412 +3.33 +0.00    +0.078 A 
ATOM     42  C57 UNL     1       4.412   5.102   1.663 -0.15 -0.00    -0.036 A 
ATOM     43  C58 UNL     1       3.276   4.365   1.964 +0.01 +0.00    +0.009 A 
ATOM     44  C62 UNL     1       5.676   4.484   1.538 -0.13 -0.00    -0.018 A 
ATOM     45  C59 UNL     1       3.415   2.989   2.154 -0.10 +0.00    +0.001 A 
ATOM     46  C60 UNL     1       4.671   2.371   2.038 -0.14 +0.00    +0.001 A 
ATOM     47  C61 UNL     1       5.811   3.118   1.727 -0.11 +0.00    +0.013 A 
ATOM     48  C63 UNL     1       6.659   5.489   1.196 -0.18 -0.00    -0.018 A 
ATOM     49  C64 UNL     1       8.018   5.370   0.948 -0.15 +0.00    +0.013 A 
ATOM     50  C68 UNL     1       6.020   6.744   1.106 -0.28 -0.00    -0.036 A 
ATOM     51  C65 UNL     1       8.733   6.518   0.591 -0.26 +0.00    +0.001 A 
ATOM     52  C66 UNL     1       8.088   7.760   0.482 -0.34 +0.00    +0.001 A 
ATOM     53  C67 UNL     1       6.723   7.883   0.743 -0.38 +0.00    +0.009 A 
ENDBRANCH  40  41
ENDBRANCH  39  40
ENDBRANCH  36  39
ENDBRANCH  12  35
ENDBRANCH  11  12
ENDBRANCH   8  11
ENDBRANCH   1   5
BRANCH   3  54
ATOM     54  C26 UNL     1      16.377   9.174   4.502 -0.05 +0.00    +0.035 A 
ATOM     55  C25 UNL     1      17.084  10.303   4.084 -0.32 +0.00    +0.030 A 
ATOM     56  C24 UNL     1      18.481  10.341   4.173 +8.61 +0.00    +0.019 A 
ATOM     57  C23 UNL     1      19.187   9.252   4.692+15.31 +0.00    +0.032 A 
ATOM     58  C28 UNL     1      18.487   8.111   5.098+15.57 +0.00    +0.019 A 
ATOM     59  C27 UNL     1      17.091   8.078   5.004 +1.63 +0.00    +0.030 A 
BRANCH  57  60
ATOM     60  C22 UNL     1      20.671   9.337   4.767+69.02 +0.00    +0.252 C 
ATOM     61  O4  UNL     1      21.307   8.517   5.417+99.99 -0.00    -0.268 OA
ATOM     62  N4  UNL     1      21.265  10.357   4.045+12.78 -0.00    -0.351 N 
ATOM     63  H82 UNL     1      20.710  10.785   3.315 +0.16 +0.00    +0.163 HD
BRANCH  62  64
ATOM     64  C7  UNL     1      22.708  10.396   3.898 -0.41 +0.00    +0.105 C 
ATOM     65  C6  UNL     1      23.175  10.728   2.479+16.01 +0.00    +0.152 C 
ATOM     66  N2  UNL     1      24.521  10.170   2.388 -0.18 -0.00    -0.335 N 
ATOM     67  C5  UNL     1      25.611  10.834   1.849 +1.43 +0.00    +0.244 C 
ATOM     68  C9  UNL     1      24.734   9.196   3.480 -0.52 +0.00    +0.181 C 
ATOM     69  O2  UNL     1      26.739  10.622   2.312+20.18 -0.00    -0.271 OA
ATOM     70  C8  UNL     1      23.358   9.041   4.140 -0.34 +0.00    +0.061 C 
BRANCH  67  71
ATOM     71  C4  UNL     1      25.393  11.825   0.658+99.99 +0.00    +0.184 C 
BRANCH  71  72
ATOM     72  C69 UNL     1      25.461  13.363   0.986 +5.76 -0.00    -0.022 C 
ATOM     73  C70 UNL     1      24.464  14.136   0.089+99.99 +0.00    +0.017 C 
ATOM     74  C71 UNL     1      25.035  13.637   2.446+71.00 +0.00    +0.017 C 
ATOM     75  C72 UNL     1      26.839  14.004   0.740+10.32 +0.00    +0.017 C 
ENDBRANCH  71  72
BRANCH  71  76
ATOM     76  N1  UNL     1      24.242  11.359  -0.141+99.99 -0.00    -0.345 N 
ATOM     77  C3  UNL     1      23.152  12.128  -0.501 +3.28 +0.00    +0.251 C 
ATOM     78  O1  UNL     1      23.064  13.332  -0.277+16.87 -0.00    -0.271 OA
ATOM     79  H80 UNL     1      24.058  10.366  -0.081 +0.39 +0.00    +0.163 HD
BRANCH  77  80
ATOM     80  C2  UNL     1      22.006  11.326  -1.180+11.66 +0.00    +0.307 C 
ATOM     81  C1  UNL     1      20.648  12.019  -1.051 +1.96 +0.00    +0.053 C 
BRANCH  80  82
ATOM     82  N9  UNL     1      21.994   9.921  -0.706 +1.02 +0.00    +0.092 N 
ATOM     83  C73 UNL     1      21.637   9.769   0.701 -0.24 +0.00    +0.307 C 
ATOM     84  H86 UNL     1      22.953   9.572  -0.815 +0.26 +0.00    +0.316 HD
ENDBRANCH  80  82
ENDBRANCH  77  80
ENDBRANCH  71  76
ENDBRANCH  67  71
BRANCH  68  85
ATOM     85  C10 UNL     1      25.287   7.834   3.003 -0.33 +0.00    +0.241 C 
ATOM     86  O3  UNL     1      25.491   6.899   3.775 +0.34 -0.00    -0.271 OA
ATOM     87  N3  UNL     1      25.587   7.778   1.659 -0.15 -0.00    -0.351 N 
ATOM     88  H81 UNL     1      25.483   8.642   1.128 +0.13 +0.00    +0.163 HD
BRANCH  87  89
ATOM     89  C11 UNL     1      26.339   6.678   1.060 -0.32 +0.00    +0.117 C 
ATOM     90  C12 UNL     1      26.120   6.668  -0.469 -0.42 +0.00    +0.030 C 
ATOM     91  C13 UNL     1      26.992   7.629  -1.281 +0.65 +0.00    +0.002 C 
ATOM     92  C14 UNL     1      28.511   7.518  -1.097 -0.32 +0.00    +0.004 C 
ATOM     93  C15 UNL     1      29.076   6.093  -1.010 -0.22 +0.00    +0.027 C 
ATOM     94  C16 UNL     1      29.575   5.789   0.375 -0.23 -0.00    -0.027 C 
ATOM     95  C17 UNL     1      29.118   4.890   1.259 +1.20 -0.00    -0.004 C 
ATOM     96  C18 UNL     1      28.033   3.958   1.097 +3.28 +0.00    +0.000 C 
ATOM     97  C19 UNL     1      26.715   4.133   1.293+64.05 +0.00    +0.008 C 
ATOM     98  C20 UNL     1      25.918   5.318   1.631 +1.16 -0.00    -0.045 C 
ATOM     99  C21 UNL     1      24.800   5.098   2.352 +4.37 +0.00    +0.021 C 
ENDBRANCH  87  89
ENDBRANCH  68  85
ENDBRANCH  62  64
ENDBRANCH  57  60
ENDBRANCH   3  54
TORSDOF 20
TER
