USER    Run = 1
USER    DPF = ligand_163_receptor.dpf
USER  
USER    Estimated Free Energy of Binding    =   -8.02 kcal/mol  [=(1)+(2)+(3)-(4)]
USER    Estimated Inhibition Constant, Ki   =    1.32 uM (micromolar)  [Temperature = 298.15 K]
USER    
USER    (1) Final Intermolecular Energy     =   -9.22 kcal/mol
USER        vdW + Hbond + desolv Energy     =   -9.22 kcal/mol
USER        Electrostatic Energy            =   +0.00 kcal/mol
USER    (2) Final Total Internal Energy     =   -1.45 kcal/mol
USER    (3) Torsional Free Energy           =   +1.19 kcal/mol
USER    (4) Unbound System's Energy  [=(2)] =   -1.45 kcal/mol
USER    
USER    
USER    NEWDPF move ligand_163.pdbqt
USER    NEWDPF about 0.000000 0.000000 0.000000
USER    NEWDPF tran0 14.469005 7.642163 0.096855
USER    NEWDPF quaternion0 -0.314069 0.736417 0.566298 0.195847
USER    NEWDPF axisangle0 -0.320272 0.750960 0.577481 157.411535
USER    NEWDPF quat0 -0.320272 0.750960 0.577481 157.411535
USER    NEWDPF dihe0 -18.39 32.26 175.69 -93.54 -165.85 -145.30 -173.95 -180.00 -156.91 -126.29 -41.13 -128.97 
USER  keepresnum = 1 
USER  
REMARK  12 active torsions:
REMARK  status: ('A' for Active; 'I' for Inactive)
REMARK       I    between atoms: C2_2  and  N1_30 
REMARK       I    between atoms: C2_2  and  N2_31 
REMARK       I    between atoms: C2_2  and  N3_32 
REMARK    1  A    between atoms: C3_3  and  C4_4 
REMARK    2  A    between atoms: C3_3  and  N3_32 
REMARK    3  A    between atoms: C4_4  and  C5_5 
REMARK    4  A    between atoms: C5_5  and  N4_33 
REMARK    5  A    between atoms: C6_6  and  C7_7 
REMARK       I    between atoms: C6_6  and  N4_33 
REMARK    6  A    between atoms: C13_13  and  C15_15 
REMARK       I    between atoms: C15_15  and  N6_35 
REMARK    7  A    between atoms: C16_16  and  N6_35 
REMARK    8  A    between atoms: C23_23  and  C24_24 
REMARK       I    between atoms: C24_24  and  N8_37 
REMARK    9  A    between atoms: C25_25  and  C26_26 
REMARK   10  A    between atoms: C25_25  and  N8_37 
REMARK   11  A    between atoms: C26_26  and  C27_27 
REMARK   12  A    between atoms: C27_27  and  N9_38 
REMARK       I    between atoms: C28_28  and  N9_38 
REMARK       I    between atoms: C28_28  and  N11_41 
USER                              x       y       z     vdW  Elec       q    Type
USER                           _______ _______ _______ _____ _____    ______ ____
ROOT
ATOM      1  C15 UNL     1      14.896   7.554  -0.227 +0.70 +0.00    +0.272 C 
ATOM      2  N6  UNL     1      15.373   8.158   0.924 +0.28 -0.00    -0.322 N 
ATOM      3  O2  UNL     1      15.521   7.432  -1.273 -0.46 -0.00    -0.266 OA
ATOM      4  H34 UNL     1      14.850   7.994   1.771 -0.39 +0.00    +0.169 HD
ENDROOT
BRANCH   1   5
ATOM      5  C13 UNL     1      13.553   7.015  -0.083 +0.10 +0.00    +0.102 A 
ATOM      6  C14 UNL     1      12.685   6.633  -1.093 -0.34 +0.00    +0.049 A 
ATOM      7  C9  UNL     1      11.478   6.170  -0.505 -0.38 -0.00    -0.006 A 
ATOM      8  C8  UNL     1      10.272   5.656  -1.022 -0.23 +0.00    +0.030 A 
ATOM      9  C10 UNL     1      11.617   6.314   0.872 -0.35 +0.00    +0.043 A 
ATOM     10  C7  UNL     1       9.249   5.289  -0.132 -0.16 +0.00    +0.033 A 
ATOM     11  C12 UNL     1       9.416   5.462   1.246 -0.17 +0.00    +0.019 A 
ATOM     12  C11 UNL     1      10.604   5.977   1.775 -0.22 +0.00    +0.031 A 
ATOM     13  N5  UNL     1      12.866   6.847   1.099 -0.10 -0.00    -0.351 N 
ATOM     14  H33 UNL     1      13.204   7.122   2.010 -0.14 +0.00    +0.166 HD
BRANCH  10  15
ATOM     15  C6  UNL     1       7.953   4.736  -0.618 -0.06 +0.00    +0.251 C 
ATOM     16  N4  UNL     1       6.810   5.347  -0.143 -0.05 -0.00    -0.357 N 
ATOM     17  H32 UNL     1       6.883   6.215   0.367 +0.05 +0.00    +0.162 HD
ATOM     18  O1  UNL     1       7.942   3.814  -1.426 -0.07 -0.00    -0.268 OA
BRANCH  16  19
ATOM     19  C5  UNL     1       5.488   4.936  -0.583 -0.04 +0.00    +0.124 C 
BRANCH  19  20
ATOM     20  C4  UNL     1       4.748   4.159   0.505 -0.16 +0.00    +0.050 C 
BRANCH  20  21
ATOM     21  C3  UNL     1       5.412   4.303   1.876 -0.06 +0.00    +0.276 C 
BRANCH  21  22
ATOM     22  N3  UNL     1       5.907   3.008   2.352 -0.10 +0.00    +0.147 N 
ATOM     23  C2  UNL     1       6.911   3.137   3.359 +0.03 +0.00    +0.675 C 
ATOM     24  N1  UNL     1       6.335   3.577   4.584 -0.19 +0.00    +0.142 N 
ATOM     25  N2  UNL     1       7.227   1.781   3.659 -0.06 +0.00    +0.142 N 
ATOM     26  C1  UNL     1       6.837   4.882   4.989 -0.15 +0.00    +0.312 C 
ATOM     27  H28 UNL     1       6.641   2.895   5.275 -0.35 +0.00    +0.320 HD
ATOM     28  H29 UNL     1       7.625   1.351   2.833 -0.11 +0.00    +0.318 HD
ATOM     29  H30 UNL     1       6.314   1.343   3.772 -0.05 +0.00    +0.318 HD
ATOM     30  H31 UNL     1       6.320   2.523   1.563 +0.12 +0.00    +0.321 HD
ENDBRANCH  21  22
ENDBRANCH  20  21
ENDBRANCH  19  20
ENDBRANCH  16  19
ENDBRANCH  10  15
ENDBRANCH   1   5
BRANCH   2  31
ATOM     31  C16 UNL     1      16.593   8.851   1.091 -0.49 +0.00    +0.037 A 
ATOM     32  C17 UNL     1      17.570   8.479   2.022 -0.35 +0.00    +0.059 A 
ATOM     33  C18 UNL     1      18.747   9.241   2.083 -0.17 +0.00    +0.045 A 
ATOM     34  C19 UNL     1      18.981  10.338   1.263 -0.48 -0.00    -0.007 A 
ATOM     35  N7  UNL     1      19.849   9.101   2.891 -0.13 -0.00    -0.351 N 
ATOM     36  C20 UNL     1      17.998  10.701   0.327 -0.47 +0.00    +0.016 A 
ATOM     37  C22 UNL     1      20.263  10.853   1.606 -0.47 +0.00    +0.049 A 
ATOM     38  C21 UNL     1      16.815   9.951   0.252 -0.40 +0.00    +0.030 A 
ATOM     39  C23 UNL     1      20.791  10.072   2.621 -0.30 +0.00    +0.102 A 
ATOM     40  H35 UNL     1      19.970   8.386   3.598 +0.10 +0.00    +0.166 HD
BRANCH  39  41
ATOM     41  C24 UNL     1      22.039  10.120   3.351 -0.12 +0.00    +0.268 C 
ATOM     42  N8  UNL     1      22.769   8.953   3.354 -0.18 -0.00    -0.356 N 
ATOM     43  H36 UNL     1      22.381   8.134   2.910 +0.11 +0.00    +0.162 HD
ATOM     44  O3  UNL     1      22.416  11.134   3.931 -0.07 -0.00    -0.266 OA
BRANCH  42  45
ATOM     45  C25 UNL     1      24.006   8.824   4.094 -0.44 +0.00    +0.124 C 
BRANCH  45  46
ATOM     46  C26 UNL     1      25.243   9.020   3.219 -0.66 +0.00    +0.039 C 
BRANCH  46  47
ATOM     47  C27 UNL     1      25.537   7.789   2.365 -0.46 +0.00    +0.123 C 
BRANCH  47  48
ATOM     48  N9  UNL     1      24.767   7.846   1.129 -0.12 -0.00    -0.367 N 
ATOM     49  C28 UNL     1      24.375   6.698   0.508 -0.41 +0.00    +0.145 C 
ATOM     50  N10 UNL     1      24.756   5.533   0.880 -0.21 -0.00    -0.371 N 
ATOM     51  N11 UNL     1      23.554   7.024  -0.521 -0.31 -0.00    -0.274 NA
ATOM     52  C29 UNL     1      24.262   4.370   0.162 -0.46 +0.00    +0.148 C 
ATOM     53  H10 UNL     1      25.396   5.423   1.666 +0.11 +0.00    +0.161 HD
ATOM     54  H38 UNL     1      23.400   6.267  -1.175 +0.08 +0.00    +0.127 HD
ATOM     55  H39 UNL     1      23.881   7.849  -1.012 +0.09 +0.00    +0.127 HD
ATOM     56  H37 UNL     1      24.024   8.533   1.150 +0.13 +0.00    +0.162 HD
ENDBRANCH  47  48
ENDBRANCH  46  47
ENDBRANCH  45  46
ENDBRANCH  42  45
ENDBRANCH  39  41
ENDBRANCH   2  31
TORSDOF 12
TER
