USER    Run = 1
USER    DPF = ligand_483_receptor.dpf
USER  
USER    Estimated Free Energy of Binding    =  +3.75e+004 kcal/mol  [=(1)+(2)+(3)-(4)]
USER    
USER    (1) Final Intermolecular Energy     =  +3.75e+004 kcal/mol
USER        vdW + Hbond + desolv Energy     =  +3.75e+004 kcal/mol
USER        Electrostatic Energy            =   +0.00 kcal/mol
USER    (2) Final Total Internal Energy     =   +0.00 kcal/mol
USER    (3) Torsional Free Energy           =   +1.19 kcal/mol
USER    (4) Unbound System's Energy  [=(2)] =   +0.00 kcal/mol
USER    
USER    
USER    NEWDPF move ligand_483.pdbqt
USER    NEWDPF about 0.000000 0.000000 0.000000
USER    NEWDPF tran0 17.467981 7.276467 2.728295
USER    NEWDPF quaternion0 0.336294 -0.062611 0.026900 -0.939288
USER    NEWDPF axisangle0 0.980081 -0.182470 0.078396 -40.135280
USER    NEWDPF quat0 0.980081 -0.182470 0.078396 -40.135280
USER  keepresnum = 1 
USER  
REMARK  0 active torsions:
REMARK  status: ('A' for Active; 'I' for Inactive)
REMARK       I    between atoms: C2_2  and  C3_3 
REMARK       I    between atoms: C2_2  and  N9_88 
REMARK       I    between atoms: C3_3  and  N1_79 
REMARK       I    between atoms: C4_4  and  C5_5 
REMARK       I    between atoms: C4_4  and  C8_8 
REMARK       I    between atoms: C4_4  and  N1_79 
REMARK       I    between atoms: C5_5  and  C6_6 
REMARK       I    between atoms: C6_6  and  S1_95 
REMARK       I    between atoms: C8_8  and  N2_80 
REMARK       I    between atoms: C9_9  and  C10_10 
REMARK       I    between atoms: C9_9  and  C11_11 
REMARK       I    between atoms: C9_9  and  N2_80 
REMARK       I    between atoms: C10_10  and  O3_59 
REMARK       I    between atoms: C11_11  and  N3_81 
REMARK       I    between atoms: C12_12  and  C13_13 
REMARK       I    between atoms: C12_12  and  C20_20 
REMARK       I    between atoms: C12_12  and  N3_81 
REMARK       I    between atoms: C13_13  and  C14_14 
REMARK       I    between atoms: C17_17  and  O5_61 
REMARK       I    between atoms: C20_20  and  N4_82 
REMARK       I    between atoms: C21_21  and  C22_22 
REMARK       I    between atoms: C21_21  and  C23_23 
REMARK       I    between atoms: C21_21  and  N4_82 
REMARK       I    between atoms: C22_22  and  O7_63 
REMARK       I    between atoms: C23_23  and  N5_83 
REMARK       I    between atoms: C24_24  and  C25_25 
REMARK       I    between atoms: C24_24  and  C29_29 
REMARK       I    between atoms: C24_24  and  N5_83 
REMARK       I    between atoms: C25_25  and  C26_26 
REMARK       I    between atoms: C29_29  and  N8_87 
REMARK       I    between atoms: C30_30  and  C32_32 
REMARK       I    between atoms: C30_30  and  N8_87 
REMARK       I    between atoms: C32_32  and  O11_67 
REMARK       I    between atoms: C33_33  and  C34_34 
REMARK       I    between atoms: C33_33  and  N9_88 
REMARK       I    between atoms: C34_34  and  N10_89 
REMARK       I    between atoms: C36_36  and  C37_37 
REMARK       I    between atoms: C36_36  and  N10_89 
REMARK       I    between atoms: C37_37  and  C38_38 
REMARK       I    between atoms: C37_37  and  N11_90 
REMARK       I    between atoms: C41_41  and  C42_42 
REMARK       I    between atoms: C41_41  and  N11_90 
REMARK       I    between atoms: C42_42  and  C43_43 
REMARK       I    between atoms: C42_42  and  N12_91 
REMARK       I    between atoms: C46_46  and  C47_47 
REMARK       I    between atoms: C46_46  and  N12_91 
REMARK       I    between atoms: C47_47  and  C48_48 
REMARK       I    between atoms: C47_47  and  N13_92 
REMARK       I    between atoms: C48_48  and  O16_72 
REMARK       I    between atoms: C49_49  and  C50_50 
REMARK       I    between atoms: C49_49  and  N13_92 
REMARK       I    between atoms: C50_50  and  C51_51 
REMARK       I    between atoms: C50_50  and  N14_93 
REMARK       I    between atoms: C51_51  and  C52_52 
REMARK       I    between atoms: C52_52  and  O19_75 
REMARK       I    between atoms: C53_53  and  C54_54 
REMARK       I    between atoms: C53_53  and  N14_93 
REMARK       I    between atoms: C54_54  and  C55_55 
REMARK       I    between atoms: C54_54  and  N15_94 
REMARK       I    between atoms: C55_55  and  C56_56 
REMARK       I    between atoms: C56_56  and  O22_78 
USER                              x       y       z     vdW  Elec       q    Type
USER                           _______ _______ _______ _____ _____    ______ ____
ROOT
ATOM      1  C1  UNL     1      13.955  12.758   9.274+99.99 +0.00    +0.042 C 
ATOM      2  C2  UNL     1      14.926  11.650   8.890+27.44 +0.00    +0.172 C 
ATOM      3  C3  UNL     1      14.353  10.256   9.246+99.99 +0.00    +0.240 C 
ATOM      4  C4  UNL     1      15.031   7.839   9.081 +9.91 +0.00    +0.177 C 
ATOM      5  C5  UNL     1      14.011   7.279  10.082 +3.85 +0.00    +0.045 C 
ATOM      6  C6  UNL     1      13.782   5.765  10.054+99.99 +0.00    +0.076 C 
ATOM      7  C7  UNL     1      14.568   3.142  10.348+99.99 +0.00    +0.089 C 
ATOM      8  C8  UNL     1      14.658   7.569   7.601+27.79 +0.00    +0.241 C 
ATOM      9  C9  UNL     1      14.837   5.922   5.745 +2.77 +0.00    +0.200 C 
ATOM     10  C10 UNL     1      13.431   6.170   5.170 -0.30 +0.00    +0.199 C 
ATOM     11  C11 UNL     1      15.903   6.618   4.864 +6.73 +0.00    +0.243 C 
ATOM     12  C12 UNL     1      16.608   6.940   2.479 +9.51 +0.00    +0.180 C 
ATOM     13  C13 UNL     1      17.873   6.174   2.068 +7.04 +0.00    +0.073 C 
ATOM     14  C14 UNL     1      17.632   4.776   1.544+99.99 -0.00    -0.056 A 
ATOM     15  C15 UNL     1      17.616   3.682   2.420+12.63 +0.00    +0.010 A 
ATOM     16  C16 UNL     1      17.394   2.393   1.934+99.99 +0.00    +0.037 A 
ATOM     17  C17 UNL     1      17.190   2.193   0.574+99.99 +0.00    +0.065 A 
ATOM     18  C18 UNL     1      17.202   3.265  -0.313+99.99 +0.00    +0.037 A 
ATOM     19  C19 UNL     1      17.423   4.555   0.174+99.99 +0.00    +0.010 A 
ATOM     20  C20 UNL     1      15.712   7.262   1.257+99.99 +0.00    +0.241 C 
ATOM     21  C21 UNL     1      13.345   7.481   0.499 +8.24 +0.00    +0.200 C 
ATOM     22  C22 UNL     1      13.352   6.574  -0.741 -0.16 +0.00    +0.199 C 
ATOM     23  C23 UNL     1      11.971   7.389   1.202 +1.41 +0.00    +0.243 C 
ATOM     24  C24 UNL     1       9.533   7.579   0.881 +0.09 +0.00    +0.182 C 
ATOM     25  C25 UNL     1       8.532   8.531   0.201 +5.13 +0.00    +0.093 C 
ATOM     26  C26 UNL     1       8.583   8.591  -1.296 +1.50 +0.00    +0.028 A 
ATOM     27  C27 UNL     1       8.447   9.662  -2.157+99.99 +0.00    +0.114 A 
ATOM     28  C28 UNL     1       8.737   7.964  -3.415 +2.06 +0.00    +0.180 A 
ATOM     29  C29 UNL     1       9.116   6.114   0.636 -0.15 +0.00    +0.241 C 
ATOM     30  C30 UNL     1       7.507   4.347   1.253 -0.08 +0.00    +0.178 C 
ATOM     31  C31 UNL     1       7.072   3.708   2.564 -0.18 +0.00    +0.043 C 
ATOM     32  C32 UNL     1       6.284   4.528   0.346 -0.11 +0.00    +0.163 C 
ATOM     33  C33 UNL     1      16.310  11.082   6.919+12.64 +0.00    +0.240 C 
ATOM     34  C34 UNL     1      16.471  11.120   5.375+31.12 +0.00    +0.172 C 
ATOM     35  C35 UNL     1      15.180  10.901   4.598+99.99 +0.00    +0.042 C 
ATOM     36  C36 UNL     1      18.765  10.319   4.872+99.99 +0.00    +0.241 C 
ATOM     37  C37 UNL     1      19.650   9.056   4.926+34.90 +0.00    +0.180 C 
ATOM     38  C38 UNL     1      19.890   8.599   6.381+99.99 +0.00    +0.009 C 
ATOM     39  C39 UNL     1      20.720   9.590   7.202+15.19 +0.00    +0.012 C 
ATOM     40  C40 UNL     1      20.547   7.215   6.413+99.99 +0.00    +0.012 C 
ATOM     41  C41 UNL     1      21.017   8.958   2.886 -0.09 +0.00    +0.241 C 
ATOM     42  C42 UNL     1      22.286   9.472   2.166 -0.36 +0.00    +0.180 C 
ATOM     43  C43 UNL     1      22.199  10.982   1.858+45.01 +0.00    +0.009 C 
ATOM     44  C44 UNL     1      21.045  11.350   0.919 +0.49 +0.00    +0.012 C 
ATOM     45  C45 UNL     1      23.523  11.496   1.284+99.99 +0.00    +0.012 C 
ATOM     46  C46 UNL     1      23.098   7.440   1.030 -0.03 +0.00    +0.243 C 
ATOM     47  C47 UNL     1      22.779   6.468  -0.128 +0.11 +0.00    +0.200 C 
ATOM     48  C48 UNL     1      21.510   5.692   0.258+99.99 +0.00    +0.199 C 
ATOM     49  C49 UNL     1      25.010   6.010  -1.060 -0.37 +0.00    +0.241 C 
ATOM     50  C50 UNL     1      26.217   5.037  -1.138 -0.35 +0.00    +0.186 C 
ATOM     51  C51 UNL     1      26.648   4.444   0.205 -0.26 +0.00    +0.144 C 
ATOM     52  C52 UNL     1      26.503   5.448   1.313 +1.33 +0.00    +0.141 C 
ATOM     53  C53 UNL     1      28.420   5.169  -2.318 -0.10 +0.00    +0.252 C 
ATOM     54  C54 UNL     1      29.496   6.173  -2.785 -0.09 +0.00    +0.318 C 
ATOM     55  C55 UNL     1      30.467   6.549  -1.661 -0.09 +0.00    +0.155 C 
ATOM     56  C56 UNL     1      29.871   6.462  -0.284 -0.14 +0.00    +0.141 C 
ATOM     57  O1  UNL     1      13.160  10.054   9.443 -0.17 -0.00    -0.271 OA
ATOM     58  O2  UNL     1      14.119   8.400   6.872 +3.56 -0.00    -0.271 OA
ATOM     59  O3  UNL     1      13.239   5.381   3.989+13.10 -0.00    -0.398 OA
ATOM     60  O4  UNL     1      16.737   7.412   5.303 +0.21 -0.00    -0.271 OA
ATOM     61  O5  UNL     1      16.980   0.918   0.144+99.99 -0.00    -0.361 OA
ATOM     62  O6  UNL     1      16.157   7.673   0.189 -0.29 -0.00    -0.271 OA
ATOM     63  O7  UNL     1      12.479   7.098  -1.748 +0.00 -0.00    -0.398 OA
ATOM     64  O8  UNL     1      11.842   6.995   2.363 -0.30 -0.00    -0.271 OA
ATOM     65  O9  UNL     1       9.535   5.459  -0.320 -0.11 -0.00    -0.271 OA
ATOM     66  O10 UNL     1       5.567   3.636  -0.080 +0.04 -0.00    -0.648 OA
ATOM     67  O11 UNL     1       5.997   5.817   0.057 +0.03 -0.00    -0.775 OA
ATOM     68  O12 UNL     1      17.154  10.567   7.662+99.99 -0.00    -0.271 OA
ATOM     69  O13 UNL     1      19.235  11.448   4.730+99.99 -0.00    -0.271 OA
ATOM     70  O14 UNL     1      20.183   8.261   2.306 +9.95 -0.00    -0.271 OA
ATOM     71  O15 UNL     1      23.825   7.133   1.978 -0.06 -0.00    -0.271 OA
ATOM     72  O16 UNL     1      21.098   4.818  -0.793+99.99 -0.00    -0.398 OA
ATOM     73  O17 UNL     1      25.015   7.103  -1.628 -0.32 -0.00    -0.271 OA
ATOM     74  O18 UNL     1      27.168   6.460   1.470 +0.50 -0.00    -0.650 OA
ATOM     75  O19 UNL     1      25.430   5.162   2.080 +0.55 -0.00    -0.776 OA
ATOM     76  O20 UNL     1      28.576   3.954  -2.376 -0.11 -0.00    -0.271 OA
ATOM     77  O21 UNL     1      30.011   5.527   0.488 +0.04 -0.00    -0.650 OA
ATOM     78  O22 UNL     1      29.099   7.521   0.018 +0.09 -0.00    -0.776 OA
ATOM     79  N1  UNL     1      15.320   9.265   9.242+99.99 -0.00    -0.346 N 
ATOM     80  N2  UNL     1      14.980   6.302   7.151 -0.11 -0.00    -0.344 N 
ATOM     81  N3  UNL     1      15.849   6.265   3.536+99.99 -0.00    -0.346 N 
ATOM     82  N4  UNL     1      14.362   7.111   1.479+56.24 -0.00    -0.344 N 
ATOM     83  N5  UNL     1      10.904   7.799   0.434 +1.76 -0.00    -0.346 N 
ATOM     84  N6  UNL     1       8.541   9.261  -3.463+21.59 -0.00    -0.360 N 
ATOM     85  H6  UNL     1       8.472   9.845  -4.297 +1.19 +0.00    +0.166 HD
ATOM     86  N7  UNL     1       8.762   7.509  -2.128 -0.16 -0.00    -0.354 N 
ATOM     87  N8  UNL     1       8.175   5.624   1.519 -0.03 -0.00    -0.345 N 
ATOM     88  N9  UNL     1      15.192  11.695   7.446 +2.33 -0.00    -0.346 N 
ATOM     89  N10 UNL     1      17.420  10.068   5.022 +0.18 -0.00    -0.346 N 
ATOM     90  N11 UNL     1      20.891   9.329   4.205 +3.35 -0.00    -0.346 N 
ATOM     91  N12 UNL     1      22.435   8.651   0.963 -0.10 -0.00    -0.346 N 
ATOM     92  N13 UNL     1      23.912   5.565  -0.355 -0.25 -0.00    -0.344 N 
ATOM     93  N14 UNL     1      27.313   5.765  -1.768 -0.12 -0.00    -0.345 N 
ATOM     94  N15 UNL     1      28.835   7.377  -3.353 +7.20 +0.00    +0.092 N 
ATOM     95  S1  UNL     1      15.311   4.788  10.229+99.99 -0.00    -0.173 SA
ATOM     96  H64 UNL     1      12.430   5.744   3.556 +0.13 +0.00    +0.209 HD
ATOM     97  H65 UNL     1      16.889   0.924  -0.823 +0.11 +0.00    +0.217 HD
ATOM     98  H66 UNL     1      12.689   6.623  -2.572 +0.10 +0.00    +0.209 HD
ATOM     99  H67 UNL     1       5.209   5.758  -0.526 -0.18 +0.00    +0.167 HD
ATOM    100  H68 UNL     1      20.318   4.336  -0.465 +5.96 +0.00    +0.209 HD
ATOM    101  H69 UNL     1      25.158   6.020   2.497 +0.14 +0.00    +0.167 HD
ATOM    102  H70 UNL     1      28.574   7.252   0.815 +0.09 +0.00    +0.167 HD
ATOM    103  H71 UNL     1      16.217   9.562   8.850+33.10 +0.00    +0.163 HD
ATOM    104  H72 UNL     1      15.641   5.769   7.707 -0.34 +0.00    +0.163 HD
ATOM    105  H73 UNL     1      15.207   5.519   3.261+12.29 +0.00    +0.163 HD
ATOM    106  H74 UNL     1      14.046   6.963   2.432 -0.46 +0.00    +0.163 HD
ATOM    107  H75 UNL     1      11.075   7.796  -0.575 +0.03 +0.00    +0.163 HD
ATOM    108  H76 UNL     1       8.928   6.546  -1.851 +0.00 +0.00    +0.166 HD
ATOM    109  H77 UNL     1       7.637   6.303   2.044 +0.08 +0.00    +0.163 HD
ATOM    110  H78 UNL     1      14.368  11.722   6.860 +4.06 +0.00    +0.163 HD
ATOM    111  H79 UNL     1      17.159   9.116   5.296 +0.16 +0.00    +0.163 HD
ATOM    112  H80 UNL     1      21.386  10.163   4.503 +0.91 +0.00    +0.163 HD
ATOM    113  H81 UNL     1      21.659   8.699   0.311 +0.13 +0.00    +0.163 HD
ATOM    114  H82 UNL     1      24.045   4.838   0.340 +0.11 +0.00    +0.163 HD
ATOM    115  H83 UNL     1      27.230   6.779  -1.881 +0.07 +0.00    +0.163 HD
ATOM    116  H84 UNL     1      29.543   8.005  -3.734 +0.13 +0.00    +0.313 HD
ATOM    117  H85 UNL     1      28.253   7.091  -4.143+99.99 +0.00    +0.313 HD
ENDROOT
TORSDOF 49
TER
