USER    Run = 1
USER    DPF = ligand_448_receptor.dpf
USER  
USER    Estimated Free Energy of Binding    =  +1.33e+004 kcal/mol  [=(1)+(2)+(3)-(4)]
USER    
USER    (1) Final Intermolecular Energy     =  +1.33e+004 kcal/mol
USER        vdW + Hbond + desolv Energy     =  +1.33e+004 kcal/mol
USER        Electrostatic Energy            =   +0.00 kcal/mol
USER    (2) Final Total Internal Energy     =   +0.00 kcal/mol
USER    (3) Torsional Free Energy           =   +1.19 kcal/mol
USER    (4) Unbound System's Energy  [=(2)] =   +0.00 kcal/mol
USER    
USER    
USER    NEWDPF move ligand_448.pdbqt
USER    NEWDPF about 0.000000 0.000000 0.000000
USER    NEWDPF tran0 16.846669 6.657436 2.025150
USER    NEWDPF quaternion0 0.977260 -0.015223 -0.152434 -0.146610
USER    NEWDPF axisangle0 0.987936 -0.015389 -0.154099 -163.138942
USER    NEWDPF quat0 0.987936 -0.015389 -0.154099 -163.138942
USER  keepresnum = 1 
USER  
REMARK  0 active torsions:
REMARK  status: ('A' for Active; 'I' for Inactive)
REMARK       I    between atoms: C2_2  and  O1_57 
REMARK       I    between atoms: C3_3  and  C14_14 
REMARK       I    between atoms: C5_5  and  N1_69 
REMARK       I    between atoms: C8_8  and  C9_9 
REMARK       I    between atoms: C8_8  and  N1_69 
REMARK       I    between atoms: C9_9  and  C10_10 
REMARK       I    between atoms: C9_9  and  N3_71 
REMARK       I    between atoms: C10_10  and  C11_11 
REMARK       I    between atoms: C11_11  and  C12_12 
REMARK       I    between atoms: C12_12  and  C13_13 
REMARK       I    between atoms: C13_13  and  N2_70 
REMARK       I    between atoms: C14_14  and  N4_72 
REMARK       I    between atoms: C15_15  and  C16_16 
REMARK       I    between atoms: C15_15  and  C20_20 
REMARK       I    between atoms: C15_15  and  N4_72 
REMARK       I    between atoms: C16_16  and  C17_17 
REMARK       I    between atoms: C17_17  and  C18_18 
REMARK       I    between atoms: C18_18  and  C19_19 
REMARK       I    between atoms: C19_19  and  N5_73 
REMARK       I    between atoms: C20_20  and  N6_74 
REMARK       I    between atoms: C21_21  and  N6_74 
REMARK       I    between atoms: C23_23  and  C28_28 
REMARK       I    between atoms: C24_24  and  O5_61 
REMARK       I    between atoms: C28_28  and  N7_75 
REMARK       I    between atoms: C29_29  and  C30_30 
REMARK       I    between atoms: C29_29  and  C34_34 
REMARK       I    between atoms: C29_29  and  N7_75 
REMARK       I    between atoms: C30_30  and  C31_31 
REMARK       I    between atoms: C31_31  and  C32_32 
REMARK       I    between atoms: C32_32  and  C33_33 
REMARK       I    between atoms: C33_33  and  N8_76 
REMARK       I    between atoms: C34_34  and  N9_77 
REMARK       I    between atoms: C35_35  and  N9_77 
REMARK       I    between atoms: C37_37  and  C42_42 
REMARK       I    between atoms: C38_38  and  O8_64 
REMARK       I    between atoms: C42_42  and  N10_78 
REMARK       I    between atoms: C43_43  and  C44_44 
REMARK       I    between atoms: C43_43  and  C48_48 
REMARK       I    between atoms: C43_43  and  N10_78 
REMARK       I    between atoms: C44_44  and  C45_45 
REMARK       I    between atoms: C45_45  and  C46_46 
REMARK       I    between atoms: C46_46  and  C47_47 
REMARK       I    between atoms: C47_47  and  N11_79 
REMARK       I    between atoms: C48_48  and  N12_80 
REMARK       I    between atoms: C49_49  and  N12_80 
REMARK       I    between atoms: C51_51  and  C56_56 
REMARK       I    between atoms: C52_52  and  O11_67 
REMARK       I    between atoms: C56_56  and  N13_81 
USER                              x       y       z     vdW  Elec       q    Type
USER                           _______ _______ _______ _____ _____    ______ ____
ROOT
ATOM      1  C1  UNL     1      24.164   8.584  -2.198+10.64 +0.00    +0.210 C 
ATOM      2  C2  UNL     1      24.375   6.381  -1.296 -0.48 +0.00    +0.084 A 
ATOM      3  C3  UNL     1      24.199   5.501  -0.217 -0.48 +0.00    +0.067 A 
ATOM      4  C4  UNL     1      24.498   4.135  -0.350 -0.39 +0.00    +0.049 A 
ATOM      5  C5  UNL     1      25.010   3.630  -1.547 +0.22 +0.00    +0.035 A 
ATOM      6  C6  UNL     1      25.213   4.510  -2.609 +0.30 +0.00    +0.032 A 
ATOM      7  C7  UNL     1      24.894   5.870  -2.488 -0.20 +0.00    +0.040 A 
ATOM      8  C8  UNL     1      25.808   1.528  -2.665 +0.75 +0.00    +0.255 C 
ATOM      9  C9  UNL     1      25.938   0.020  -2.321 +3.44 +0.00    +0.309 C 
ATOM     10  C10 UNL     1      26.924  -0.730  -3.230 +2.52 +0.00    +0.045 C 
ATOM     11  C11 UNL     1      28.396  -0.611  -2.804+63.50 +0.00    +0.004 C 
ATOM     12  C12 UNL     1      28.989   0.794  -2.937 +1.40 +0.00    +0.030 C 
ATOM     13  C13 UNL     1      30.472   0.870  -2.561 -0.07 +0.00    +0.267 C 
ATOM     14  C14 UNL     1      23.666   5.937   1.097 -0.19 +0.00    +0.255 C 
ATOM     15  C15 UNL     1      23.828   7.610   2.954 +5.64 +0.00    +0.177 C 
ATOM     16  C16 UNL     1      24.977   8.452   3.541 -0.60 +0.00    +0.035 C 
ATOM     17  C17 UNL     1      25.167   9.898   3.051 -0.68 +0.00    +0.004 C 
ATOM     18  C18 UNL     1      25.138  10.180   1.548 +0.26 +0.00    +0.030 C 
ATOM     19  C19 UNL     1      26.404   9.801   0.777 +6.58 +0.00    +0.267 C 
ATOM     20  C20 UNL     1      22.441   8.313   3.043 +0.30 +0.00    +0.245 C 
ATOM     21  C21 UNL     1      20.083   7.968   2.252+99.99 +0.00    +0.035 A 
ATOM     22  C22 UNL     1      19.555   9.212   2.592 -0.15 +0.00    +0.049 A 
ATOM     23  C23 UNL     1      18.189   9.503   2.401 -0.40 +0.00    +0.067 A 
ATOM     24  C24 UNL     1      17.334   8.516   1.856 -0.40 +0.00    +0.084 A 
ATOM     25  C25 UNL     1      17.876   7.273   1.507+15.01 +0.00    +0.040 A 
ATOM     26  C26 UNL     1      19.234   7.006   1.700+99.99 +0.00    +0.032 A 
ATOM     27  C27 UNL     1      15.134   7.812   1.211 +8.20 +0.00    +0.210 C 
ATOM     28  C28 UNL     1      17.742  10.882   2.810 -0.33 +0.00    +0.255 C 
ATOM     29  C29 UNL     1      15.821  12.474   2.973 +7.14 +0.00    +0.177 C 
ATOM     30  C30 UNL     1      16.160  13.142   4.319+23.28 +0.00    +0.035 C 
ATOM     31  C31 UNL     1      15.872  12.284   5.558+99.99 +0.00    +0.004 C 
ATOM     32  C32 UNL     1      16.289  13.016   6.839+41.26 +0.00    +0.030 C 
ATOM     33  C33 UNL     1      15.967  12.238   8.117+18.13 +0.00    +0.267 C 
ATOM     34  C34 UNL     1      14.285  12.413   2.792+78.64 +0.00    +0.245 C 
ATOM     35  C35 UNL     1      12.408  10.779   3.153+99.99 +0.00    +0.035 A 
ATOM     36  C36 UNL     1      12.126   9.496   3.629 +7.21 +0.00    +0.049 A 
ATOM     37  C37 UNL     1      10.817   8.979   3.607 +0.52 +0.00    +0.067 A 
ATOM     38  C38 UNL     1       9.762   9.777   3.120+30.94 +0.00    +0.084 A 
ATOM     39  C39 UNL     1      10.054  11.058   2.641+99.99 +0.00    +0.040 A 
ATOM     40  C40 UNL     1      11.365  11.552   2.654+70.73 +0.00    +0.032 A 
ATOM     41  C41 UNL     1       7.405  10.099   2.811+99.99 +0.00    +0.210 C 
ATOM     42  C42 UNL     1      10.651   7.585   4.135 -0.30 +0.00    +0.255 C 
ATOM     43  C43 UNL     1       9.103   5.666   4.449 -0.20 +0.00    +0.177 C 
ATOM     44  C44 UNL     1       8.741   5.768   5.945 -0.07 +0.00    +0.035 C 
ATOM     45  C45 UNL     1       7.894   6.975   6.378+99.99 +0.00    +0.004 C 
ATOM     46  C46 UNL     1       6.514   7.058   5.726+46.89 +0.00    +0.030 C 
ATOM     47  C47 UNL     1       5.697   8.206   6.323+99.99 +0.00    +0.267 C 
ATOM     48  C48 UNL     1       7.982   5.017   3.600 -0.13 +0.00    +0.245 C 
ATOM     49  C49 UNL     1       6.773   2.828   3.386 -0.24 +0.00    +0.035 A 
ATOM     50  C50 UNL     1       5.907   3.182   2.349 -0.12 +0.00    +0.049 A 
ATOM     51  C51 UNL     1       4.949   2.271   1.869 -0.13 +0.00    +0.067 A 
ATOM     52  C52 UNL     1       4.884   0.986   2.418 -0.20 +0.00    +0.084 A 
ATOM     53  C53 UNL     1       5.741   0.628   3.460 -0.10 +0.00    +0.040 A 
ATOM     54  C54 UNL     1       6.683   1.542   3.934 +1.26 +0.00    +0.032 A 
ATOM     55  C55 UNL     1       4.456  -0.859   1.116+99.99 +0.00    +0.210 C 
ATOM     56  C56 UNL     1       4.044   2.680   0.763 -0.06 +0.00    +0.252 C 
ATOM     57  O1  UNL     1      23.992   7.682  -1.114 -0.30 -0.00    -0.355 OA
ATOM     58  O2  UNL     1      26.078   1.974  -3.775 -0.30 -0.00    -0.271 OA
ATOM     59  O3  UNL     1      22.821   5.257   1.675 +0.64 -0.00    -0.268 OA
ATOM     60  O4  UNL     1      22.261   9.307   3.741 -0.32 -0.00    -0.271 OA
ATOM     61  O5  UNL     1      16.009   8.833   1.681 -0.26 -0.00    -0.355 OA
ATOM     62  O6  UNL     1      18.561  11.732   3.136 -0.10 -0.00    -0.268 OA
ATOM     63  O7  UNL     1      13.647  13.391   2.417+99.99 -0.00    -0.271 OA
ATOM     64  O8  UNL     1       8.497   9.249   3.144 +2.25 -0.00    -0.355 OA
ATOM     65  O9  UNL     1      11.559   7.045   4.761 -0.21 -0.00    -0.268 OA
ATOM     66  O10 UNL     1       7.389   5.655   2.732 -0.10 -0.00    -0.271 OA
ATOM     67  O11 UNL     1       3.920   0.090   2.040 +0.02 -0.00    -0.355 OA
ATOM     68  O12 UNL     1       3.739   1.930  -0.154 -0.07 -0.00    -0.268 OA
ATOM     69  N1  UNL     1      25.291   2.250  -1.596 +2.87 -0.00    -0.325 N 
ATOM     70  N2  UNL     1      31.323   0.138  -3.490 -0.13 +0.00    +0.078 N 
ATOM     71  N3  UNL     1      24.594  -0.587  -2.468 -0.25 +0.00    +0.092 N 
ATOM     72  N4  UNL     1      24.166   7.101   1.621 -0.12 -0.00    -0.344 N 
ATOM     73  N5  UNL     1      26.670   8.366   0.776 -0.37 +0.00    +0.078 N 
ATOM     74  N6  UNL     1      21.433   7.610   2.404+50.13 -0.00    -0.325 N 
ATOM     75  N7  UNL     1      16.388  11.132   2.797 -0.17 -0.00    -0.344 N 
ATOM     76  N8  UNL     1      16.741  11.009   8.249+99.99 +0.00    +0.078 N 
ATOM     77  N9  UNL     1      13.750  11.197   3.199+99.99 -0.00    -0.325 N 
ATOM     78  N10 UNL     1       9.465   6.951   3.879 -0.12 -0.00    -0.344 N 
ATOM     79  N11 UNL     1       4.397   8.298   5.667+99.99 +0.00    +0.078 N 
ATOM     80  N12 UNL     1       7.743   3.692   3.935 -0.11 -0.00    -0.325 N 
ATOM     81  N13 UNL     1       3.568   3.962   0.809 -0.04 -0.00    -0.366 N 
ATOM     82  H61 UNL     1      25.093   1.722  -0.753 +3.11 +0.00    +0.169 HD
ATOM     83  H62 UNL     1      31.121  -0.860  -3.441 +0.05 +0.00    +0.312 HD
ATOM     84  H63 UNL     1      32.298   0.240  -3.209 -0.01 +0.00    +0.312 HD
ATOM     85  H64 UNL     1      23.893  -0.000  -2.019 +0.05 +0.00    +0.313 HD
ATOM     86  H65 UNL     1      24.350  -0.581  -3.462 +0.20 +0.00    +0.313 HD
ATOM     87  H66 UNL     1      24.878   7.599   1.079 +0.13 +0.00    +0.163 HD
ATOM     88  H67 UNL     1      27.377   8.169   0.063 +0.20 +0.00    +0.312 HD
ATOM     89  H68 UNL     1      27.127   8.120   1.656 +0.22 +0.00    +0.312 HD
ATOM     90  H69 UNL     1      21.698   6.681   2.077+32.57 +0.00    +0.169 HD
ATOM     91  H70 UNL     1      15.867  10.497   2.196 +0.09 +0.00    +0.163 HD
ATOM     92  H71 UNL     1      16.526  10.376   7.481 +7.76 +0.00    +0.312 HD
ATOM     93  H72 UNL     1      17.735  11.224   8.154 +0.98 +0.00    +0.312 HD
ATOM     94  H73 UNL     1      14.418  10.550   3.608 +2.41 +0.00    +0.169 HD
ATOM     95  H74 UNL     1       8.737   7.453   3.372 +0.08 +0.00    +0.163 HD
ATOM     96  H75 UNL     1       3.844   9.025   6.119 +0.18 +0.00    +0.312 HD
ATOM     97  H76 UNL     1       3.883   7.427   5.800 +0.14 +0.00    +0.312 HD
ATOM     98  H77 UNL     1       8.329   3.294   4.659 +0.03 +0.00    +0.169 HD
ATOM     99  H78 UNL     1       3.695   4.572   1.605 +0.03 +0.00    +0.159 HD
ATOM    100  H79 UNL     1       2.901   4.230   0.098 +0.02 +0.00    +0.159 HD
ENDROOT
TORSDOF 40
TER
