USER    Run = 1
USER    DPF = ligand_356_receptor.dpf
USER  
USER    Estimated Free Energy of Binding    =   -2.32 kcal/mol  [=(1)+(2)+(3)-(4)]
USER    Estimated Inhibition Constant, Ki   =   19.84 mM (millimolar)  [Temperature = 298.15 K]
USER    
USER    (1) Final Intermolecular Energy     =   -3.52 kcal/mol
USER        vdW + Hbond + desolv Energy     =   -3.52 kcal/mol
USER        Electrostatic Energy            =   +0.00 kcal/mol
USER    (2) Final Total Internal Energy     =   -1.45 kcal/mol
USER    (3) Torsional Free Energy           =   +1.19 kcal/mol
USER    (4) Unbound System's Energy  [=(2)] =   -1.45 kcal/mol
USER    
USER    
USER    NEWDPF move ligand_356.pdbqt
USER    NEWDPF about 0.000000 0.000000 0.000000
USER    NEWDPF tran0 11.088142 3.549309 0.713173
USER    NEWDPF quaternion0 -0.145821 0.411796 -0.897057 -0.066697
USER    NEWDPF axisangle0 -0.146146 0.412715 -0.899059 -172.351372
USER    NEWDPF quat0 -0.146146 0.412715 -0.899059 -172.351372
USER    NEWDPF dihe0 100.97 -180.00 -103.68 33.38 176.48 62.23 -163.76 -67.87 123.75 -4.42 -150.45 104.80 177.81 -63.25 46.35 77.41 50.85 -180.00 101.44 82.43 23.32 -116.47 
USER  keepresnum = 1 
USER  
REMARK  22 active torsions:
REMARK  status: ('A' for Active; 'I' for Inactive)
REMARK    1  A    between atoms: C2_2  and  C3_3 
REMARK    2  A    between atoms: C2_2  and  N10_58 
REMARK       I    between atoms: C3_3  and  N1_45 
REMARK    3  A    between atoms: C4_4  and  N1_45 
REMARK    4  A    between atoms: C6_6  and  C31_31 
REMARK    5  A    between atoms: C7_7  and  C10_10 
REMARK       I    between atoms: C10_10  and  N2_46 
REMARK    6  A    between atoms: C11_11  and  C12_12 
REMARK    7  A    between atoms: C11_11  and  N2_46 
REMARK    8  A    between atoms: C12_12  and  C13_13 
REMARK    9  A    between atoms: C13_13  and  C14_14 
REMARK   10  A    between atoms: C14_14  and  C15_15 
REMARK   11  A    between atoms: C14_14  and  N3_47 
REMARK   12  A    between atoms: C15_15  and  O4_40 
REMARK   13  A    between atoms: C16_16  and  C17_17 
REMARK       I    between atoms: C16_16  and  N3_47 
REMARK   14  A    between atoms: C20_20  and  C23_23 
REMARK   15  A    between atoms: C23_23  and  C24_24 
REMARK   16  A    between atoms: C24_24  and  C25_25 
REMARK   17  A    between atoms: C29_29  and  N9_57 
REMARK   18  A    between atoms: C30_30  and  N8_56 
REMARK   19  A    between atoms: C31_31  and  O7_43 
REMARK   20  A    between atoms: C32_32  and  C33_33 
REMARK       I    between atoms: C32_32  and  N10_58 
REMARK   21  A    between atoms: C33_33  and  C34_34 
REMARK   22  A    between atoms: C33_33  and  N11_59 
USER                              x       y       z     vdW  Elec       q    Type
USER                           _______ _______ _______ _____ _____    ______ ____
ROOT
ATOM      1  C14 UNL     1       8.628   2.393  -1.091 -0.09 +0.00    +0.182 C 
ENDROOT
BRANCH   1   2
ATOM      2  C13 UNL     1       9.024   3.607  -1.940 -0.18 +0.00    +0.038 C 
BRANCH   2   3
ATOM      3  C12 UNL     1      10.149   4.444  -1.309 -0.23 +0.00    +0.022 C 
BRANCH   3   4
ATOM      4  C11 UNL     1       9.719   5.888  -1.062 -0.20 +0.00    +0.123 C 
BRANCH   4   5
ATOM      5  N2  UNL     1      10.752   6.637  -0.363 -0.14 -0.00    -0.357 N 
ATOM      6  C10 UNL     1      12.090   6.387  -0.592 -0.34 +0.00    +0.252 C 
ATOM      7  O2  UNL     1      12.498   5.639  -1.474 +0.04 -0.00    -0.268 OA
ATOM      8  H35 UNL     1      10.481   7.087   0.506 +0.09 +0.00    +0.162 HD
BRANCH   6   9
ATOM      9  C7  UNL     1      13.067   7.000   0.344 +0.18 +0.00    +0.049 A 
ATOM     10  C6  UNL     1      12.843   7.182   1.710 +0.60 +0.00    +0.055 A 
ATOM     11  C5  UNL     1      13.822   7.752   2.539 +0.71 +0.00    +0.049 A 
ATOM     12  C4  UNL     1      15.037   8.171   1.996 +1.38 +0.00    +0.035 A 
ATOM     13  C9  UNL     1      15.258   8.014   0.622 +1.83 +0.00    +0.030 A 
ATOM     14  C8  UNL     1      14.281   7.439  -0.198 +0.57 +0.00    +0.020 A 
BRANCH  10  15
ATOM     15  C31 UNL     1      11.575   6.810   2.335 -0.30 +0.00    +0.177 C 
ATOM     16  O6  UNL     1      10.504   7.350   2.125 -0.00 -0.00    -0.646 OA
BRANCH  15  17
ATOM     17  O7  UNL     1      11.767   5.801   3.196 +0.18 -0.00    -0.773 OA
ATOM     18  H33 UNL     1      11.757   4.961   2.672 -0.34 +0.00    +0.167 HD
ENDBRANCH  15  17
ENDBRANCH  10  15
BRANCH  12  19
ATOM     19  N1  UNL     1      16.074   8.757   2.744 -0.24 -0.00    -0.325 N 
ATOM     20  C3  UNL     1      17.252   8.171   3.184 -0.45 +0.00    +0.244 C 
ATOM     21  O1  UNL     1      17.598   7.012   2.978 -0.87 -0.00    -0.271 OA
ATOM     22  H34 UNL     1      15.927   9.726   3.040 +0.12 +0.00    +0.169 HD
BRANCH  20  23
ATOM     23  C2  UNL     1      18.120   9.153   4.012 -0.30 +0.00    +0.172 C 
ATOM     24  C1  UNL     1      17.264   9.999   4.947 +0.36 +0.00    +0.042 C 
BRANCH  23  25
ATOM     25  N10 UNL     1      18.884  10.022   3.115 -0.09 -0.00    -0.346 N 
ATOM     26  C32 UNL     1      20.089   9.617   2.572 -0.24 +0.00    +0.251 C 
ATOM     27  O8  UNL     1      20.600   8.537   2.865 +0.06 -0.00    -0.271 OA
ATOM     28  H41 UNL     1      18.376  10.752   2.628 +0.13 +0.00    +0.163 HD
BRANCH  26  29
ATOM     29  C33 UNL     1      20.718  10.661   1.615 -0.24 +0.00    +0.312 C 
BRANCH  29  30
ATOM     30  C34 UNL     1      19.667  11.322   0.692 -0.68 +0.00    +0.020 C 
ATOM     31  C35 UNL     1      18.947  12.489   1.381 -0.81 +0.00    +0.012 C 
ATOM     32  C36 UNL     1      18.615  10.299   0.240 -0.54 +0.00    +0.012 C 
ENDBRANCH  29  30
BRANCH  29  33
ATOM     33  N11 UNL     1      21.765   9.966   0.836 -0.42 +0.00    +0.092 N 
ATOM     34  H42 UNL     1      21.972   9.066   1.271 +0.25 +0.00    +0.313 HD
ATOM     35  H43 UNL     1      21.392   9.745  -0.088 +0.25 +0.00    +0.313 HD
ENDBRANCH  29  33
ENDBRANCH  26  29
ENDBRANCH  23  25
ENDBRANCH  20  23
ENDBRANCH  12  19
ENDBRANCH   6   9
ENDBRANCH   4   5
ENDBRANCH   3   4
ENDBRANCH   2   3
ENDBRANCH   1   2
BRANCH   1  36
ATOM     36  C15 UNL     1       9.899   1.797  -0.481 -0.18 +0.00    +0.163 C 
ATOM     37  O3  UNL     1      10.991   2.356  -0.425 +0.28 -0.00    -0.648 OA
BRANCH  36  38
ATOM     38  O4  UNL     1       9.761   0.501  -0.134 +0.09 -0.00    -0.775 OA
ATOM     39  H32 UNL     1       8.786   0.338  -0.076 +0.09 +0.00    +0.167 HD
ENDBRANCH  36  38
ENDBRANCH   1  36
BRANCH   1  40
ATOM     40  N3  UNL     1       7.765   2.820   0.013 +0.00 -0.00    -0.343 N 
ATOM     41  C16 UNL     1       8.120   2.539   1.317 -0.13 +0.00    +0.252 C 
ATOM     42  O5  UNL     1       9.067   1.823   1.616 -0.24 -0.00    -0.268 OA
ATOM     43  H36 UNL     1       7.242   3.673  -0.141 +0.06 +0.00    +0.163 HD
BRANCH  41  44
ATOM     44  C17 UNL     1       7.306   3.195   2.378 -0.18 +0.00    +0.032 A 
ATOM     45  C18 UNL     1       6.037   2.724   2.735 -0.20 +0.00    +0.017 A 
ATOM     46  C19 UNL     1       5.310   3.368   3.741 -0.18 +0.00    +0.008 A 
ATOM     47  C20 UNL     1       5.842   4.482   4.404 -0.19 -0.00    -0.058 A 
ATOM     48  C21 UNL     1       7.119   4.938   4.052 -0.21 +0.00    +0.008 A 
ATOM     49  C22 UNL     1       7.848   4.296   3.050 -0.18 +0.00    +0.017 A 
BRANCH  47  50
ATOM     50  C23 UNL     1       5.064   5.157   5.511 -0.29 +0.00    +0.044 C 
BRANCH  50  51
ATOM     51  C24 UNL     1       5.837   5.259   6.830 -0.45 +0.00    +0.063 C 
BRANCH  51  52
ATOM     52  C25 UNL     1       7.262   4.792   6.714 -0.43 +0.00    +0.025 A 
ATOM     53  C26 UNL     1       7.653   3.541   7.154 -0.05 +0.00    +0.114 A 
ATOM     54  N4  UNL     1       8.933   3.106   7.092 -0.21 -0.00    -0.348 N 
ATOM     55  C27 UNL     1       9.857   3.937   6.594 -0.36 +0.00    +0.138 A 
ATOM     56  H4  UNL     1       9.187   2.172   7.416 +0.12 +0.00    +0.167 HD
ATOM     57  C28 UNL     1       9.465   5.206   6.153 -0.25 +0.00    +0.116 A 
ATOM     58  N7  UNL     1      11.113   3.506   6.543 -0.24 -0.00    -0.317 N 
ATOM     59  C29 UNL     1      10.509   5.978   5.657 -0.23 +0.00    +0.111 A 
ATOM     60  N5  UNL     1       8.171   5.646   6.196 +0.01 -0.00    -0.353 N 
ATOM     61  N6  UNL     1      11.782   5.561   5.606 -0.13 -0.00    -0.322 N 
ATOM     62  C30 UNL     1      12.030   4.340   6.068 -0.35 +0.00    +0.157 A 
ATOM     63  H6  UNL     1      12.524   6.152   5.231 +0.12 +0.00    +0.169 HD
ATOM     64  H5  UNL     1       7.906   6.570   5.855 +0.29 +0.00    +0.166 HD
ATOM     65  H7  UNL     1      11.363   2.569   6.857 +0.14 +0.00    +0.170 HD
BRANCH  59  66
ATOM     66  N9  UNL     1      10.248   7.301   5.207 -0.11 -0.00    -0.287 NA
ATOM     67  H39 UNL     1      10.879   7.923   5.712 +0.08 +0.00    +0.125 HD
ATOM     68  H40 UNL     1      10.556   7.354   4.236 +0.08 +0.00    +0.125 HD
ENDBRANCH  59  66
BRANCH  62  69
ATOM     69  N8  UNL     1      13.332   3.894   6.013 -0.14 -0.00    -0.274 NA
ATOM     70  H37 UNL     1      13.968   4.640   6.260 +0.07 +0.00    +0.127 HD
ATOM     71  H38 UNL     1      13.503   3.391   5.154 -0.04 +0.00    +0.127 HD
ENDBRANCH  62  69
ENDBRANCH  51  52
ENDBRANCH  50  51
ENDBRANCH  47  50
ENDBRANCH  41  44
ENDBRANCH   1  40
TORSDOF 22
TER
