USER    Run = 1
USER    DPF = ligand_457_receptor.dpf
USER  
USER    Estimated Free Energy of Binding    = +877.54 kcal/mol  [=(1)+(2)+(3)-(4)]
USER    
USER    (1) Final Intermolecular Energy     = +876.35 kcal/mol
USER        vdW + Hbond + desolv Energy     = +876.35 kcal/mol
USER        Electrostatic Energy            =   +0.00 kcal/mol
USER    (2) Final Total Internal Energy     = +103.66 kcal/mol
USER    (3) Torsional Free Energy           =   +1.19 kcal/mol
USER    (4) Unbound System's Energy  [=(2)] = +103.66 kcal/mol
USER    
USER    
USER    NEWDPF move ligand_457.pdbqt
USER    NEWDPF about 0.000000 0.000000 0.000000
USER    NEWDPF tran0 17.311013 6.729490 1.091682
USER    NEWDPF quaternion0 -0.920921 -0.163576 -0.102098 -0.338708
USER    NEWDPF axisangle0 -0.978775 -0.173852 -0.108512 -140.403604
USER    NEWDPF quat0 -0.978775 -0.173852 -0.108512 -140.403604
USER    NEWDPF dihe0 -74.70 -3.30 -57.34 136.50 -143.08 -21.35 -51.92 -133.73 130.48 -148.34 -15.18 -171.94 -76.51 160.35 -133.95 -81.62 -89.72 66.99 -28.03 -22.58 -91.05 47.17 67.71 83.06 80.14 170.39 -110.90 86.21 30.63 
USER  keepresnum = 1 
USER  
REMARK  29 active torsions:
REMARK  status: ('A' for Active; 'I' for Inactive)
REMARK    1  A    between atoms: C1_1  and  C14_14 
REMARK    2  A    between atoms: C8_8  and  O2_69 
REMARK    3  A    between atoms: C15_15  and  C16_16 
REMARK    4  A    between atoms: C16_16  and  O5_72 
REMARK    5  A    between atoms: C18_18  and  N1_80 
REMARK    6  A    between atoms: C19_19  and  N1_80 
REMARK    7  A    between atoms: C19_19  and  N2_81 
REMARK    8  A    between atoms: C20_20  and  C21_21 
REMARK    9  A    between atoms: C20_20  and  N2_81 
REMARK   10  A    between atoms: C21_21  and  C22_22 
REMARK       I    between atoms: C22_22  and  N3_82 
REMARK   11  A    between atoms: C23_23  and  N3_82 
REMARK   12  A    between atoms: C25_25  and  C28_28 
REMARK       I    between atoms: C28_28  and  N5_84 
REMARK   13  A    between atoms: C29_29  and  N5_84 
REMARK   14  A    between atoms: C31_31  and  C34_34 
REMARK       I    between atoms: C34_34  and  N7_86 
REMARK   15  A    between atoms: C35_35  and  N7_86 
REMARK   16  A    between atoms: C37_37  and  N9_88 
REMARK   17  A    between atoms: C40_40  and  C41_41 
REMARK   18  A    between atoms: C40_40  and  N9_88 
REMARK   19  A    between atoms: C41_41  and  C42_42 
REMARK       I    between atoms: C42_42  and  N10_89 
REMARK   20  A    between atoms: C43_43  and  N10_89 
REMARK   21  A    between atoms: C45_45  and  C48_48 
REMARK       I    between atoms: C48_48  and  N12_91 
REMARK   22  A    between atoms: C49_49  and  N12_91 
REMARK   23  A    between atoms: C51_51  and  C54_54 
REMARK       I    between atoms: C54_54  and  N14_93 
REMARK   24  A    between atoms: C55_55  and  N14_93 
REMARK   25  A    between atoms: C57_57  and  C60_60 
REMARK       I    between atoms: C60_60  and  N16_95 
REMARK   26  A    between atoms: C61_61  and  C62_62 
REMARK   27  A    between atoms: C61_61  and  N16_95 
REMARK   28  A    between atoms: C62_62  and  C63_63 
REMARK   29  A    between atoms: C63_63  and  N17_96 
USER                              x       y       z     vdW  Elec       q    Type
USER                           _______ _______ _______ _____ _____    ______ ____
ROOT
ATOM      1  C29 UNL     1      11.667   7.170  -0.236 +0.44 +0.00    +0.053 A 
ATOM      2  C30 UNL     1      12.786   8.001  -0.473+36.27 +0.00    +0.066 A 
ATOM      3  C31 UNL     1      13.940   7.222  -0.474 +0.32 +0.00    +0.105 A 
ATOM      4  C32 UNL     1      12.145   5.889  -0.106 -0.36 +0.00    +0.120 A 
ATOM      5  C33 UNL     1      14.357   4.750  -0.169+99.99 +0.00    +0.156 C 
ATOM      6  N6  UNL     1      13.510   5.923  -0.252 +0.33 -0.00    -0.354 N 
ENDROOT
BRANCH   3   7
ATOM      7  C34 UNL     1      15.337   7.609  -0.672 +0.65 +0.00    +0.273 C 
ATOM      8  O8  UNL     1      16.119   6.907  -1.310 +2.71 -0.00    -0.266 OA
ATOM      9  N7  UNL     1      15.684   8.806  -0.074 -0.19 -0.00    -0.320 N 
ATOM     10  H66 UNL     1      14.987   9.299   0.462 -0.35 +0.00    +0.169 HD
BRANCH   9  11
ATOM     11  C35 UNL     1      16.935   9.392  -0.120 -0.40 +0.00    +0.054 A 
ATOM     12  C36 UNL     1      17.506  10.270  -1.073 +2.32 +0.00    +0.079 A 
ATOM     13  C37 UNL     1      18.791  10.578  -0.668 +2.95 +0.00    +0.104 A 
ATOM     14  N8  UNL     1      19.011   9.899   0.512 -0.13 -0.00    -0.346 N 
ATOM     15  C38 UNL     1      17.889   9.182   0.850 -0.13 +0.00    +0.121 A 
ATOM     16  C39 UNL     1      20.232   9.908   1.286 -0.20 +0.00    +0.157 C 
BRANCH  13  17
ATOM     17  N9  UNL     1      19.754  11.358  -1.223 +8.24 -0.00    -0.376 N 
ATOM     18  H67 UNL     1      20.655  10.936  -1.452 +3.02 +0.00    +0.161 HD
BRANCH  17  19
ATOM     19  C40 UNL     1      19.886  12.777  -0.868+24.36 +0.00    +0.130 C 
BRANCH  19  20
ATOM     20  C41 UNL     1      18.877  13.209   0.188 +6.18 +0.00    +0.122 C 
BRANCH  20  21
ATOM     21  C42 UNL     1      17.983  12.064   0.619 -0.31 +0.00    +0.223 C 
ATOM     22  O9  UNL     1      17.148  11.588  -0.147 +1.76 -0.00    -0.273 OA
ATOM     23  N10 UNL     1      18.213  11.675   1.923 -0.27 -0.00    -0.326 N 
ATOM     24  H68 UNL     1      18.994  12.122   2.402 +0.14 +0.00    +0.169 HD
BRANCH  23  25
ATOM     25  C43 UNL     1      17.542  10.676   2.593 -0.44 +0.00    +0.052 A 
ATOM     26  C44 UNL     1      16.252  10.143   2.375 -0.42 +0.00    +0.066 A 
ATOM     27  C45 UNL     1      16.007   9.149   3.319 -0.40 +0.00    +0.105 A 
ATOM     28  N11 UNL     1      17.155   9.081   4.093 -0.23 -0.00    -0.354 N 
ATOM     29  C46 UNL     1      18.078  10.000   3.662 -0.12 +0.00    +0.120 A 
ATOM     30  C47 UNL     1      17.370   8.191   5.217 +7.13 +0.00    +0.156 C 
BRANCH  27  31
ATOM     31  C48 UNL     1      14.828   8.303   3.509 -0.33 +0.00    +0.273 C 
ATOM     32  O10 UNL     1      14.158   7.907   2.558 -0.07 -0.00    -0.266 OA
ATOM     33  N12 UNL     1      14.564   8.000   4.833 -0.23 -0.00    -0.320 N 
ATOM     34  H69 UNL     1      15.204   8.338   5.534 +0.24 +0.00    +0.169 HD
BRANCH  33  35
ATOM     35  C49 UNL     1      13.511   7.234   5.301 -0.42 +0.00    +0.053 A 
ATOM     36  C50 UNL     1      12.605   6.516   4.480 -0.32 +0.00    +0.066 A 
ATOM     37  C51 UNL     1      11.682   5.858   5.289 -0.27 +0.00    +0.105 A 
ATOM     38  N13 UNL     1      12.021   6.196   6.589 -0.10 -0.00    -0.354 N 
ATOM     39  C52 UNL     1      13.125   7.011   6.598 -0.35 +0.00    +0.120 A 
ATOM     40  C53 UNL     1      11.342   5.756   7.791 -0.10 +0.00    +0.156 C 
BRANCH  37  41
ATOM     41  C54 UNL     1      10.555   4.998   4.929 -0.19 +0.00    +0.273 C 
ATOM     42  O11 UNL     1       9.850   4.460   5.779 -0.21 -0.00    -0.266 OA
ATOM     43  N14 UNL     1      10.381   4.840   3.565 -0.06 -0.00    -0.320 N 
ATOM     44  H70 UNL     1      11.052   5.260   2.941 -0.23 +0.00    +0.169 HD
BRANCH  43  45
ATOM     45  C55 UNL     1       9.380   4.100   2.966 -0.07 +0.00    +0.053 A 
ATOM     46  C56 UNL     1       8.515   4.422   1.894 -0.12 +0.00    +0.066 A 
ATOM     47  C57 UNL     1       7.670   3.342   1.653 -0.12 +0.00    +0.104 A 
ATOM     48  N15 UNL     1       8.033   2.372   2.573 -0.10 -0.00    -0.354 N 
ATOM     49  C58 UNL     1       9.060   2.825   3.364 +0.42 +0.00    +0.120 A 
ATOM     50  C59 UNL     1       7.434   1.060   2.702 +2.16 +0.00    +0.156 C 
BRANCH  47  51
ATOM     51  C60 UNL     1       6.608   3.186   0.668 -0.04 +0.00    +0.268 C 
ATOM     52  O12 UNL     1       6.736   3.486  -0.516 -0.05 -0.00    -0.266 OA
ATOM     53  N16 UNL     1       5.433   2.656   1.152 -0.01 -0.00    -0.356 N 
ATOM     54  H71 UNL     1       5.391   2.324   2.104 +0.06 +0.00    +0.162 HD
BRANCH  53  55
ATOM     55  C61 UNL     1       4.311   2.334   0.295 -0.10 +0.00    +0.125 C 
BRANCH  55  56
ATOM     56  C62 UNL     1       4.735   1.971  -1.128 -0.11 +0.00    +0.050 C 
BRANCH  56  57
ATOM     57  C63 UNL     1       6.030   1.147  -1.205 -0.08 +0.00    +0.273 C 
BRANCH  57  58
ATOM     58  N17 UNL     1       6.593   1.024  -2.561 -0.12 +0.00    +0.080 N 
ATOM     59  C64 UNL     1       8.035   1.282  -2.529 -0.04 +0.00    +0.309 C 
ATOM     60  C65 UNL     1       5.949   1.940  -3.505 -0.05 +0.00    +0.309 C 
ENDBRANCH  57  58
ENDBRANCH  56  57
ENDBRANCH  55  56
ENDBRANCH  53  55
ENDBRANCH  47  51
ENDBRANCH  43  45
ENDBRANCH  37  41
ENDBRANCH  33  35
ENDBRANCH  27  31
ENDBRANCH  23  25
ENDBRANCH  20  21
ENDBRANCH  19  20
ENDBRANCH  17  19
ENDBRANCH  13  17
ENDBRANCH   9  11
ENDBRANCH   3   7
BRANCH   1  61
ATOM     61  N5  UNL     1      10.323   7.479  -0.143 -0.06 -0.00    -0.320 N 
ATOM     62  C28 UNL     1       9.553   7.370   1.001 -0.12 +0.00    +0.273 C 
ATOM     63  O7  UNL     1       9.972   6.942   2.074 -0.22 -0.00    -0.266 OA
ATOM     64  H65 UNL     1       9.877   7.761  -1.002 +0.08 +0.00    +0.169 HD
BRANCH  62  65
ATOM     65  C25 UNL     1       8.166   7.794   0.824 -0.14 +0.00    +0.105 A 
ATOM     66  C24 UNL     1       7.018   7.404   1.507 -0.38 +0.00    +0.066 A 
ATOM     67  C23 UNL     1       5.905   8.096   0.970 +1.98 +0.00    +0.052 A 
ATOM     68  C26 UNL     1       6.385   8.891  -0.038 +6.00 +0.00    +0.120 A 
ATOM     69  N4  UNL     1       7.740   8.699  -0.135 +0.79 -0.00    -0.354 N 
ATOM     70  C27 UNL     1       8.581   9.378  -1.100+39.52 +0.00    +0.156 C 
BRANCH  67  71
ATOM     71  N3  UNL     1       4.604   7.962   1.411+60.11 -0.00    -0.326 N 
ATOM     72  C22 UNL     1       4.024   8.664   2.450+45.26 +0.00    +0.223 C 
ATOM     73  O6  UNL     1       4.552   9.526   3.146 +1.51 -0.00    -0.273 OA
ATOM     74  H64 UNL     1       4.049   7.255   0.942 +8.71 +0.00    +0.169 HD
BRANCH  72  75
ATOM     75  C21 UNL     1       2.593   8.238   2.711+10.29 +0.00    +0.122 C 
BRANCH  75  76
ATOM     76  C20 UNL     1       2.481   6.722   2.809 +2.73 +0.00    +0.131 C 
BRANCH  76  77
ATOM     77  N2  UNL     1       3.744   6.034   2.546 -0.05 -0.00    -0.367 N 
ATOM     78  H63 UNL     1       4.562   6.628   2.442 +0.04 +0.00    +0.161 HD
BRANCH  77  79
ATOM     79  C19 UNL     1       3.951   4.737   2.150 -0.11 +0.00    +0.172 C 
ATOM     80  S1  UNL     1       3.791   4.438   0.517 +0.23 -0.00    -0.041 SA
BRANCH  79  81
ATOM     81  N1  UNL     1       4.263   3.868   3.164 -0.02 -0.00    -0.333 N 
ATOM     82  H62 UNL     1       3.697   3.030   3.153 +0.06 +0.00    +0.168 HD
BRANCH  81  83
ATOM     83  C18 UNL     1       5.014   4.049   4.346 -0.18 +0.00    +0.035 A 
ATOM     84  C17 UNL     1       4.343   4.599   5.446 -0.22 +0.00    +0.048 A 
ATOM     85  C15 UNL     1       4.997   4.800   6.677 -0.39 +0.00    +0.051 A 
ATOM     86  C14 UNL     1       6.346   4.432   6.818 -0.45 -0.00    -0.007 A 
ATOM     87  C67 UNL     1       7.003   3.852   5.721 -0.12 +0.00    +0.015 A 
ATOM     88  C66 UNL     1       6.342   3.659   4.502 -0.23 +0.00    +0.030 A 
BRANCH  85  89
ATOM     89  C16 UNL     1       4.241   5.414   7.798 +1.72 +0.00    +0.177 C 
ATOM     90  O4  UNL     1       3.317   4.933   8.421 +2.09 -0.00    -0.646 OA
BRANCH  89  91
ATOM     91  O5  UNL     1       4.696   6.651   8.078 +0.54 -0.00    -0.773 OA
ATOM     92  H61 UNL     1       4.014   7.237   7.682 +0.06 +0.00    +0.167 HD
ENDBRANCH  89  91
ENDBRANCH  85  89
BRANCH  86  93
ATOM     93  C1  UNL     1       7.112   4.570   8.086 +1.27 +0.00    +0.001 A 
ATOM     94  C2  UNL     1       7.605   3.467   8.717 +8.03 +0.00    +0.010 A 
ATOM     95  C3  UNL     1       8.363   3.600   9.972 +9.63 +0.00    +0.091 A 
ATOM     96  C13 UNL     1       7.418   2.110   8.181+22.00 +0.00    +0.019 A 
ATOM     97  C10 UNL     1       8.854   2.527  10.607+78.08 +0.00    +0.092 A 
ATOM     98  O1  UNL     1       8.587   4.850  10.529+53.75 -0.00    -0.309 OA
ATOM     99  C11 UNL     1       8.654   1.167  10.073 +2.36 +0.00    +0.174 A 
ATOM    100  C12 UNL     1       7.905   1.031   8.807+31.11 +0.00    +0.056 A 
ATOM    101  O3  UNL     1       9.090   0.182  10.659 -0.14 -0.00    -0.288 OA
ATOM    102  C4  UNL     1       8.091   5.962   9.905+79.99 +0.00    +0.089 A 
ATOM    103  C5  UNL     1       7.363   5.892   8.716 +8.94 +0.00    +0.010 A 
ATOM    104  C9  UNL     1       8.349   7.186  10.527+51.07 +0.00    +0.074 A 
ATOM    105  C6  UNL     1       6.888   7.092   8.159 +3.52 +0.00    +0.018 A 
ATOM    106  C7  UNL     1       7.143   8.323   8.776 +4.42 +0.00    +0.037 A 
ATOM    107  C8  UNL     1       7.872   8.358   9.957+49.68 +0.00    +0.068 A 
BRANCH 107 108
ATOM    108  O2  UNL     1       8.143   9.532  10.592+43.07 -0.00    -0.361 OA
ATOM    109  H60 UNL     1       7.800  10.267  10.058 -0.38 +0.00    +0.217 HD
ENDBRANCH 107 108
ENDBRANCH  86  93
ENDBRANCH  81  83
ENDBRANCH  79  81
ENDBRANCH  77  79
ENDBRANCH  76  77
ENDBRANCH  75  76
ENDBRANCH  72  75
ENDBRANCH  67  71
ENDBRANCH  62  65
ENDBRANCH   1  61
TORSDOF 29
TER
