USER    Run = 1
USER    DPF = ligand_449_receptor.dpf
USER  
USER    Estimated Free Energy of Binding    =  +6.41e+003 kcal/mol  [=(1)+(2)+(3)-(4)]
USER    
USER    (1) Final Intermolecular Energy     =  +6.41e+003 kcal/mol
USER        vdW + Hbond + desolv Energy     =  +6.41e+003 kcal/mol
USER        Electrostatic Energy            =   +0.00 kcal/mol
USER    (2) Final Total Internal Energy     =   +0.00 kcal/mol
USER    (3) Torsional Free Energy           =   +1.19 kcal/mol
USER    (4) Unbound System's Energy  [=(2)] =   +0.00 kcal/mol
USER    
USER    
USER    NEWDPF move ligand_449.pdbqt
USER    NEWDPF about 0.000000 0.000000 0.000000
USER    NEWDPF tran0 12.273600 6.910171 3.630095
USER    NEWDPF quaternion0 0.413525 -0.070824 0.265830 -0.867937
USER    NEWDPF axisangle0 0.832589 -0.142597 0.535221 -59.560386
USER    NEWDPF quat0 0.832589 -0.142597 0.535221 -59.560386
USER  keepresnum = 1 
USER  
REMARK  0 active torsions:
REMARK  status: ('A' for Active; 'I' for Inactive)
REMARK       I    between atoms: C2_2  and  C3_3 
REMARK       I    between atoms: C3_3  and  C4_4 
REMARK       I    between atoms: C4_4  and  C5_5 
REMARK       I    between atoms: C4_4  and  N1_65 
REMARK       I    between atoms: C5_5  and  O2_53 
REMARK       I    between atoms: C6_6  and  C7_7 
REMARK       I    between atoms: C6_6  and  N1_65 
REMARK       I    between atoms: C7_7  and  C8_8 
REMARK       I    between atoms: C7_7  and  N2_66 
REMARK       I    between atoms: C8_8  and  C10_10 
REMARK       I    between atoms: C12_12  and  C13_13 
REMARK       I    between atoms: C12_12  and  N2_66 
REMARK       I    between atoms: C13_13  and  C14_14 
REMARK       I    between atoms: C13_13  and  N6_71 
REMARK       I    between atoms: C14_14  and  C15_15 
REMARK       I    between atoms: C15_15  and  C16_16 
REMARK       I    between atoms: C16_16  and  N3_67 
REMARK       I    between atoms: C17_17  and  N4_69 
REMARK       I    between atoms: C17_17  and  N5_70 
REMARK       I    between atoms: C18_18  and  C19_19 
REMARK       I    between atoms: C18_18  and  N6_71 
REMARK       I    between atoms: C19_19  and  N7_72 
REMARK       I    between atoms: C20_20  and  C21_21 
REMARK       I    between atoms: C20_20  and  N7_72 
REMARK       I    between atoms: C21_21  and  C22_22 
REMARK       I    between atoms: C21_21  and  N8_73 
REMARK       I    between atoms: C22_22  and  O7_58 
REMARK       I    between atoms: C24_24  and  C25_25 
REMARK       I    between atoms: C24_24  and  N8_73 
REMARK       I    between atoms: C25_25  and  C26_26 
REMARK       I    between atoms: C25_25  and  N9_74 
REMARK       I    between atoms: C26_26  and  O9_60 
REMARK       I    between atoms: C28_28  and  C29_29 
REMARK       I    between atoms: C28_28  and  N9_74 
REMARK       I    between atoms: C29_29  and  C30_30 
REMARK       I    between atoms: C29_29  and  N12_78 
REMARK       I    between atoms: C30_30  and  C31_31 
REMARK       I    between atoms: C34_34  and  C35_35 
REMARK       I    between atoms: C34_34  and  N12_78 
REMARK       I    between atoms: C35_35  and  C36_36 
REMARK       I    between atoms: C35_35  and  N13_79 
REMARK       I    between atoms: C36_36  and  C37_37 
REMARK       I    between atoms: C43_43  and  C44_44 
REMARK       I    between atoms: C43_43  and  N13_79 
REMARK       I    between atoms: C44_44  and  N14_80 
REMARK       I    between atoms: C46_46  and  C47_47 
REMARK       I    between atoms: C46_46  and  N14_80 
REMARK       I    between atoms: C47_47  and  C48_48 
REMARK       I    between atoms: C47_47  and  N18_85 
REMARK       I    between atoms: C48_48  and  C49_49 
REMARK       I    between atoms: C49_49  and  C50_50 
REMARK       I    between atoms: C50_50  and  N15_81 
REMARK       I    between atoms: C51_51  and  N16_83 
REMARK       I    between atoms: C51_51  and  N17_84 
USER                              x       y       z     vdW  Elec       q    Type
USER                           _______ _______ _______ _____ _____    ______ ____
ROOT
ATOM      1  C1  UNL     1       5.855   1.485  -2.368 -0.12 +0.00    +0.005 C 
ATOM      2  C2  UNL     1       6.017   2.812  -1.646 -0.11 -0.00    -0.002 C 
ATOM      3  C3  UNL     1       5.026   2.950  -0.489 -0.11 +0.00    +0.035 C 
ATOM      4  C4  UNL     1       5.218   4.266   0.275 -0.13 +0.00    +0.182 C 
ATOM      5  C5  UNL     1       4.002   4.490   1.189 -0.05 +0.00    +0.163 C 
ATOM      6  C6  UNL     1       7.085   5.418   1.407 -0.10 +0.00    +0.241 C 
ATOM      7  C7  UNL     1       8.072   5.301   2.615 -0.13 +0.00    +0.180 C 
ATOM      8  C8  UNL     1       8.823   6.625   2.939 -0.32 +0.00    +0.013 C 
ATOM      9  C9  UNL     1       7.878   7.646   3.593 +1.28 +0.00    +0.012 C 
ATOM     10  C10 UNL     1       9.574   7.301   1.770 -0.36 +0.00    +0.002 C 
ATOM     11  C11 UNL     1      10.591   6.425   1.057 -0.35 +0.00    +0.005 C 
ATOM     12  C12 UNL     1       8.673   2.870   2.710 -0.13 +0.00    +0.241 C 
ATOM     13  C13 UNL     1       9.881   1.925   2.914+14.66 +0.00    +0.176 C 
ATOM     14  C14 UNL     1       9.595   0.504   2.410+49.30 +0.00    +0.036 C 
ATOM     15  C15 UNL     1      10.008   0.283   0.948 -0.45 +0.00    +0.022 C 
ATOM     16  C16 UNL     1       9.391   1.268  -0.044 -0.24 +0.00    +0.121 C 
ATOM     17  C17 UNL     1       9.912   1.734  -2.308 +0.02 +0.00    +0.121 C 
ATOM     18  C18 UNL     1      10.830   2.972   4.933 -0.28 +0.00    +0.236 C 
ATOM     19  C19 UNL     1      10.956   2.877   6.458 +0.26 +0.00    +0.225 C 
ATOM     20  C20 UNL     1      10.238   5.098   7.217 -0.27 +0.00    +0.243 C 
ATOM     21  C21 UNL     1      10.702   6.498   7.689 +7.09 +0.00    +0.205 C 
ATOM     22  C22 UNL     1       9.741   7.574   7.124+20.40 +0.00    +0.146 C 
ATOM     23  C23 UNL     1       8.605   7.887   8.089+97.93 +0.00    +0.042 C 
ATOM     24  C24 UNL     1      13.156   6.672   8.137 -0.41 +0.00    +0.243 C 
ATOM     25  C25 UNL     1      14.558   6.792   7.492 +0.73 +0.00    +0.205 C 
ATOM     26  C26 UNL     1      15.338   7.953   8.150+99.99 +0.00    +0.146 C 
ATOM     27  C27 UNL     1      14.618   9.297   8.113+99.99 +0.00    +0.042 C 
ATOM     28  C28 UNL     1      14.244   5.799   5.247 +1.58 +0.00    +0.241 C 
ATOM     29  C29 UNL     1      13.929   6.085   3.761 +4.61 +0.00    +0.182 C 
ATOM     30  C30 UNL     1      14.924   5.321   2.862+99.99 +0.00    +0.093 C 
ATOM     31  C31 UNL     1      16.197   6.067   2.607+99.99 +0.00    +0.028 A 
ATOM     32  C32 UNL     1      17.143   6.615   3.446+10.18 +0.00    +0.114 A 
ATOM     33  C33 UNL     1      17.791   7.094   1.470+13.46 +0.00    +0.180 A 
ATOM     34  C34 UNL     1      12.795   8.319   3.812 -0.23 +0.00    +0.241 C 
ATOM     35  C35 UNL     1      12.667   9.645   3.021+14.79 +0.00    +0.180 C 
ATOM     36  C36 UNL     1      11.649  10.573   3.701+99.99 +0.00    +0.073 C 
ATOM     37  C37 UNL     1      11.335  11.799   2.874+23.28 -0.00    -0.056 A 
ATOM     38  C38 UNL     1      11.982  13.015   3.131+15.93 +0.00    +0.007 A 
ATOM     39  C39 UNL     1      11.705  14.140   2.352+22.77 +0.00    +0.001 A 
ATOM     40  C40 UNL     1      10.781  14.059   1.313+99.99 +0.00    +0.000 A 
ATOM     41  C41 UNL     1      10.131  12.854   1.050+99.99 +0.00    +0.001 A 
ATOM     42  C42 UNL     1      10.407  11.727   1.826+99.99 +0.00    +0.007 A 
ATOM     43  C43 UNL     1      14.888   9.961   1.904+22.22 +0.00    +0.240 C 
ATOM     44  C44 UNL     1      16.197  10.771   1.978 -0.42 +0.00    +0.172 C 
ATOM     45  C45 UNL     1      16.912  10.780   0.635 -0.52 +0.00    +0.042 C 
ATOM     46  C46 UNL     1      16.845  10.468   4.349 +0.34 +0.00    +0.251 C 
ATOM     47  C47 UNL     1      17.832   9.791   5.335 +5.93 +0.00    +0.308 C 
ATOM     48  C48 UNL     1      18.051  10.702   6.553+38.80 +0.00    +0.047 C 
ATOM     49  C49 UNL     1      18.919  10.089   7.662+99.99 +0.00    +0.022 C 
ATOM     50  C50 UNL     1      20.412  10.396   7.536+38.00 +0.00    +0.121 C 
ATOM     51  C51 UNL     1      20.797  12.349   8.837 -0.65 +0.00    +0.121 C 
ATOM     52  O1  UNL     1       2.842   4.604   0.821+56.98 -0.00    -0.648 OA
ATOM     53  O2  UNL     1       4.290   4.516   2.509 +0.03 -0.00    -0.775 OA
ATOM     54  O3  UNL     1       6.768   6.487   0.889 -0.20 -0.00    -0.271 OA
ATOM     55  O4  UNL     1       7.504   2.503   2.805 -0.20 -0.00    -0.271 OA
ATOM     56  O5  UNL     1      11.305   3.890   4.260 -0.07 -0.00    -0.272 OA
ATOM     57  O6  UNL     1       9.053   4.793   7.094 -0.26 -0.00    -0.271 OA
ATOM     58  O7  UNL     1      10.425   8.807   6.851 +0.28 -0.00    -0.393 OA
ATOM     59  O8  UNL     1      13.023   6.534   9.352 -0.40 -0.00    -0.271 OA
ATOM     60  O9  UNL     1      15.680   7.647   9.505+99.99 -0.00    -0.393 OA
ATOM     61  O10 UNL     1      14.217   4.663   5.719 +2.36 -0.00    -0.271 OA
ATOM     62  O11 UNL     1      12.021   7.967   4.702 -0.26 -0.00    -0.271 OA
ATOM     63  O12 UNL     1      14.695   9.027   1.126+99.99 -0.00    -0.271 OA
ATOM     64  O13 UNL     1      15.882  11.141   4.720+99.99 -0.00    -0.271 OA
ATOM     65  N1  UNL     1       6.464   4.239   1.046 -0.00 -0.00    -0.345 N 
ATOM     66  N2  UNL     1       9.033   4.188   2.507 -0.05 -0.00    -0.346 N 
ATOM     67  N3  UNL     1       9.783   0.859  -1.387 -0.04 -0.00    -0.372 N 
ATOM     68  H3  UNL     1       9.955  -0.125  -1.592 +0.11 +0.00    +0.161 HD
ATOM     69  N4  UNL     1       9.734   3.074  -2.279 -0.16 -0.00    -0.279 NA
ATOM     70  N5  UNL     1      10.291   1.350  -3.545+53.95 -0.00    -0.279 NA
ATOM     71  N6  UNL     1      10.147   1.920   4.353+33.86 -0.00    -0.346 N 
ATOM     72  N7  UNL     1      11.247   4.174   7.026 -0.19 -0.00    -0.350 N 
ATOM     73  N8  UNL     1      12.090   6.728   7.270 -0.11 -0.00    -0.344 N 
ATOM     74  N9  UNL     1      14.504   6.905   6.032 -0.14 -0.00    -0.344 N 
ATOM     75  N10 UNL     1      18.082   7.320   2.731 +0.04 -0.00    -0.360 N 
ATOM     76  H10 UNL     1      18.839   7.894   3.101 +0.10 +0.00    +0.166 HD
ATOM     77  N11 UNL     1      16.645   6.363   1.341+96.56 -0.00    -0.354 N 
ATOM     78  N12 UNL     1      13.833   7.509   3.403 -0.23 -0.00    -0.346 N 
ATOM     79  N13 UNL     1      13.977  10.286   2.886+13.16 -0.00    -0.346 N 
ATOM     80  N14 UNL     1      17.055  10.203   3.013 -0.19 -0.00    -0.346 N 
ATOM     81  N15 UNL     1      20.661  11.831   7.678 +2.75 -0.00    -0.372 N 
ATOM     82  H15 UNL     1      20.727  12.419   6.848 +2.44 +0.00    +0.161 HD
ATOM     83  N16 UNL     1      20.732  11.791  10.065 -0.70 -0.00    -0.279 NA
ATOM     84  N17 UNL     1      21.023  13.676   8.952 +2.80 -0.00    -0.279 NA
ATOM     85  N18 UNL     1      19.103   9.431   4.688+16.81 +0.00    +0.092 N 
ATOM     86  H62 UNL     1       3.422   4.665   2.937 +0.04 +0.00    +0.167 HD
ATOM     87  H63 UNL     1      11.047   8.611   6.123 +0.15 +0.00    +0.210 HD
ATOM     88  H64 UNL     1      14.852   7.414   9.976 +0.14 +0.00    +0.210 HD
ATOM     89  H65 UNL     1       6.523   3.501   1.753 +0.06 +0.00    +0.163 HD
ATOM     90  H66 UNL     1       9.967   4.392   2.863 -0.31 +0.00    +0.163 HD
ATOM     91  H67 UNL     1       9.196   3.407  -1.490 +0.06 +0.00    +0.126 HD
ATOM     92  H68 UNL     1       9.331   3.417  -3.144 +0.04 +0.00    +0.126 HD
ATOM     93  H69 UNL     1      11.037   1.926  -3.916 +0.54 +0.00    +0.126 HD
ATOM     94  H70 UNL     1      10.570   0.374  -3.529 +0.06 +0.00    +0.126 HD
ATOM     95  H71 UNL     1       9.481   1.427   4.937+18.27 +0.00    +0.163 HD
ATOM     96  H72 UNL     1      12.189   4.531   6.897 +0.12 +0.00    +0.163 HD
ATOM     97  H73 UNL     1      12.255   6.891   6.281 +0.13 +0.00    +0.163 HD
ATOM     98  H74 UNL     1      14.329   7.813   5.619 +0.12 +0.00    +0.163 HD
ATOM     99  H75 UNL     1      16.204   6.111   0.467 +6.65 +0.00    +0.166 HD
ATOM    100  H76 UNL     1      14.238   7.769   2.502 -0.25 +0.00    +0.163 HD
ATOM    101  H77 UNL     1      14.337  10.836   3.671+26.55 +0.00    +0.163 HD
ATOM    102  H78 UNL     1      17.560   9.343   2.803 +0.13 +0.00    +0.163 HD
ATOM    103  H79 UNL     1      21.419  12.182  10.699 +0.08 +0.00    +0.126 HD
ATOM    104  H80 UNL     1      20.769  10.780  10.072 +0.08 +0.00    +0.126 HD
ATOM    105  H81 UNL     1      20.902  14.115   8.044+93.22 +0.00    +0.126 HD
ATOM    106  H82 UNL     1      20.410  14.104   9.635 -0.03 +0.00    +0.126 HD
ATOM    107  H83 UNL     1      19.468  10.236   4.180 +2.71 +0.00    +0.313 HD
ATOM    108  H84 UNL     1      18.963   8.677   4.006 +0.22 +0.00    +0.313 HD
ENDROOT
TORSDOF 41
TER
