USER    Run = 1
USER    DPF = ligand_435_receptor.dpf
USER  
USER    Estimated Free Energy of Binding    =  +4.43e+004 kcal/mol  [=(1)+(2)+(3)-(4)]
USER    
USER    (1) Final Intermolecular Energy     =  +4.43e+004 kcal/mol
USER        vdW + Hbond + desolv Energy     =  +4.43e+004 kcal/mol
USER        Electrostatic Energy            =   +0.00 kcal/mol
USER    (2) Final Total Internal Energy     =   +0.00 kcal/mol
USER    (3) Torsional Free Energy           =   +1.19 kcal/mol
USER    (4) Unbound System's Energy  [=(2)] =   +0.00 kcal/mol
USER    
USER    
USER    NEWDPF move ligand_435.pdbqt
USER    NEWDPF about 0.000000 0.000000 0.000000
USER    NEWDPF tran0 13.108797 6.651179 2.970008
USER    NEWDPF quaternion0 0.287755 0.220974 0.862736 0.352214
USER    NEWDPF axisangle0 0.307457 0.236103 0.921806 138.754368
USER    NEWDPF quat0 0.307457 0.236103 0.921806 138.754368
USER  keepresnum = 1 
USER  
REMARK  0 active torsions:
REMARK  status: ('A' for Active; 'I' for Inactive)
REMARK       I    between atoms: C2_2  and  C3_3 
REMARK       I    between atoms: C3_3  and  O1_66 
REMARK       I    between atoms: C4_4  and  C5_5 
REMARK       I    between atoms: C4_4  and  O1_66 
REMARK       I    between atoms: C5_5  and  N1_82 
REMARK       I    between atoms: C6_6  and  C7_7 
REMARK       I    between atoms: C6_6  and  N1_82 
REMARK       I    between atoms: C9_9  and  C59_59 
REMARK       I    between atoms: C13_13  and  C57_57 
REMARK       I    between atoms: C17_17  and  C53_53 
REMARK       I    between atoms: C21_21  and  C25_25 
REMARK       I    between atoms: C25_25  and  C26_26 
REMARK       I    between atoms: C26_26  and  C27_27 
REMARK       I    between atoms: C27_27  and  C28_28 
REMARK       I    between atoms: C28_28  and  N10_91 
REMARK       I    between atoms: C29_29  and  C30_30 
REMARK       I    between atoms: C29_29  and  N10_91 
REMARK       I    between atoms: C30_30  and  C31_31 
REMARK       I    between atoms: C31_31  and  C32_32 
REMARK       I    between atoms: C32_32  and  C33_33 
REMARK       I    between atoms: C33_33  and  N11_92 
REMARK       I    between atoms: C34_34  and  C35_35 
REMARK       I    between atoms: C34_34  and  N11_92 
REMARK       I    between atoms: C35_35  and  C36_36 
REMARK       I    between atoms: C36_36  and  C37_37 
REMARK       I    between atoms: C36_36  and  C44_44 
REMARK       I    between atoms: C37_37  and  C38_38 
REMARK       I    between atoms: C38_38  and  N12_93 
REMARK       I    between atoms: C39_39  and  C40_40 
REMARK       I    between atoms: C39_39  and  N12_93 
REMARK       I    between atoms: C44_44  and  C45_45 
REMARK       I    between atoms: C45_45  and  N14_96 
REMARK       I    between atoms: C46_46  and  C47_47 
REMARK       I    between atoms: C46_46  and  N14_96 
REMARK       I    between atoms: C53_53  and  C54_54 
REMARK       I    between atoms: C54_54  and  C55_55 
REMARK       I    between atoms: C55_55  and  N16_99 
REMARK       I    between atoms: C56_56  and  N17_101 
REMARK       I    between atoms: C56_56  and  N18_102 
REMARK       I    between atoms: C57_57  and  C58_58 
REMARK       I    between atoms: C58_58  and  O16_81 
REMARK       I    between atoms: C59_59  and  C60_60 
REMARK       I    between atoms: O13_78  and  N13_94 
REMARK       I    between atoms: O14_79  and  N15_97 
USER                              x       y       z     vdW  Elec       q    Type
USER                           _______ _______ _______ _____ _____    ______ ____
ROOT
ATOM      1  C1  UNL     1       6.474   1.699  -0.959 -0.13 +0.00    +0.007 C 
ATOM      2  C2  UNL     1       6.672   3.081  -0.352 -0.10 +0.00    +0.022 C 
ATOM      3  C3  UNL     1       8.070   3.267   0.226 -0.08 +0.00    +0.167 C 
ATOM      4  C4  UNL     1      10.352   3.415  -0.333 +0.74 +0.00    +0.187 C 
ATOM      5  C5  UNL     1      11.363   3.289  -1.477 +4.48 +0.00    +0.148 C 
ATOM      6  C6  UNL     1      13.456   3.135  -0.176+99.99 +0.00    +0.241 C 
ATOM      7  C7  UNL     1      14.690   3.938   0.317+99.99 +0.00    +0.186 C 
ATOM      8  C8  UNL     1      14.014   6.354   0.071+12.69 +0.00    +0.241 C 
ATOM      9  C9  UNL     1      13.359   7.533   0.829+13.97 +0.00    +0.180 C 
ATOM     10  C10 UNL     1      14.192   9.189   2.479+32.19 +0.00    +0.241 C 
ATOM     11  C11 UNL     1      15.424  10.026   2.901 -0.03 +0.00    +0.185 C 
ATOM     12  C12 UNL     1      16.154  10.878   0.673 -0.28 +0.00    +0.241 C 
ATOM     13  C13 UNL     1      17.357  11.019  -0.293 +2.50 +0.00    +0.186 C 
ATOM     14  C14 UNL     1      19.334  11.600   1.093 -0.50 +0.00    +0.236 C 
ATOM     15  C15 UNL     1      20.692  11.133   1.621 -0.10 +0.00    +0.225 C 
ATOM     16  C16 UNL     1      20.942   8.670   1.385+22.67 +0.00    +0.240 C 
ATOM     17  C17 UNL     1      21.230   7.385   2.196+99.99 +0.00    +0.176 C 
ATOM     18  C18 UNL     1      19.167   7.248   3.564 +2.29 +0.00    +0.241 C 
ATOM     19  C19 UNL     1      17.847   6.477   3.822+37.72 +0.00    +0.186 C 
ATOM     20  C20 UNL     1      16.063   6.665   5.570 +5.38 +0.00    +0.241 C 
ATOM     21  C21 UNL     1      15.551   7.517   6.768+99.99 +0.00    +0.176 C 
ATOM     22  C22 UNL     1      16.297   9.861   6.377+99.99 +0.00    +0.227 C 
ATOM     23  C23 UNL     1      15.840  11.301   6.230+99.99 +0.00    +0.176 C 
ATOM     24  C24 UNL     1      15.011  11.350   3.556+99.99 +0.00    +0.109 C 
ATOM     25  C25 UNL     1      14.271   6.929   7.380 +0.07 +0.00    +0.035 C 
ATOM     26  C26 UNL     1      14.527   5.696   8.252 -0.54 +0.00    +0.004 C 
ATOM     27  C27 UNL     1      13.251   5.174   8.925 +0.86 +0.00    +0.020 C 
ATOM     28  C28 UNL     1      12.180   4.668   7.959 -0.48 +0.00    +0.122 C 
ATOM     29  C29 UNL     1      11.671   2.719   6.560 +9.95 +0.00    +0.217 C 
ATOM     30  C30 UNL     1      12.269   1.547   5.819+99.99 +0.00    +0.103 C 
ATOM     31  C31 UNL     1      12.779   1.947   4.437+99.99 +0.00    +0.018 C 
ATOM     32  C32 UNL     1      11.657   2.362   3.484+25.69 +0.00    +0.103 C 
ATOM     33  C33 UNL     1      11.591   3.866   3.318+84.69 +0.00    +0.217 C 
ATOM     34  C34 UNL     1      10.455   5.923   4.035 -0.25 +0.00    +0.123 C 
ATOM     35  C35 UNL     1       8.999   6.383   3.982 -0.28 +0.00    +0.024 C 
ATOM     36  C36 UNL     1       8.104   5.939   5.163 +0.04 -0.00    -0.010 C 
ATOM     37  C37 UNL     1       8.728   6.222   6.549 +2.09 +0.00    +0.034 C 
ATOM     38  C38 UNL     1       9.004   7.701   6.851+99.99 +0.00    +0.271 C 
ATOM     39  C39 UNL     1      10.263   9.159   8.436+99.99 +0.00    +0.190 C 
ATOM     40  C40 UNL     1      11.203   9.817   7.372 +7.00 +0.00    +0.043 C 
ATOM     41  C41 UNL     1      11.372  11.329   7.430+99.99 +0.00    +0.068 C 
ATOM     42  C42 UNL     1       9.026  10.027   8.722+99.99 +0.00    +0.055 C 
ATOM     43  C43 UNL     1      11.085   9.009   9.730+99.99 +0.00    +0.055 C 
ATOM     44  C44 UNL     1       6.695   6.566   5.058 +4.29 +0.00    +0.034 C 
ATOM     45  C45 UNL     1       5.888   6.040   3.862 +0.08 +0.00    +0.271 C 
ATOM     46  C46 UNL     1       3.724   6.377   2.673 +0.12 +0.00    +0.190 C 
ATOM     47  C47 UNL     1       4.328   6.987   1.365+21.39 +0.00    +0.043 C 
ATOM     48  C48 UNL     1       3.909   6.364   0.043+76.78 +0.00    +0.068 C 
ATOM     49  C49 UNL     1       2.378   7.085   2.908 +3.53 +0.00    +0.055 C 
ATOM     50  C50 UNL     1       3.483   4.863   2.558 -0.13 +0.00    +0.055 C 
ATOM     51  C51 UNL     1      16.970   6.433   2.563+10.46 +0.00    +0.120 C 
ATOM     52  C52 UNL     1      15.398   3.115   1.412+99.99 +0.00    +0.120 C 
ATOM     53  C53 UNL     1      22.101   6.428   1.375+99.99 +0.00    +0.036 C 
ATOM     54  C54 UNL     1      22.559   5.215   2.196+20.27 +0.00    +0.022 C 
ATOM     55  C55 UNL     1      23.476   4.288   1.397 -0.35 +0.00    +0.121 C 
ATOM     56  C56 UNL     1      25.656   4.346   0.519 -0.23 +0.00    +0.121 C 
ATOM     57  C57 UNL     1      17.117  10.219  -1.580+22.98 +0.00    +0.144 C 
ATOM     58  C58 UNL     1      16.580   8.843  -1.309 +0.90 +0.00    +0.141 C 
ATOM     59  C59 UNL     1      12.569   8.444  -0.126+99.99 +0.00    +0.073 C 
ATOM     60  C60 UNL     1      11.248   7.845  -0.547 +7.83 -0.00    -0.056 A 
ATOM     61  C61 UNL     1      11.080   7.313  -1.830 -0.26 +0.00    +0.007 A 
ATOM     62  C62 UNL     1       9.850   6.775  -2.214 -0.30 +0.00    +0.001 A 
ATOM     63  C63 UNL     1       8.783   6.761  -1.318 -0.28 +0.00    +0.000 A 
ATOM     64  C64 UNL     1       8.942   7.284  -0.037 -0.34 +0.00    +0.001 A 
ATOM     65  C65 UNL     1      10.167   7.825   0.348 +1.36 +0.00    +0.007 A 
ATOM     66  O1  UNL     1       9.032   3.173  -0.824 -0.03 -0.00    -0.390 OA
ATOM     67  O2  UNL     1      13.202   1.991   0.196+99.99 -0.00    -0.271 OA
ATOM     68  O3  UNL     1      14.415   6.433  -1.092 +1.92 -0.00    -0.271 OA
ATOM     69  O4  UNL     1      13.125   9.212   3.095 +1.23 -0.00    -0.271 OA
ATOM     70  O5  UNL     1      15.018  11.232   0.361 -0.11 -0.00    -0.271 OA
ATOM     71  O6  UNL     1      18.948  12.759   1.227 -0.57 -0.00    -0.272 OA
ATOM     72  O7  UNL     1      20.813   8.703   0.162+13.07 -0.00    -0.271 OA
ATOM     73  O8  UNL     1      19.499   8.238   4.217 -0.28 -0.00    -0.271 OA
ATOM     74  O9  UNL     1      15.599   5.564   5.279+56.12 -0.00    -0.271 OA
ATOM     75  O10 UNL     1      17.481   9.541   6.474+99.99 -0.00    -0.273 OA
ATOM     76  O11 UNL     1      10.477   2.992   6.474 -0.37 -0.00    -0.274 OA
ATOM     77  O12 UNL     1      12.399   4.474   2.620+99.99 -0.00    -0.274 OA
ATOM     78  O13 UNL     1      12.551   9.851   5.579+99.99 -0.00    -0.290 OA
ATOM     79  O14 UNL     1       5.593   8.419   0.183 +6.86 -0.00    -0.290 OA
ATOM     80  O15 UNL     1      16.732   8.211  -0.276 -0.13 -0.00    -0.650 OA
ATOM     81  O16 UNL     1      15.865   8.342  -2.330+99.99 -0.00    -0.776 OA
ATOM     82  N1  UNL     1      12.676   3.785  -1.111+99.99 -0.00    -0.357 N 
ATOM     83  N2  UNL     1      14.199   5.226   0.837+99.99 -0.00    -0.345 N 
ATOM     84  N3  UNL     1      14.435   8.280   1.473+22.18 -0.00    -0.346 N 
ATOM     85  N4  UNL     1      16.416  10.185   1.837 -0.20 -0.00    -0.345 N 
ATOM     86  N5  UNL     1      18.626  10.672   0.360 -0.22 -0.00    -0.346 N 
ATOM     87  N6  UNL     1      20.725   9.785   2.161 -0.18 -0.00    -0.351 N 
ATOM     88  N7  UNL     1      19.965   6.756   2.560+99.99 -0.00    -0.346 N 
ATOM     89  N8  UNL     1      17.152   7.188   4.909 +2.64 -0.00    -0.345 N 
ATOM     90  N9  UNL     1      15.298   8.916   6.388+99.99 -0.00    -0.347 N 
ATOM     91  N10 UNL     1      12.585   3.458   7.273 +0.26 -0.00    -0.361 N 
ATOM     92  N11 UNL     1      10.571   4.479   4.002 -0.08 -0.00    -0.361 N 
ATOM     93  N12 UNL     1       9.855   7.786   8.042+99.99 +0.00    +0.098 N 
ATOM     94  N13 UNL     1      11.806   9.083   6.475 +1.80 -0.00    -0.275 N 
ATOM     95  H13 UNL     1      11.739   8.066   6.433 +0.14 +0.00    +0.193 HD
ATOM     96  N14 UNL     1       4.572   6.679   3.856 +0.03 +0.00    +0.098 N 
ATOM     97  N15 UNL     1       5.140   8.007   1.439 +9.41 -0.00    -0.275 N 
ATOM     98  H15 UNL     1       5.413   8.454   2.315 +0.09 +0.00    +0.193 HD
ATOM     99  N16 UNL     1      24.737   4.977   1.145 -0.23 -0.00    -0.372 N 
ATOM    100  H16 UNL     1      24.882   5.936   1.459 +0.12 +0.00    +0.161 HD
ATOM    101  N17 UNL     1      26.843   4.944   0.283 -0.31 -0.00    -0.279 NA
ATOM    102  N18 UNL     1      25.664   3.091   0.019+99.99 -0.00    -0.279 NA
ATOM    103  S1  UNL     1      16.336  12.022   4.632+86.22 -0.00    -0.157 SA
ATOM    104  S2  UNL     1      17.553   5.359   1.197+99.99 -0.00    -0.095 SA
ATOM    105  S3  UNL     1      17.152   3.472   1.855+81.62 -0.00    -0.095 SA
ATOM    106  H89 UNL     1      12.493   9.345   4.733 +0.34 +0.00    +0.244 HD
ATOM    107  H90 UNL     1       6.148   9.192   0.403 +0.32 +0.00    +0.244 HD
ATOM    108  H91 UNL     1      15.481   7.487  -2.000 +1.22 +0.00    +0.167 HD
ATOM    109  H92 UNL     1      12.919   4.735  -1.368 +1.57 +0.00    +0.162 HD
ATOM    110  H93 UNL     1      13.602   5.143   1.669 +0.77 +0.00    +0.163 HD
ATOM    111  H94 UNL     1      15.308   8.387   0.953 -0.35 +0.00    +0.163 HD
ATOM    112  H95 UNL     1      17.393  10.175   2.112 +0.14 +0.00    +0.163 HD
ATOM    113  H96 UNL     1      19.080   9.781   0.155 +0.13 +0.00    +0.163 HD
ATOM    114  H97 UNL     1      20.522   9.643   3.152 +0.11 +0.00    +0.163 HD
ATOM    115  H98 UNL     1      19.548   6.128   1.878+99.99 +0.00    +0.163 HD
ATOM    116  H99 UNL     1      17.636   7.985   5.337 +0.24 +0.00    +0.163 HD
ATOM    117  HA0 UNL     1      14.322   9.203   6.283 +0.19 +0.00    +0.163 HD
ATOM    118  HA1 UNL     1      13.554   3.386   6.981 +0.10 +0.00    +0.162 HD
ATOM    119  HA2 UNL     1      10.187   3.971   4.801 +0.09 +0.00    +0.162 HD
ATOM    120  HA3 UNL     1       9.374   7.337   8.821+99.99 +0.00    +0.317 HD
ATOM    121  HA4 UNL     1       4.072   6.434   4.708 +0.12 +0.00    +0.317 HD
ATOM    122  HA5 UNL     1      27.625   4.350   0.530 +0.05 +0.00    +0.126 HD
ATOM    123  HA6 UNL     1      26.890   5.819   0.797 +0.08 +0.00    +0.126 HD
ATOM    124  HA7 UNL     1      26.163   3.038  -0.863 +0.39 +0.00    +0.126 HD
ATOM    125  HA8 UNL     1      24.747   2.672  -0.066 +0.13 +0.00    +0.126 HD
ENDROOT
TORSDOF 39
TER
