USER    Run = 1
USER    DPF = ligand_520_receptor.dpf
USER  
USER    Estimated Free Energy of Binding    = +189.43 kcal/mol  [=(1)+(2)+(3)-(4)]
USER    
USER    (1) Final Intermolecular Energy     = +188.23 kcal/mol
USER        vdW + Hbond + desolv Energy     = +188.23 kcal/mol
USER        Electrostatic Energy            =   +0.00 kcal/mol
USER    (2) Final Total Internal Energy     =  +40.25 kcal/mol
USER    (3) Torsional Free Energy           =   +1.19 kcal/mol
USER    (4) Unbound System's Energy  [=(2)] =  +40.25 kcal/mol
USER    
USER    
USER    NEWDPF move ligand_520.pdbqt
USER    NEWDPF about 0.000000 0.000000 0.000000
USER    NEWDPF tran0 17.657013 8.603582 -1.125736
USER    NEWDPF quaternion0 0.248247 0.042351 0.000902 0.967770
USER    NEWDPF axisangle0 0.985752 0.168168 0.003583 29.172268
USER    NEWDPF quat0 0.985752 0.168168 0.003583 29.172268
USER    NEWDPF dihe0 29.29 -45.01 31.17 71.11 10.03 -84.86 69.22 151.03 168.54 27.61 -119.92 180.00 140.32 -10.17 -22.83 -1.77 -180.00 160.37 -131.79 154.79 111.09 -100.23 -121.17 116.30 
USER  keepresnum = 1 
USER  
REMARK  24 active torsions:
REMARK  status: ('A' for Active; 'I' for Inactive)
REMARK    1  A    between atoms: C2_2  and  C3_3 
REMARK    2  A    between atoms: C2_2  and  N10_86 
REMARK       I    between atoms: C3_3  and  N1_77 
REMARK    3  A    between atoms: C4_4  and  C5_5 
REMARK    4  A    between atoms: C4_4  and  C62_62 
REMARK    5  A    between atoms: C4_4  and  N1_77 
REMARK       I    between atoms: C5_5  and  N2_78 
REMARK    6  A    between atoms: C10_10  and  C11_11 
REMARK       I    between atoms: C11_11  and  N3_79 
REMARK    7  A    between atoms: C12_12  and  C13_13 
REMARK    8  A    between atoms: C12_12  and  C15_15 
REMARK    9  A    between atoms: C12_12  and  N3_79 
REMARK   10  A    between atoms: C13_13  and  O4_70 
REMARK   11  A    between atoms: C23_23  and  N4_80 
REMARK   12  A    between atoms: C25_25  and  C26_26 
REMARK       I    between atoms: C25_25  and  N4_80 
REMARK   13  A    between atoms: C29_29  and  C32_32 
REMARK       I    between atoms: C32_32  and  N5_81 
REMARK   14  A    between atoms: C33_33  and  N5_81 
REMARK   15  A    between atoms: C38_38  and  C50_50 
REMARK   16  A    between atoms: C40_40  and  C41_41 
REMARK       I    between atoms: C40_40  and  N6_82 
REMARK   17  A    between atoms: C41_41  and  C42_42 
REMARK   18  A    between atoms: C41_41  and  N7_83 
REMARK   19  A    between atoms: C46_46  and  C47_47 
REMARK       I    between atoms: C46_46  and  N7_83 
REMARK   20  A    between atoms: C47_47  and  N8_84 
REMARK       I    between atoms: C50_50  and  N9_85 
REMARK   21  A    between atoms: C51_51  and  C52_52 
REMARK   22  A    between atoms: C51_51  and  C54_54 
REMARK   23  A    between atoms: C51_51  and  N9_85 
REMARK   24  A    between atoms: C52_52  and  O10_76 
USER                              x       y       z     vdW  Elec       q    Type
USER                           _______ _______ _______ _____ _____    ______ ____
ROOT
ATOM      1  C26 UNL     1      19.082   8.936  -0.951 +9.71 +0.00    +0.032 A 
ATOM      2  C27 UNL     1      18.280   8.693  -2.075+21.68 +0.00    +0.018 A 
ATOM      3  C28 UNL     1      16.885   8.733  -1.965 +0.81 +0.00    +0.018 A 
ATOM      4  C29 UNL     1      16.286   9.015  -0.729 +0.87 +0.00    +0.032 A 
ATOM      5  C30 UNL     1      17.088   9.221   0.399 -0.50 +0.00    +0.018 A 
ATOM      6  C31 UNL     1      18.480   9.183   0.288 +0.90 +0.00    +0.018 A 
ENDROOT
BRANCH   1   7
ATOM      7  C25 UNL     1      20.571   8.894  -1.024+12.48 +0.00    +0.256 C 
ATOM      8  O5  UNL     1      21.169   9.946  -1.217+24.68 -0.00    -0.267 OA
ATOM      9  N4  UNL     1      21.127   7.634  -0.893+12.06 -0.00    -0.323 N 
ATOM     10  H79 UNL     1      20.489   6.851  -0.853+11.98 +0.00    +0.169 HD
BRANCH   9  11
ATOM     11  C23 UNL     1      22.497   7.297  -0.892 -0.23 +0.00    +0.035 A 
ATOM     12  C22 UNL     1      23.199   7.485  -2.088 +2.46 +0.00    +0.030 A 
ATOM     13  C21 UNL     1      24.555   7.164  -2.181 -0.11 +0.00    +0.010 A 
ATOM     14  C8  UNL     1      25.235   6.644  -1.076 -0.43 -0.00    -0.048 A 
ATOM     15  C7  UNL     1      24.546   6.473   0.144 -0.44 -0.00    -0.032 A 
ATOM     16  C9  UNL     1      26.711   6.314  -1.198 -0.36 +0.00    +0.074 C 
ATOM     17  C6  UNL     1      25.242   5.908   1.372 -0.35 +0.00    +0.166 C 
ATOM     18  C24 UNL     1      23.178   6.787   0.216 -0.32 +0.00    +0.039 A 
ATOM     19  N2  UNL     1      26.694   6.029   1.261 +0.20 -0.00    -0.332 N 
ATOM     20  C5  UNL     1      27.334   7.191   1.735 +0.06 +0.00    +0.244 C 
ATOM     21  C10 UNL     1      27.184   5.467  -0.011 -0.25 +0.00    +0.184 C 
ATOM     22  O2  UNL     1      28.254   7.709   1.100 -0.26 -0.00    -0.271 OA
BRANCH  20  23
ATOM     23  C4  UNL     1      26.913   7.710   3.148 +0.11 +0.00    +0.184 C 
BRANCH  23  24
ATOM     24  C62 UNL     1      25.878   6.839   3.930 +0.86 -0.00    -0.022 C 
ATOM     25  C63 UNL     1      24.562   7.642   4.081 +6.02 +0.00    +0.017 C 
ATOM     26  C64 UNL     1      26.392   6.541   5.353 +1.62 +0.00    +0.017 C 
ATOM     27  C65 UNL     1      25.537   5.516   3.224+14.37 +0.00    +0.017 C 
ENDBRANCH  23  24
BRANCH  23  28
ATOM     28  N1  UNL     1      26.412   9.069   2.923 -0.33 -0.00    -0.345 N 
ATOM     29  C3  UNL     1      25.865   9.475   1.723 -0.26 +0.00    +0.251 C 
ATOM     30  O1  UNL     1      25.955   8.827   0.686 -0.22 -0.00    -0.271 OA
ATOM     31  H77 UNL     1      26.093   9.596   3.733 +0.00 +0.00    +0.163 HD
BRANCH  29  32
ATOM     32  C2  UNL     1      25.130  10.830   1.838 +0.76 +0.00    +0.307 C 
ATOM     33  C1  UNL     1      25.038  11.267   3.299 +0.86 +0.00    +0.053 C 
BRANCH  32  34
ATOM     34  N10 UNL     1      25.868  11.805   0.995 +9.33 +0.00    +0.092 N 
ATOM     35  C66 UNL     1      25.488  13.180   1.293 +7.16 +0.00    +0.307 C 
ATOM     36  H84 UNL     1      26.867  11.694   1.172 +5.14 +0.00    +0.316 HD
ENDBRANCH  32  34
ENDBRANCH  29  32
ENDBRANCH  23  28
ENDBRANCH  20  23
BRANCH  21  37
ATOM     37  C11 UNL     1      28.685   5.124  -0.075 -0.15 +0.00    +0.241 C 
ATOM     38  O3  UNL     1      29.426   5.212   0.903 -0.17 -0.00    -0.271 OA
ATOM     39  N3  UNL     1      29.164   4.882  -1.344 -0.02 -0.00    -0.349 N 
ATOM     40  H78 UNL     1      28.566   5.072  -2.141 +0.07 +0.00    +0.163 HD
BRANCH  39  41
ATOM     41  C12 UNL     1      30.586   4.686  -1.598 -0.04 +0.00    +0.141 C 
BRANCH  41  42
ATOM     42  C13 UNL     1      31.219   5.970  -2.187 -0.03 +0.00    +0.197 C 
BRANCH  42  43
ATOM     43  O4  UNL     1      30.356   7.107  -2.010 -0.06 -0.00    -0.394 OA
ATOM     44  C14 UNL     1      30.582   8.091  -3.009 -0.21 +0.00    +0.201 C 
ENDBRANCH  42  43
ENDBRANCH  41  42
BRANCH  41  45
ATOM     45  C15 UNL     1      30.791   3.391  -2.374 -0.05 -0.00    -0.033 A 
ATOM     46  C16 UNL     1      29.750   2.529  -2.743 -0.13 +0.00    +0.009 A 
ATOM     47  C17 UNL     1      30.008   1.362  -3.469 -0.11 +0.00    +0.001 A 
ATOM     48  C18 UNL     1      31.311   1.038  -3.838 -0.08 +0.00    +0.000 A 
ATOM     49  C19 UNL     1      32.359   1.882  -3.484 -0.05 +0.00    +0.001 A 
ATOM     50  C20 UNL     1      32.101   3.047  -2.759 -0.03 +0.00    +0.009 A 
ENDBRANCH  41  45
ENDBRANCH  39  41
ENDBRANCH  21  37
ENDBRANCH   9  11
ENDBRANCH   1   7
BRANCH   4  51
ATOM     51  C32 UNL     1      14.804   9.056  -0.568 +6.83 +0.00    +0.256 C 
ATOM     52  O6  UNL     1      14.253  10.149  -0.574+11.99 -0.00    -0.267 OA
ATOM     53  N5  UNL     1      14.197   7.817  -0.470 +0.73 -0.00    -0.323 N 
ATOM     54  H80 UNL     1      14.776   7.007  -0.639 -0.19 +0.00    +0.169 HD
BRANCH  53  55
ATOM     55  C33 UNL     1      12.827   7.552  -0.263 +5.37 +0.00    +0.035 A 
ATOM     56  C34 UNL     1      12.293   7.095   0.944 +0.55 +0.00    +0.039 A 
ATOM     57  C35 UNL     1      10.919   6.846   1.064 -0.27 -0.00    -0.032 A 
ATOM     58  C36 UNL     1      10.069   7.059  -0.031 -0.26 -0.00    -0.048 A 
ATOM     59  C39 UNL     1      10.306   6.369   2.358 -0.25 +0.00    +0.166 C 
ATOM     60  C37 UNL     1       8.594   6.841   0.172 -0.31 +0.00    +0.074 C 
ATOM     61  C60 UNL     1      10.593   7.524  -1.236 -0.15 +0.00    +0.010 A 
ATOM     62  C38 UNL     1       8.279   5.625   1.078 -0.13 +0.00    +0.184 C 
ATOM     63  N6  UNL     1       9.333   5.308   2.076 -0.04 -0.00    -0.332 N 
ATOM     64  C40 UNL     1       9.486   4.099   2.746 +0.16 +0.00    +0.244 C 
ATOM     65  O7  UNL     1      10.262   4.026   3.709 -0.16 -0.00    -0.271 OA
ATOM     66  C61 UNL     1      11.966   7.759  -1.351 +4.90 +0.00    +0.030 A 
BRANCH  62  67
ATOM     67  C50 UNL     1       6.928   5.938   1.754 -0.14 +0.00    +0.241 C 
ATOM     68  O9  UNL     1       6.751   6.988   2.369 -0.24 -0.00    -0.271 OA
ATOM     69  N9  UNL     1       6.023   4.898   1.744 -0.03 -0.00    -0.349 N 
ATOM     70  H83 UNL     1       6.073   4.317   0.910 +0.06 +0.00    +0.163 HD
BRANCH  69  71
ATOM     71  C51 UNL     1       4.665   5.046   2.262 -0.15 +0.00    +0.141 C 
BRANCH  71  72
ATOM     72  C52 UNL     1       3.804   3.831   1.839 -0.08 +0.00    +0.197 C 
BRANCH  72  73
ATOM     73  O10 UNL     1       4.091   3.427   0.494 -0.10 -0.00    -0.394 OA
ATOM     74  C53 UNL     1       2.918   3.260  -0.292 -0.07 +0.00    +0.201 C 
ENDBRANCH  72  73
ENDBRANCH  71  72
BRANCH  71  75
ATOM     75  C54 UNL     1       4.634   5.188   3.776 -0.16 -0.00    -0.033 A 
ATOM     76  C55 UNL     1       5.356   4.291   4.580 -0.21 +0.00    +0.009 A 
ATOM     77  C56 UNL     1       5.356   4.425   5.970 -0.36 +0.00    +0.001 A 
ATOM     78  C57 UNL     1       4.636   5.454   6.573 -0.36 +0.00    +0.000 A 
ATOM     79  C58 UNL     1       3.914   6.350   5.789 -0.20 +0.00    +0.001 A 
ATOM     80  C59 UNL     1       3.911   6.219   4.400 -0.17 +0.00    +0.009 A 
ENDBRANCH  71  75
ENDBRANCH  69  71
ENDBRANCH  62  67
BRANCH  64  81
ATOM     81  C41 UNL     1       8.870   2.762   2.211 -0.12 +0.00    +0.184 C 
BRANCH  81  82
ATOM     82  C42 UNL     1       7.818   2.149   3.210 +0.40 -0.00    -0.022 C 
ATOM     83  C43 UNL     1       6.444   2.837   3.136 -0.27 +0.00    +0.017 C 
ATOM     84  C44 UNL     1       7.613   0.642   2.938+16.98 +0.00    +0.017 C 
ATOM     85  C45 UNL     1       8.345   2.273   4.660 +5.73 +0.00    +0.017 C 
ENDBRANCH  81  82
BRANCH  81  86
ATOM     86  N7  UNL     1       9.824   1.764   1.732 +0.15 -0.00    -0.345 N 
ATOM     87  C46 UNL     1      10.269   1.790   0.420 +0.72 +0.00    +0.251 C 
ATOM     88  O8  UNL     1      10.153   2.768  -0.309 -0.09 -0.00    -0.271 OA
ATOM     89  H81 UNL     1       9.736   0.807   2.065 -0.49 +0.00    +0.163 HD
BRANCH  87  90
ATOM     90  C47 UNL     1      10.954   0.469   0.004 -0.11 +0.00    +0.307 C 
ATOM     91  C48 UNL     1      11.873   0.654  -1.200 -0.48 +0.00    +0.053 C 
BRANCH  90  92
ATOM     92  N8  UNL     1       9.934  -0.605  -0.156 -0.34 +0.00    +0.092 N 
ATOM     93  C49 UNL     1       8.635  -0.261   0.418 +0.37 +0.00    +0.307 C 
ATOM     94  H82 UNL     1       9.806  -0.766  -1.156 +0.21 +0.00    +0.316 HD
ENDBRANCH  90  92
ENDBRANCH  87  90
ENDBRANCH  81  86
ENDBRANCH  64  81
ENDBRANCH  53  55
ENDBRANCH   4  51
TORSDOF 24
TER
