USER    Run = 1
USER    DPF = ligand_207_receptor.dpf
USER  
USER    Estimated Free Energy of Binding    =   +0.80 kcal/mol  [=(1)+(2)+(3)-(4)]
USER    
USER    (1) Final Intermolecular Energy     =   -0.40 kcal/mol
USER        vdW + Hbond + desolv Energy     =   -0.40 kcal/mol
USER        Electrostatic Energy            =   +0.00 kcal/mol
USER    (2) Final Total Internal Energy     =   -0.72 kcal/mol
USER    (3) Torsional Free Energy           =   +1.19 kcal/mol
USER    (4) Unbound System's Energy  [=(2)] =   -0.72 kcal/mol
USER    
USER    
USER    NEWDPF move ligand_207.pdbqt
USER    NEWDPF about 0.000000 0.000000 0.000000
USER    NEWDPF tran0 16.173673 8.764446 1.723404
USER    NEWDPF quaternion0 -0.399742 0.892048 -0.139399 0.158190
USER    NEWDPF axisangle0 -0.404840 0.903423 -0.141176 161.796267
USER    NEWDPF quat0 -0.404840 0.903423 -0.141176 161.796267
USER    NEWDPF dihe0 180.00 19.03 166.06 -122.05 51.97 -103.35 -170.94 180.00 8.66 -180.00 179.10 106.36 81.29 -177.94 176.11 75.09 57.03 94.88 -143.81 
USER  keepresnum = 1 
USER  
REMARK  19 active torsions:
REMARK  status: ('A' for Active; 'I' for Inactive)
REMARK    1  A    between atoms: C2_2  and  C3_3 
REMARK    2  A    between atoms: C2_2  and  O12_69 
REMARK    3  A    between atoms: C11_11  and  O11_68 
REMARK    4  A    between atoms: C12_12  and  O10_67 
REMARK    5  A    between atoms: C15_15  and  O9_66 
REMARK    6  A    between atoms: C24_24  and  N2_53 
REMARK    7  A    between atoms: C27_27  and  C28_28 
REMARK       I    between atoms: C27_27  and  N2_53 
REMARK    8  A    between atoms: C31_31  and  N3_54 
REMARK    9  A    between atoms: C34_34  and  C35_35 
REMARK       I    between atoms: C34_34  and  N3_54 
REMARK   10  A    between atoms: C35_35  and  N4_55 
REMARK   11  A    between atoms: C37_37  and  C38_38 
REMARK       I    between atoms: C37_37  and  N4_55 
REMARK   12  A    between atoms: C38_38  and  C39_39 
REMARK   13  A    between atoms: C38_38  and  N5_56 
REMARK   14  A    between atoms: C42_42  and  C43_43 
REMARK       I    between atoms: C42_42  and  N5_56 
REMARK   15  A    between atoms: C43_43  and  C44_44 
REMARK   16  A    between atoms: C44_44  and  C45_45 
REMARK   17  A    between atoms: C45_45  and  C46_46 
REMARK   18  A    between atoms: C46_46  and  C47_47 
REMARK   19  A    between atoms: C47_47  and  N6_57 
USER                              x       y       z     vdW  Elec       q    Type
USER                           _______ _______ _______ _____ _____    ______ ____
ROOT
ATOM      1  C27 UNL     1      14.835   8.816   2.907 +0.11 +0.00    +0.256 C 
ATOM      2  N2  UNL     1      14.623   7.500   3.280 -0.08 -0.00    -0.323 N 
ATOM      3  O3  UNL     1      13.992   9.700   2.824 +2.24 -0.00    -0.267 OA
ATOM      4  H43 UNL     1      15.402   6.863   3.169 -0.43 +0.00    +0.169 HD
ENDROOT
BRANCH   2   5
ATOM      5  C24 UNL     1      13.412   6.919   3.707 -0.35 +0.00    +0.035 A 
ATOM      6  C23 UNL     1      12.230   7.424   3.150 -0.37 +0.00    +0.046 A 
ATOM      7  C21 UNL     1      10.980   6.897   3.515 -0.33 +0.00    +0.031 A 
ATOM      8  C20 UNL     1      10.905   5.868   4.438 -0.28 +0.00    +0.029 A 
ATOM      9  C22 UNL     1       9.752   7.458   2.924 -0.30 +0.00    +0.197 C 
ATOM     10  C19 UNL     1       9.598   5.328   4.840 -0.21 +0.00    +0.196 C 
ATOM     11  C26 UNL     1      12.080   5.358   5.001 -0.22 +0.00    +0.018 A 
ATOM     12  C17 UNL     1       8.366   5.743   4.110 -0.20 +0.00    +0.054 A 
ATOM     13  O1  UNL     1       9.547   4.550   5.790 -0.19 -0.00    -0.287 OA
ATOM     14  C16 UNL     1       8.445   6.796   3.189 -0.26 +0.00    +0.064 A 
ATOM     15  C18 UNL     1       7.123   5.098   4.382 -0.22 +0.00    +0.034 A 
ATOM     16  C15 UNL     1       7.278   7.198   2.532 -0.27 +0.00    +0.081 A 
ATOM     17  C14 UNL     1       6.060   6.566   2.786 -0.18 +0.00    +0.049 A 
ATOM     18  C13 UNL     1       5.955   5.507   3.707 -0.19 +0.00    +0.005 A 
ATOM     19  C12 UNL     1       4.615   4.787   3.915 -0.14 +0.00    +0.132 C 
ATOM     20  C3  UNL     1       4.661   3.646   5.021 -0.25 +0.00    +0.086 C 
ATOM     21  C11 UNL     1       3.351   5.724   4.154 -0.12 +0.00    +0.236 C 
ATOM     22  C4  UNL     1       5.847   3.809   5.990 -0.24 +0.00    +0.150 C 
ATOM     23  C5  UNL     1       5.683   4.903   6.964 -0.45 -0.00    -0.081 C 
ATOM     24  N1  UNL     1       7.071   3.974   5.232 -0.16 -0.00    -0.276 NA
ATOM     25  C6  UNL     1       5.488   5.880   7.635 +0.01 -0.00    -0.076 C 
ATOM     26  C7  UNL     1       5.074   7.149   8.136 +1.36 +0.00    +0.073 C 
ATOM     27  C8  UNL     1       4.229   7.906   7.411 -0.24 +0.00    +0.073 C 
ATOM     28  C9  UNL     1       3.749   7.415   6.162 +0.19 -0.00    -0.075 C 
ATOM     29  C10 UNL     1       3.518   6.732   5.202 -0.14 -0.00    -0.067 C 
ATOM     30  H42 UNL     1       7.908   3.935   5.832 +0.02 +0.00    +0.129 HD
ATOM     31  C25 UNL     1      13.326   5.878   4.633 +0.37 +0.00    +0.030 A 
ATOM     32  O2  UNL     1       9.864   8.462   2.230 +1.07 -0.00    -0.286 OA
BRANCH  16  33
ATOM     33  O9  UNL     1       7.299   8.203   1.607 -0.23 -0.00    -0.360 OA
ATOM     34  H47 UNL     1       8.205   8.522   1.466 +0.18 +0.00    +0.217 HD
ENDBRANCH  16  33
BRANCH  19  35
ATOM     35  O10 UNL     1       4.360   4.178   2.607 -0.05 -0.00    -0.381 OA
ATOM     36  H48 UNL     1       4.203   4.939   2.006 +0.05 +0.00    +0.211 HD
ENDBRANCH  19  35
BRANCH  20  37
ATOM     37  C2  UNL     1       4.627   2.218   4.408 -0.26 +0.00    +0.124 C 
ATOM     38  C1  UNL     1       5.962   1.722   3.855 +0.02 +0.00    +0.040 C 
BRANCH  37  39
ATOM     39  O12 UNL     1       4.273   1.280   5.435 -0.09 -0.00    -0.395 OA
ATOM     40  H50 UNL     1       5.022   0.645   5.447 -0.28 +0.00    +0.210 HD
ENDBRANCH  37  39
ENDBRANCH  20  37
BRANCH  21  41
ATOM     41  O11 UNL     1       2.988   6.377   2.922 -0.04 -0.00    -0.380 OA
ATOM     42  H49 UNL     1       2.798   5.661   2.288 +0.03 +0.00    +0.211 HD
ENDBRANCH  21  41
ENDBRANCH   2   5
BRANCH   1  43
ATOM     43  C28 UNL     1      16.243   9.143   2.545 -0.46 +0.00    +0.032 A 
ATOM     44  C29 UNL     1      16.925   8.450   1.540 -0.48 +0.00    +0.019 A 
ATOM     45  C30 UNL     1      18.249   8.787   1.236 +1.84 +0.00    +0.030 A 
ATOM     46  C31 UNL     1      18.909   9.812   1.929 -0.37 +0.00    +0.034 A 
ATOM     47  C32 UNL     1      18.226  10.485   2.944 -0.39 +0.00    +0.030 A 
ATOM     48  C33 UNL     1      16.902  10.149   3.256 -0.46 +0.00    +0.019 A 
BRANCH  46  49
ATOM     49  N3  UNL     1      20.242  10.084   1.557 -0.20 -0.00    -0.325 N 
ATOM     50  C34 UNL     1      21.359  10.115   2.379 -0.24 +0.00    +0.244 C 
ATOM     51  O4  UNL     1      21.369   9.928   3.595 +0.02 -0.00    -0.271 OA
ATOM     52  H44 UNL     1      20.390  10.313   0.582 +0.13 +0.00    +0.169 HD
BRANCH  50  53
ATOM     53  C35 UNL     1      22.663  10.393   1.600 +2.76 +0.00    +0.172 C 
ATOM     54  C36 UNL     1      22.357  10.626   0.123 -0.16 +0.00    +0.042 C 
BRANCH  53  55
ATOM     55  N4  UNL     1      23.580   9.276   1.766 -0.17 -0.00    -0.346 N 
ATOM     56  C37 UNL     1      23.162   8.031   2.174 -0.14 +0.00    +0.241 C 
ATOM     57  O5  UNL     1      21.983   7.773   2.411 +1.66 -0.00    -0.271 OA
ATOM     58  H45 UNL     1      24.580   9.491   1.788 +0.13 +0.00    +0.163 HD
BRANCH  56  59
ATOM     59  C38 UNL     1      24.314   7.036   2.437 +2.75 +0.00    +0.180 C 
BRANCH  59  60
ATOM     60  C39 UNL     1      25.607   7.749   2.884 -0.59 +0.00    +0.009 C 
ATOM     61  C40 UNL     1      25.988   7.353   4.316 -0.17 +0.00    +0.012 C 
ATOM     62  C41 UNL     1      26.778   7.419   1.950 -0.41 +0.00    +0.012 C 
ENDBRANCH  59  60
BRANCH  59  63
ATOM     63  N5  UNL     1      24.511   6.333   1.167 -0.17 -0.00    -0.347 N 
ATOM     64  C42 UNL     1      23.706   6.605   0.080 -0.40 +0.00    +0.218 C 
ATOM     65  O6  UNL     1      22.753   7.373   0.139 -0.23 -0.00    -0.274 OA
ATOM     66  H46 UNL     1      25.444   5.983   0.982 +0.12 +0.00    +0.163 HD
BRANCH  64  67
ATOM     67  C43 UNL     1      24.151   5.890  -1.181 -0.49 +0.00    +0.103 C 
BRANCH  67  68
ATOM     68  C44 UNL     1      25.242   6.625  -1.962 -0.44 +0.00    +0.009 C 
BRANCH  68  69
ATOM     69  C45 UNL     1      26.672   6.247  -1.555 -0.39 +0.00    +0.002 C 
BRANCH  69  70
ATOM     70  C46 UNL     1      27.450   7.375  -0.871 -0.34 +0.00    +0.020 C 
BRANCH  70  71
ATOM     71  C47 UNL     1      28.933   7.043  -0.669 -0.22 +0.00    +0.135 C 
BRANCH  71  72
ATOM     72  N6  UNL     1      29.815   7.870  -1.466 -0.13 -0.00    -0.281 N 
ATOM     73  C48 UNL     1      29.979   7.764  -2.808 -0.17 +0.00    +0.250 A 
ATOM     74  C49 UNL     1      30.964   8.777  -3.203 -0.23 +0.00    +0.080 A 
ATOM     75  O7  UNL     1      29.448   6.998  -3.590 -0.77 -0.00    -0.268 OA
ATOM     76  C50 UNL     1      31.335   9.433  -2.103 -0.14 +0.00    +0.080 A 
ATOM     77  C51 UNL     1      30.598   8.861  -0.971 -0.13 +0.00    +0.250 A 
ATOM     78  O8  UNL     1      30.708   9.255   0.174 -0.19 -0.00    -0.268 OA
ENDBRANCH  71  72
ENDBRANCH  70  71
ENDBRANCH  69  70
ENDBRANCH  68  69
ENDBRANCH  67  68
ENDBRANCH  64  67
ENDBRANCH  59  63
ENDBRANCH  56  59
ENDBRANCH  53  55
ENDBRANCH  50  53
ENDBRANCH  46  49
ENDBRANCH   1  43
TORSDOF 19
TER
