USER    Run = 1
USER    DPF = ligand_141_receptor.dpf
USER  
USER    Estimated Free Energy of Binding    =   -3.78 kcal/mol  [=(1)+(2)+(3)-(4)]
USER    Estimated Inhibition Constant, Ki   =    1.70 mM (millimolar)  [Temperature = 298.15 K]
USER    
USER    (1) Final Intermolecular Energy     =   -4.97 kcal/mol
USER        vdW + Hbond + desolv Energy     =   -4.97 kcal/mol
USER        Electrostatic Energy            =   +0.00 kcal/mol
USER    (2) Final Total Internal Energy     =   -5.65 kcal/mol
USER    (3) Torsional Free Energy           =   +1.19 kcal/mol
USER    (4) Unbound System's Energy  [=(2)] =   -5.65 kcal/mol
USER    
USER    
USER    NEWDPF move ligand_141.pdbqt
USER    NEWDPF about 0.000000 0.000000 0.000000
USER    NEWDPF tran0 9.687966 7.435803 1.031648
USER    NEWDPF quaternion0 -0.464851 -0.096707 -0.095904 0.874851
USER    NEWDPF axisangle0 -0.959657 -0.199647 -0.197988 57.945359
USER    NEWDPF quat0 -0.959657 -0.199647 -0.197988 57.945359
USER    NEWDPF dihe0 86.67 -155.82 144.99 -105.31 178.76 -38.07 -169.85 123.35 -180.00 126.96 -66.30 42.13 179.96 171.20 16.22 -7.79 109.70 
USER  keepresnum = 1 
USER  
REMARK  17 active torsions:
REMARK  status: ('A' for Active; 'I' for Inactive)
REMARK    1  A    between atoms: C3_3  and  N7_41 
REMARK    2  A    between atoms: C6_6  and  N1_32 
REMARK    3  A    between atoms: C7_7  and  N1_32 
REMARK    4  A    between atoms: C12_12  and  C13_13 
REMARK    5  A    between atoms: C12_12  and  N4_37 
REMARK    6  A    between atoms: C15_15  and  N6_40 
REMARK    7  A    between atoms: C16_16  and  O2_53 
REMARK    8  A    between atoms: C17_17  and  O1_52 
REMARK    9  A    between atoms: C18_18  and  C19_19 
REMARK       I    between atoms: C18_18  and  N6_40 
REMARK   10  A    between atoms: C19_19  and  O4_55 
REMARK   11  A    between atoms: C20_20  and  N7_41 
REMARK   12  A    between atoms: C25_25  and  N10_46 
REMARK   13  A    between atoms: C27_27  and  N12_49 
REMARK   14  A    between atoms: C28_28  and  O6_57 
REMARK   15  A    between atoms: C29_29  and  O5_56 
REMARK   16  A    between atoms: C30_30  and  C31_31 
REMARK       I    between atoms: C30_30  and  N12_49 
REMARK   17  A    between atoms: C31_31  and  O8_59 
USER                              x       y       z     vdW  Elec       q    Type
USER                           _______ _______ _______ _____ _____    ______ ____
ROOT
ATOM      1  C1  UNL     1      10.117   4.172  -1.614 -0.23 +0.00    +0.021 C 
ATOM      2  C2  UNL     1      11.321   4.783  -0.890 -0.16 +0.00    +0.021 C 
ATOM      3  C3  UNL     1      11.637   6.231  -1.315 -0.38 +0.00    +0.062 C 
ATOM      4  C4  UNL     1      11.157   6.479  -2.750 -0.34 +0.00    +0.021 C 
ATOM      5  C5  UNL     1       9.645   6.295  -2.900 -0.28 +0.00    +0.021 C 
ATOM      6  C6  UNL     1       9.049   5.207  -1.986 -0.18 +0.00    +0.062 C 
ENDROOT
BRANCH   6   7
ATOM      7  N1  UNL     1       8.517   5.806  -0.762 -0.07 -0.00    -0.272 NA
ATOM      8  H31 UNL     1       8.978   6.654  -0.434 +0.07 +0.00    +0.129 HD
BRANCH   7   9
ATOM      9  C7  UNL     1       8.287   4.950   0.319 -0.10 +0.00    +0.113 A 
ATOM     10  C8  UNL     1       8.010   5.459   1.605 -0.11 +0.00    +0.117 A 
ATOM     11  C9  UNL     1       7.772   4.539   2.613 -0.10 +0.00    +0.141 A 
ATOM     12  N5  UNL     1       7.936   6.747   2.095 -0.12 -0.00    -0.346 N 
ATOM     13  N2  UNL     1       7.780   3.202   2.510 -0.09 -0.00    -0.317 N 
ATOM     14  N4  UNL     1       7.537   5.293   3.730 -0.06 -0.00    -0.327 N 
ATOM     15  C10 UNL     1       8.055   2.834   1.243 -0.11 +0.00    +0.181 A 
ATOM     16  H2  UNL     1       7.603   2.557   3.279 +0.02 +0.00    +0.170 HD
ATOM     17  N3  UNL     1       8.313   3.602   0.168 -0.01 -0.00    -0.321 N 
ATOM     18 CL1  UNL     1       8.116   1.145   0.970 -0.34 -0.00    -0.045 Cl
ATOM     19  H3  UNL     1       8.522   3.181  -0.738 +0.07 +0.00    +0.169 HD
ATOM     20  C11 UNL     1       7.633   6.609   3.368 -0.12 +0.00    +0.185 A 
ATOM     21  H5  UNL     1       8.084   7.616   1.581 +0.10 +0.00    +0.167 HD
BRANCH  14  22
ATOM     22  C12 UNL     1       7.209   4.791   5.048 -0.25 +0.00    +0.138 C 
BRANCH  22  23
ATOM     23  C13 UNL     1       5.778   5.120   5.507 -0.31 +0.00    +0.037 C 
ATOM     24  C14 UNL     1       4.944   3.824   5.613 -0.34 +0.00    +0.036 C 
ATOM     25  C15 UNL     1       3.938   3.836   4.446 -0.15 +0.00    +0.116 C 
ATOM     26  C16 UNL     1       4.421   4.970   3.530 -0.13 +0.00    +0.170 C 
ATOM     27  C17 UNL     1       5.004   5.987   4.509 +0.02 +0.00    +0.154 C 
BRANCH  25  28
ATOM     28  N6  UNL     1       3.857   2.573   3.731 -0.04 -0.00    -0.352 N 
ATOM     29  C18 UNL     1       4.228   2.471   2.404 -0.08 +0.00    +0.241 C 
ATOM     30  O3  UNL     1       4.425   3.431   1.668 -0.07 -0.00    -0.271 OA
ATOM     31  H32 UNL     1       4.015   1.722   4.269 +0.06 +0.00    +0.163 HD
BRANCH  29  32
ATOM     32  C19 UNL     1       4.335   1.023   1.927 -0.13 +0.00    +0.266 C 
BRANCH  32  33
ATOM     33  O4  UNL     1       4.208   0.916   0.512 -0.10 -0.00    -0.392 OA
ATOM     34  H37 UNL     1       4.303   1.819   0.158 +0.05 +0.00    +0.210 HD
ENDBRANCH  32  33
ENDBRANCH  29  32
ENDBRANCH  25  28
BRANCH  26  35
ATOM     35  O2  UNL     1       3.352   5.523   2.772 -0.21 -0.00    -0.391 OA
ATOM     36  H36 UNL     1       3.189   4.880   2.051 +0.03 +0.00    +0.210 HD
ENDBRANCH  26  35
BRANCH  27  37
ATOM     37  O1  UNL     1       3.917   6.645   5.169 -0.05 -0.00    -0.392 OA
ATOM     38  H35 UNL     1       3.200   6.754   4.516 +0.07 +0.00    +0.210 HD
ENDBRANCH  27  37
ENDBRANCH  22  23
ENDBRANCH  14  22
ENDBRANCH   7   9
ENDBRANCH   6   7
BRANCH   3  39
ATOM     39  N7  UNL     1      13.079   6.471  -1.256 -0.22 -0.00    -0.272 NA
ATOM     40  H33 UNL     1      13.464   7.016  -2.028 +0.15 +0.00    +0.129 HD
BRANCH  39  41
ATOM     41  C20 UNL     1      13.581   6.982  -0.053 +0.21 +0.00    +0.113 A 
ATOM     42  C21 UNL     1      12.873   6.819   1.158 +0.17 +0.00    +0.117 A 
ATOM     43  C22 UNL     1      13.432   7.372   2.299 +0.69 +0.00    +0.141 A 
ATOM     44  N11 UNL     1      11.689   6.175   1.454 -0.17 -0.00    -0.346 N 
ATOM     45  N8  UNL     1      14.587   8.047   2.388 +0.40 -0.00    -0.317 N 
ATOM     46  N10 UNL     1      12.551   7.072   3.305 -0.23 -0.00    -0.320 N 
ATOM     47  C23 UNL     1      15.169   8.142   1.178 +2.07 +0.00    +0.181 A 
ATOM     48  H8  UNL     1      14.970   8.434   3.250 +0.07 +0.00    +0.170 HD
ATOM     49  N9  UNL     1      14.754   7.661  -0.009 +0.24 -0.00    -0.321 N 
ATOM     50 CL2  UNL     1      16.662   8.979   1.147 -0.74 -0.00    -0.045 Cl
ATOM     51  H9  UNL     1      15.308   7.804  -0.854 +0.04 +0.00    +0.169 HD
ATOM     52  C24 UNL     1      11.530   6.345   2.749 -0.21 +0.00    +0.185 A 
ATOM     53  H11 UNL     1      11.074   5.677   0.811 -0.01 +0.00    +0.167 HD
BRANCH  46  54
ATOM     54  C25 UNL     1      12.691   7.451   4.699 -0.39 +0.00    +0.125 C 
ATOM     55  C26 UNL     1      13.645   6.532   5.489 -0.49 +0.00    +0.056 C 
ATOM     56  C27 UNL     1      12.838   5.995   6.686 -0.42 +0.00    +0.118 C 
ATOM     57  C28 UNL     1      11.756   7.062   6.892 -0.24 +0.00    +0.171 C 
ATOM     58  C29 UNL     1      11.355   7.425   5.461 -0.32 +0.00    +0.172 C 
BRANCH  56  59
ATOM     59  N12 UNL     1      12.269   4.674   6.428 -0.20 -0.00    -0.352 N 
ATOM     60  C30 UNL     1      11.213   4.213   7.196 -0.35 +0.00    +0.241 C 
ATOM     61  O7  UNL     1      10.793   4.801   8.189 -0.29 -0.00    -0.271 OA
ATOM     62  H34 UNL     1      12.313   4.308   5.481 +0.10 +0.00    +0.163 HD
BRANCH  60  63
ATOM     63  C31 UNL     1      10.609   2.889   6.728 -0.03 +0.00    +0.266 C 
BRANCH  63  64
ATOM     64  O8  UNL     1      10.627   2.772   5.314 -0.29 -0.00    -0.392 OA
ATOM     65  H40 UNL     1       9.778   2.353   5.067 -0.35 +0.00    +0.210 HD
ENDBRANCH  63  64
ENDBRANCH  60  63
ENDBRANCH  56  59
BRANCH  57  66
ATOM     66  O6  UNL     1      12.297   8.226   7.528 -0.18 -0.00    -0.391 OA
ATOM     67  H39 UNL     1      12.327   8.940   6.864 +0.17 +0.00    +0.210 HD
ENDBRANCH  57  66
BRANCH  58  68
ATOM     68  O5  UNL     1      10.682   8.678   5.427 -0.17 -0.00    -0.391 OA
ATOM     69  H38 UNL     1      10.669   9.005   6.351 +0.14 +0.00    +0.210 HD
ENDBRANCH  58  68
ENDBRANCH  46  54
ENDBRANCH  39  41
ENDBRANCH   3  39
TORSDOF 17
TER
