USER    Run = 1
USER    DPF = ligand_511_receptor.dpf
USER  
USER    Estimated Free Energy of Binding    =  +9.05e+005 kcal/mol  [=(1)+(2)+(3)-(4)]
USER    
USER    (1) Final Intermolecular Energy     =  +9.05e+005 kcal/mol
USER        vdW + Hbond + desolv Energy     =  +5.93e+005 kcal/mol
USER        Electrostatic Energy            =  +3.12e+005 kcal/mol
USER    (2) Final Total Internal Energy     =   +0.00 kcal/mol
USER    (3) Torsional Free Energy           =   +1.19 kcal/mol
USER    (4) Unbound System's Energy  [=(2)] =   +0.00 kcal/mol
USER    
USER    
USER    NEWDPF move ligand_511.pdbqt
USER    NEWDPF about 0.000000 0.000000 0.000000
USER    NEWDPF tran0 17.880092 7.333768 1.943398
USER    NEWDPF quaternion0 -0.045955 0.183740 -0.976632 -0.101579
USER    NEWDPF axisangle0 -0.046194 0.184696 -0.981710 -168.339831
USER    NEWDPF quat0 -0.046194 0.184696 -0.981710 -168.339831
USER  keepresnum = 1 
USER  
REMARK  0 active torsions:
REMARK  status: ('A' for Active; 'I' for Inactive)
REMARK       I    between atoms: C2_2  and  C3_3 
REMARK       I    between atoms: C2_2  and  N13_81 
REMARK       I    between atoms: C3_3  and  N1_67 
REMARK       I    between atoms: C4_4  and  C5_5 
REMARK       I    between atoms: C4_4  and  C9_9 
REMARK       I    between atoms: C4_4  and  N1_67 
REMARK       I    between atoms: C5_5  and  C6_6 
REMARK       I    between atoms: C9_9  and  N4_71 
REMARK       I    between atoms: C10_10  and  C11_11 
REMARK       I    between atoms: C10_10  and  C15_15 
REMARK       I    between atoms: C10_10  and  N4_71 
REMARK       I    between atoms: C11_11  and  C12_12 
REMARK       I    between atoms: C12_12  and  C13_13 
REMARK       I    between atoms: C13_13  and  C14_14 
REMARK       I    between atoms: C14_14  and  N5_72 
REMARK       I    between atoms: C15_15  and  C16_16 
REMARK       I    between atoms: C16_16  and  C17_17 
REMARK       I    between atoms: C17_17  and  C18_18 
REMARK       I    between atoms: C18_18  and  C23_23 
REMARK       I    between atoms: C19_19  and  C20_20 
REMARK       I    between atoms: C20_20  and  C21_21 
REMARK       I    between atoms: C21_21  and  N6_73 
REMARK       I    between atoms: C22_22  and  N7_75 
REMARK       I    between atoms: C22_22  and  N8_76 
REMARK       I    between atoms: C23_23  and  N9_77 
REMARK       I    between atoms: C24_24  and  C25_25 
REMARK       I    between atoms: C24_24  and  C29_29 
REMARK       I    between atoms: C24_24  and  N9_77 
REMARK       I    between atoms: C25_25  and  C26_26 
REMARK       I    between atoms: C26_26  and  C27_27 
REMARK       I    between atoms: C27_27  and  C28_28 
REMARK       I    between atoms: C28_28  and  N10_78 
REMARK       I    between atoms: C29_29  and  N11_79 
REMARK       I    between atoms: C30_30  and  C31_31 
REMARK       I    between atoms: C30_30  and  N11_79 
REMARK       I    between atoms: C31_31  and  C32_32 
REMARK       I    between atoms: C32_32  and  C33_33 
REMARK       I    between atoms: C33_33  and  N12_80 
REMARK       I    between atoms: C34_34  and  C35_35 
REMARK       I    between atoms: C34_34  and  N13_81 
REMARK       I    between atoms: C35_35  and  C36_36 
REMARK       I    between atoms: C35_35  and  N15_83 
REMARK       I    between atoms: C36_36  and  C37_37 
REMARK       I    between atoms: C37_37  and  C38_38 
REMARK       I    between atoms: C38_38  and  N14_82 
REMARK       I    between atoms: C39_39  and  C40_40 
REMARK       I    between atoms: C39_39  and  N15_83 
REMARK       I    between atoms: C40_40  and  N16_84 
REMARK       I    between atoms: C41_41  and  C42_42 
REMARK       I    between atoms: C41_41  and  N16_84 
REMARK       I    between atoms: C42_42  and  C43_43 
REMARK       I    between atoms: C42_42  and  N18_86 
REMARK       I    between atoms: C43_43  and  C44_44 
REMARK       I    between atoms: C43_43  and  O9_63 
REMARK       I    between atoms: C44_44  and  N17_85 
REMARK       I    between atoms: C45_45  and  C46_46 
REMARK       I    between atoms: C45_45  and  N18_86 
REMARK       I    between atoms: C46_46  and  C47_47 
REMARK       I    between atoms: C46_46  and  N20_88 
REMARK       I    between atoms: C47_47  and  C48_48 
REMARK       I    between atoms: C47_47  and  O11_65 
REMARK       I    between atoms: C48_48  and  N19_87 
REMARK       I    between atoms: C49_49  and  C50_50 
REMARK       I    between atoms: C49_49  and  N20_88 
REMARK       I    between atoms: C50_50  and  C51_51 
REMARK       I    between atoms: C50_50  and  N22_90 
REMARK       I    between atoms: C51_51  and  C52_52 
REMARK       I    between atoms: C52_52  and  C53_53 
REMARK       I    between atoms: C53_53  and  C54_54 
REMARK       I    between atoms: C54_54  and  N21_89 
USER                              x       y       z     vdW  Elec       q    Type
USER                           _______ _______ _______ _____ _____    ______ ____
ROOT
ATOM      1  C1  UNL     1      13.564  11.308   2.927+99.99 +0.00    +0.042 C 
ATOM      2  C2  UNL     1      13.852  10.358   1.770+99.99 +0.00    +0.172 C 
ATOM      3  C3  UNL     1      14.902  10.989   0.834 +4.60 +0.00    +0.240 C 
ATOM      4  C4  UNL     1      17.329  11.367   0.425 -0.04 +0.00    +0.182 C 
ATOM      5  C5  UNL     1      17.426  12.906   0.478 +1.27 +0.00    +0.093 C 
ATOM      6  C6  UNL     1      17.294  13.516  -0.876+99.99 +0.00    +0.028 A 
ATOM      7  C7  UNL     1      18.180  14.178  -1.697+99.99+99.99    +0.114 A 
ATOM      8  C8  UNL     1      16.337  14.112  -2.777+99.99 +0.00    +0.180 A 
ATOM      9  C9  UNL     1      18.638  10.731   0.932 -0.39 +0.00    +0.241 C 
ATOM     10  C10 UNL     1      21.065  10.458   0.450 -0.43 +0.00    +0.154 C 
ATOM     11  C11 UNL     1      21.229   8.989   0.038 +2.61 +0.00    +0.033 C 
ATOM     12  C12 UNL     1      20.925   8.718  -1.442+25.83 +0.00    +0.004 C 
ATOM     13  C13 UNL     1      21.113   7.246  -1.833 +2.32 +0.00    +0.030 C 
ATOM     14  C14 UNL     1      22.553   6.731  -1.755 +1.10 +0.00    +0.267 C 
ATOM     15  C15 UNL     1      22.095  11.376  -0.226 +0.32 +0.00    +0.149 C 
ATOM     16  C16 UNL     1      23.539  11.231   0.198 +7.96 +0.00    +0.085 C 
ATOM     17  C17 UNL     1      24.395  10.814  -0.993+99.99 +0.00    +0.051 C 
ATOM     18  C18 UNL     1      25.749  10.330  -0.567+99.99 +0.00    +0.006 C 
ATOM     19  C19 UNL     1      26.871  11.057  -0.405+99.99 -0.00    -0.013 C 
ATOM     20  C20 UNL     1      27.036  12.539  -0.623+59.07 +0.00    +0.047 C 
ATOM     21  C21 UNL     1      28.311  12.875  -1.408+99.99 +0.00    +0.125 C 
ATOM     22  C22 UNL     1      30.635  12.875  -1.036+99.99 +0.00    +0.121 C 
ATOM     23  C23 UNL     1      25.833   8.885  -0.220 +3.68 +0.00    +0.248 C 
ATOM     24  C24 UNL     1      27.164   6.843  -0.630 -0.28 +0.00    +0.177 C 
ATOM     25  C25 UNL     1      27.383   5.971  -1.876 -0.22 +0.00    +0.035 C 
ATOM     26  C26 UNL     1      27.181   4.469  -1.624 -0.36 +0.00    +0.004 C 
ATOM     27  C27 UNL     1      28.214   3.798  -0.717 -0.31 +0.00    +0.030 C 
ATOM     28  C28 UNL     1      29.588   3.668  -1.374 -0.07 +0.00    +0.267 C 
ATOM     29  C29 UNL     1      28.456   7.102   0.185 -0.21 +0.00    +0.240 C 
ATOM     30  C30 UNL     1      29.330   8.253   2.193 +0.49 +0.00    +0.122 C 
ATOM     31  C31 UNL     1      28.904   9.432   3.063+99.99 +0.00    +0.021 C 
ATOM     32  C32 UNL     1      30.050  10.015   3.896+99.99 +0.00    +0.031 C 
ATOM     33  C33 UNL     1      31.173  10.678   3.093+99.99 +0.00    +0.267 C 
ATOM     34  C34 UNL     1      13.351   8.065   2.568 +3.62 +0.00    +0.241 C 
ATOM     35  C35 UNL     1      13.961   6.795   3.206 +1.08 +0.00    +0.176 C 
ATOM     36  C36 UNL     1      14.517   7.113   4.607 -0.47 +0.00    +0.036 C 
ATOM     37  C37 UNL     1      15.993   6.741   4.805 +4.66 +0.00    +0.032 C 
ATOM     38  C38 UNL     1      16.979   7.322   3.790 +0.20 +0.00    +0.267 C 
ATOM     39  C39 UNL     1      13.321   4.404   3.311+99.99 +0.00    +0.236 C 
ATOM     40  C40 UNL     1      12.169   3.390   3.310+99.99 +0.00    +0.225 C 
ATOM     41  C41 UNL     1      10.265   4.059   1.869+70.62 +0.00    +0.243 C 
ATOM     42  C42 UNL     1       8.967   4.893   1.813 -0.10 +0.00    +0.207 C 
ATOM     43  C43 UNL     1       9.323   6.374   1.575 -0.21 +0.00    +0.177 C 
ATOM     44  C44 UNL     1      10.191   6.649   0.326 -0.17 +0.00    +0.300 C 
ATOM     45  C45 UNL     1       7.474   3.670   3.383 -0.16 +0.00    +0.243 C 
ATOM     46  C46 UNL     1       7.035   3.595   4.858 -0.08 +0.00    +0.207 C 
ATOM     47  C47 UNL     1       8.279   3.324   5.737 +0.08 +0.00    +0.177 C 
ATOM     48  C48 UNL     1       7.955   3.012   7.216 +1.71 +0.00    +0.300 C 
ATOM     49  C49 UNL     1       4.886   2.719   5.726 +0.24 +0.00    +0.251 C 
ATOM     50  C50 UNL     1       3.865   1.571   5.575 +0.02 +0.00    +0.308 C 
ATOM     51  C51 UNL     1       4.247   0.381   6.465+99.99 +0.00    +0.045 C 
ATOM     52  C52 UNL     1       4.080   0.692   7.957+99.99 +0.00    +0.004 C 
ATOM     53  C53 UNL     1       4.451  -0.519   8.819+99.99 +0.00    +0.030 C 
ATOM     54  C54 UNL     1       4.311  -0.249  10.318+99.99 +0.00    +0.267 C 
ATOM     55  O1  UNL     1      14.580  11.696  -0.123 +0.25 -0.00    -0.271 OA
ATOM     56  O2  UNL     1      18.691  10.055   1.960 -0.28 -0.00    -0.271 OA
ATOM     57  O3  UNL     1      21.758  12.207  -1.076 -0.34 -0.00    -0.296 OA
ATOM     58  O4  UNL     1      25.239   8.427   0.748 -0.26 -0.00    -0.268 OA
ATOM     59  O5  UNL     1      29.571   6.730  -0.170 -0.10 -0.00    -0.271 OA
ATOM     60  O6  UNL     1      12.147   8.188   2.341 +1.21 -0.00    -0.271 OA
ATOM     61  O7  UNL     1      14.493   4.044   3.408+99.99 -0.00    -0.272 OA
ATOM     62  O8  UNL     1      10.805   3.629   0.852+99.99 -0.00    -0.271 OA
ATOM     63  O9  UNL     1       9.968   6.873   2.769 -0.14 -0.00    -0.391 OA
ATOM     64  O10 UNL     1       7.192   2.803   2.558 -0.15 -0.00    -0.271 OA
ATOM     65  O11 UNL     1       9.169   4.470   5.692 -0.13 -0.00    -0.391 OA
ATOM     66  O12 UNL     1       4.730   3.660   6.499 -0.77 -0.00    -0.271 OA
ATOM     67  N1  UNL     1      16.214  10.855   1.226 -0.23 -0.00    -0.346 N 
ATOM     68  N2  UNL     1      17.576  14.540  -2.872+99.99+99.99    -0.360 N 
ATOM     69  H2  UNL     1      17.998  15.037  -3.657+99.99+99.99    +0.166 HD
ATOM     70  N3  UNL     1      16.114  13.490  -1.583+99.99 -0.00    -0.354 N 
ATOM     71  N4  UNL     1      19.736  10.976   0.147 -0.25 -0.00    -0.348 N 
ATOM     72  N5  UNL     1      23.440   7.482  -2.635 +1.69 +0.00    +0.078 N 
ATOM     73  N6  UNL     1      29.482  12.539  -0.594+92.85 -0.00    -0.371 N 
ATOM     74  H6  UNL     1      29.382  12.053   0.297 +0.26 +0.00    +0.161 HD
ATOM     75  N7  UNL     1      30.969  13.490  -2.194+99.99 -0.00    -0.279 NA
ATOM     76  N8  UNL     1      31.754  12.626  -0.320+99.99 -0.00    -0.279 NA
ATOM     77  N9  UNL     1      26.676   8.167  -1.031 +1.93 -0.00    -0.344 N 
ATOM     78  N10 UNL     1      30.529   3.054  -0.441 -0.14 +0.00    +0.078 N 
ATOM     79  N11 UNL     1      28.241   7.822   1.344 -0.18 -0.00    -0.359 N 
ATOM     80  N12 UNL     1      30.730  11.844   2.335+99.99 +0.00    +0.078 N 
ATOM     81  N13 UNL     1      14.268   9.054   2.280+38.55 -0.00    -0.346 N 
ATOM     82  N14 UNL     1      16.825   8.773   3.626 -0.47 +0.00    +0.078 N 
ATOM     83  N15 UNL     1      12.961   5.732   3.265 +8.32 -0.00    -0.346 N 
ATOM     84  N16 UNL     1      10.860   3.982   3.112+18.24 -0.00    -0.350 N 
ATOM     85  N17 UNL     1       9.687   6.096  -0.926 -0.20 +0.00    +0.080 N 
ATOM     86  N18 UNL     1       8.232   4.774   3.078 -0.03 -0.00    -0.343 N 
ATOM     87  N19 UNL     1       7.336   4.129   7.931 -0.14 +0.00    +0.080 N 
ATOM     88  N20 UNL     1       6.020   2.557   4.964 +3.27 -0.00    -0.343 N 
ATOM     89  N21 UNL     1       2.922  -0.022  10.697 +0.18 +0.00    +0.078 N 
ATOM     90  N22 UNL     1       3.857   1.125   4.159 -0.29 +0.00    +0.092 N 
ATOM     91  H71 UNL     1      10.528   7.643   2.510 +0.12 +0.00    +0.210 HD
ATOM     92  H72 UNL     1       9.655   4.483   6.540 +0.15 +0.00    +0.210 HD
ATOM     93  H73 UNL     1      16.447  10.242   2.002 +0.12 +0.00    +0.163 HD
ATOM     94  H74 UNL     1      15.250  13.045  -1.281 +0.89 +0.00    +0.166 HD
ATOM     95  H75 UNL     1      19.655  11.545  -0.695 +0.12 +0.00    +0.163 HD
ATOM     96  H76 UNL     1      23.149   7.349  -3.604 +0.30 +0.00    +0.312 HD
ATOM     97  H77 UNL     1      24.382   7.099  -2.564 +0.24 +0.00    +0.312 HD
ATOM     98  H78 UNL     1      31.846  13.142  -2.565+99.99 +0.00    +0.126 HD
ATOM     99  H79 UNL     1      30.247  13.473  -2.902+99.99 +0.00    +0.126 HD
ATOM    100  H80 UNL     1      31.523  12.332   0.635 +0.27 +0.00    +0.126 HD
ATOM    101  H81 UNL     1      32.368  13.430  -0.271 -0.45 +0.00    +0.126 HD
ATOM    102  H82 UNL     1      27.252   8.694  -1.678 +0.78 +0.00    +0.163 HD
ATOM    103  H83 UNL     1      30.651   3.684   0.353 +0.13 +0.00    +0.312 HD
ATOM    104  H84 UNL     1      31.445   3.002  -0.887 +0.09 +0.00    +0.312 HD
ATOM    105  H85 UNL     1      27.280   7.944   1.658 +0.10 +0.00    +0.162 HD
ATOM    106  H86 UNL     1      30.267  12.502   2.964+10.17 +0.00    +0.312 HD
ATOM    107  H87 UNL     1      30.000  11.577   1.662+99.99 +0.00    +0.312 HD
ATOM    108  H88 UNL     1      15.198   8.955   2.695 -0.07 +0.00    +0.163 HD
ATOM    109  H89 UNL     1      17.674   9.092   3.118 +0.24 +0.00    +0.312 HD
ATOM    110  H90 UNL     1      16.952   9.201   4.550 +0.23 +0.00    +0.312 HD
ATOM    111  H91 UNL     1      11.989   5.971   3.079 +0.05 +0.00    +0.163 HD
ATOM    112  H92 UNL     1      10.399   4.428   3.901 -0.01 +0.00    +0.163 HD
ATOM    113  H93 UNL     1       8.681   6.221  -1.011 +0.12 +0.00    +0.312 HD
ATOM    114  H94 UNL     1       9.871   5.088  -0.952 +0.15 +0.00    +0.312 HD
ATOM    115  H95 UNL     1       8.569   5.350   3.848 +0.09 +0.00    +0.163 HD
ATOM    116  H96 UNL     1       7.672   5.019   7.563 +0.20 +0.00    +0.312 HD
ATOM    117  H97 UNL     1       6.328   4.133   7.709 +0.17 +0.00    +0.312 HD
ATOM    118  H98 UNL     1       5.927   1.894   4.189 -0.28 +0.00    +0.163 HD
ATOM    119  H99 UNL     1       2.373  -0.859  10.506 +0.19 +0.00    +0.312 HD
ATOM    120  HA0 UNL     1       2.867   0.132  11.704+99.99+99.99    +0.312 HD
ATOM    121  HA1 UNL     1       3.523   1.897   3.578 +0.12 +0.00    +0.313 HD
ATOM    122  HA2 UNL     1       3.164   0.384   4.053 +0.14 +0.00    +0.313 HD
ENDROOT
TORSDOF 59
TER
