USER    Run = 1
USER    DPF = ligand_192_receptor.dpf
USER  
USER    Estimated Free Energy of Binding    =   -2.03 kcal/mol  [=(1)+(2)+(3)-(4)]
USER    Estimated Inhibition Constant, Ki   =   32.53 mM (millimolar)  [Temperature = 298.15 K]
USER    
USER    (1) Final Intermolecular Energy     =   -3.22 kcal/mol
USER        vdW + Hbond + desolv Energy     =   -3.22 kcal/mol
USER        Electrostatic Energy            =   +0.00 kcal/mol
USER    (2) Final Total Internal Energy     =   -2.13 kcal/mol
USER    (3) Torsional Free Energy           =   +1.19 kcal/mol
USER    (4) Unbound System's Energy  [=(2)] =   -2.13 kcal/mol
USER    
USER    
USER    NEWDPF move ligand_192.pdbqt
USER    NEWDPF about 0.000000 0.000000 0.000000
USER    NEWDPF tran0 12.215707 8.337957 1.870916
USER    NEWDPF quaternion0 -0.301396 -0.402643 -0.259204 0.824531
USER    NEWDPF axisangle0 -0.532675 -0.711615 -0.458106 68.917992
USER    NEWDPF quat0 -0.532675 -0.711615 -0.458106 68.917992
USER    NEWDPF dihe0 157.84 -154.21 -180.00 6.85 -71.17 46.49 141.77 -89.21 -59.80 21.82 -60.02 -167.47 -81.22 -120.18 -169.03 -108.26 
USER  keepresnum = 1 
USER  
REMARK  16 active torsions:
REMARK  status: ('A' for Active; 'I' for Inactive)
REMARK    1  A    between atoms: C8_8  and  N1_48 
REMARK    2  A    between atoms: C9_9  and  N7_54 
REMARK    3  A    between atoms: C11_11  and  C14_14 
REMARK    4  A    between atoms: C17_17  and  C20_20 
REMARK       I    between atoms: C20_20  and  N3_50 
REMARK    5  A    between atoms: C21_21  and  C22_22 
REMARK    6  A    between atoms: C21_21  and  N3_50 
REMARK    7  A    between atoms: C22_22  and  C23_23 
REMARK    8  A    between atoms: C23_23  and  C24_24 
REMARK    9  A    between atoms: C24_24  and  C25_25 
REMARK   10  A    between atoms: C25_25  and  C26_26 
REMARK   11  A    between atoms: C26_26  and  C27_27 
REMARK   12  A    between atoms: C27_27  and  N4_51 
REMARK   13  A    between atoms: C28_28  and  N4_51 
REMARK   14  A    between atoms: C36_36  and  N5_52 
REMARK   15  A    between atoms: C41_41  and  C42_42 
REMARK       I    between atoms: C41_41  and  N7_54 
REMARK   16  A    between atoms: C46_46  and  C47_47 
USER                              x       y       z     vdW  Elec       q    Type
USER                           _______ _______ _______ _____ _____    ______ ____
ROOT
ATOM      1  C14 UNL     1      11.784   6.252   4.431 -0.32 +0.00    +0.013 A 
ATOM      2  C15 UNL     1      11.872   7.603   4.053 -0.32 +0.00    +0.128 A 
ATOM      3  C16 UNL     1      13.068   8.319   4.117 -0.31 +0.00    +0.060 A 
ATOM      4  C17 UNL     1      14.229   7.684   4.561 -0.47 +0.00    +0.035 A 
ATOM      5  C18 UNL     1      14.169   6.345   4.958 -0.05 +0.00    +0.018 A 
ATOM      6  C19 UNL     1      12.962   5.637   4.891 +0.22 +0.00    +0.016 A 
ATOM      7  F1  UNL     1      10.781   8.257   3.625 -0.15 -0.00    -0.205 F 
ENDROOT
BRANCH   4   8
ATOM      8  C20 UNL     1      15.535   8.394   4.651 -0.01 +0.00    +0.251 C 
ATOM      9  N3  UNL     1      16.638   7.718   4.170 -0.26 -0.00    -0.357 N 
ATOM     10  H46 UNL     1      16.561   6.735   3.950 +0.10 +0.00    +0.162 HD
ATOM     11  O1  UNL     1      15.593   9.506   5.162 +1.47 -0.00    -0.268 OA
BRANCH   9  12
ATOM     12  C21 UNL     1      17.971   8.273   4.290 -0.31 +0.00    +0.123 C 
BRANCH  12  13
ATOM     13  C22 UNL     1      18.011   9.781   4.031 -0.06 +0.00    +0.020 C 
BRANCH  13  14
ATOM     14  C23 UNL     1      16.842  10.326   3.204 -0.53 +0.00    +0.002 C 
BRANCH  14  15
ATOM     15  C24 UNL     1      17.222  10.666   1.761 -0.57 +0.00    +0.000 C 
BRANCH  15  16
ATOM     16  C25 UNL     1      16.478   9.767   0.769 -0.56 +0.00    +0.002 C 
BRANCH  16  17
ATOM     17  C26 UNL     1      17.107   9.759  -0.626 +0.24 +0.00    +0.020 C 
BRANCH  17  18
ATOM     18  C27 UNL     1      18.455  10.480  -0.688 +1.48 +0.00    +0.119 C 
BRANCH  18  19
ATOM     19  N4  UNL     1      19.526   9.560  -0.338 +1.12 -0.00    -0.389 N 
ATOM     20  H47 UNL     1      19.330   8.575  -0.539 +0.33 +0.00    +0.159 HD
BRANCH  19  21
ATOM     21  C28 UNL     1      20.390   9.760   0.726 +0.08 +0.00    +0.044 A 
ATOM     22  C29 UNL     1      20.080  10.552   1.845 -0.47 +0.00    +0.030 A 
ATOM     23  C30 UNL     1      21.015  10.797   2.878 +0.32 +0.00    +0.003 A 
ATOM     24  C31 UNL     1      22.303  10.267   2.816 +0.26 +0.00    +0.018 A 
ATOM     25  C32 UNL     1      22.608   9.505   1.709 -0.38 +0.00    +0.050 A 
ATOM     26  C33 UNL     1      21.688   9.262   0.699 -0.06 +0.00    +0.074 A 
ATOM     27  C35 UNL     1      23.852   8.832   1.350 -0.24 +0.00    +0.262 A 
ATOM     28  C34 UNL     1      22.359   8.418  -0.295 +0.06 +0.00    +0.264 A 
ATOM     29  N5  UNL     1      23.624   8.180   0.170 -0.26 -0.00    -0.266 N 
ATOM     30  O2  UNL     1      21.843   8.023  -1.325 +0.60 -0.00    -0.267 OA
ATOM     31  O3  UNL     1      24.868   8.867   2.018 -0.30 -0.00    -0.267 OA
BRANCH  29  32
ATOM     32  C36 UNL     1      24.674   7.495  -0.567 -0.36 +0.00    +0.189 C 
ATOM     33  C37 UNL     1      26.090   7.883  -0.149 -0.33 +0.00    +0.045 C 
ATOM     34  C38 UNL     1      27.090   7.132  -1.015 -0.27 +0.00    +0.106 C 
ATOM     35  C39 UNL     1      26.876   5.638  -0.930 -0.26 +0.00    +0.224 C 
ATOM     36  N6  UNL     1      25.590   5.212  -0.709 -0.24 -0.00    -0.296 N 
ATOM     37  O4  UNL     1      27.789   4.834  -1.101 -0.16 -0.00    -0.273 OA
ATOM     38  C40 UNL     1      24.480   5.981  -0.439 -0.38 +0.00    +0.247 C 
ATOM     39  H48 UNL     1      25.462   4.212  -0.639 +0.10 +0.00    +0.171 HD
ATOM     40  O5  UNL     1      23.403   5.447  -0.176 -0.38 -0.00    -0.271 OA
ENDBRANCH  29  32
ENDBRANCH  19  21
ENDBRANCH  18  19
ENDBRANCH  17  18
ENDBRANCH  16  17
ENDBRANCH  15  16
ENDBRANCH  14  15
ENDBRANCH  13  14
ENDBRANCH  12  13
ENDBRANCH   9  12
ENDBRANCH   4   8
BRANCH   1  41
ATOM     41  C11 UNL     1      10.516   5.500   4.359 -0.27 -0.00    -0.021 A 
ATOM     42  C10 UNL     1       9.825   5.362   3.141 -0.19 +0.00    +0.043 A 
ATOM     43  C9  UNL     1       8.620   4.658   3.073 -0.17 +0.00    +0.057 A 
ATOM     44  C8  UNL     1       8.075   4.056   4.229 -0.26 +0.00    +0.037 A 
ATOM     45  C13 UNL     1       8.756   4.192   5.441 -0.34 +0.00    +0.027 A 
ATOM     46  C12 UNL     1       9.957   4.905   5.503 -0.31 +0.00    +0.014 A 
BRANCH  43  47
ATOM     47  N7  UNL     1       7.859   4.500   1.896 -0.02 -0.00    -0.321 N 
ATOM     48  C41 UNL     1       7.057   5.418   1.270 -0.10 +0.00    +0.258 C 
ATOM     49  O6  UNL     1       6.832   6.573   1.604 -0.19 -0.00    -0.267 OA
ATOM     50  H49 UNL     1       7.908   3.543   1.549 +0.08 +0.00    +0.169 HD
BRANCH  48  51
ATOM     51  C42 UNL     1       6.367   4.844   0.081 -0.13 +0.00    +0.062 A 
ATOM     52  C43 UNL     1       5.029   4.773   0.156 -0.16 +0.00    +0.109 A 
ATOM     53  N8  UNL     1       4.304   4.251  -0.886 -0.11 -0.00    -0.333 N 
ATOM     54  C44 UNL     1       4.861   3.787  -2.052 +0.00 +0.00    +0.245 A 
ATOM     55  H50 UNL     1       3.292   4.199  -0.829 +0.01 +0.00    +0.168 HD
ATOM     56  C45 UNL     1       6.339   3.890  -2.144 +0.14 +0.00    +0.091 A 
ATOM     57  O7  UNL     1       4.201   3.316  -2.968 -0.09 -0.00    -0.268 OA
ATOM     58  C46 UNL     1       7.059   4.394  -1.122 +0.01 +0.00    +0.070 A 
BRANCH  58  59
ATOM     59  C47 UNL     1       8.548   4.537  -1.195 -0.00 +0.00    +0.418 C 
ATOM     60  F2  UNL     1       8.931   5.101  -2.368 -0.04 -0.00    -0.166 F 
ATOM     61  F3  UNL     1       9.196   3.355  -1.080 -0.01 -0.00    -0.166 F 
ATOM     62  F4  UNL     1       9.033   5.342  -0.214 -0.02 -0.00    -0.166 F 
ENDBRANCH  58  59
ENDBRANCH  48  51
ENDBRANCH  43  47
BRANCH  44  63
ATOM     63  N1  UNL     1       6.862   3.333   4.102 -0.13 -0.00    -0.277 NA
ATOM     64  C3  UNL     1       6.904   2.254   3.095 -0.27 +0.00    +0.131 C 
ATOM     65  C2  UNL     1       5.630   1.346   3.220 -0.27 +0.00    +0.232 C 
ATOM     66  C1  UNL     1       5.982   0.048   3.963 +2.00 +0.00    +0.044 C 
ATOM     67  N2  UNL     1       4.389   2.040   3.701 -0.20 +0.00    +0.095 N 
ATOM     68  C5  UNL     1       4.471   3.478   3.317 -0.08 +0.00    +0.232 C 
ATOM     69  C6  UNL     1       4.135   1.866   5.133 -0.17 +0.00    +0.310 C 
ATOM     70  C4  UNL     1       5.692   4.236   3.930 -0.16 +0.00    +0.131 C 
ATOM     71  C7  UNL     1       3.173   4.251   3.568 -0.13 +0.00    +0.044 C 
ENDBRANCH  44  63
ENDBRANCH   1  41
TORSDOF 16
TER
