USER    Run = 1
USER    DPF = ligand_369_receptor.dpf
USER  
USER    Estimated Free Energy of Binding    =  +68.26 kcal/mol  [=(1)+(2)+(3)-(4)]
USER    
USER    (1) Final Intermolecular Energy     =  +67.06 kcal/mol
USER        vdW + Hbond + desolv Energy     =  +67.06 kcal/mol
USER        Electrostatic Energy            =   +0.00 kcal/mol
USER    (2) Final Total Internal Energy     =   +8.93 kcal/mol
USER    (3) Torsional Free Energy           =   +1.19 kcal/mol
USER    (4) Unbound System's Energy  [=(2)] =   +8.93 kcal/mol
USER    
USER    
USER    NEWDPF move ligand_369.pdbqt
USER    NEWDPF about 0.000000 0.000000 0.000000
USER    NEWDPF tran0 7.500241 5.013395 2.384536
USER    NEWDPF quaternion0 -0.215864 -0.901169 0.331243 0.177697
USER    NEWDPF axisangle0 -0.219355 -0.915743 0.336599 159.528723
USER    NEWDPF quat0 -0.219355 -0.915743 0.336599 159.528723
USER    NEWDPF dihe0 11.78 0.77 93.96 -2.86 2.26 -34.17 168.79 12.49 -9.46 -69.86 64.51 -179.10 -93.46 102.17 -54.21 -46.41 17.61 10.69 -134.83 -37.16 92.96 -124.05 
USER  keepresnum = 1 
USER  
REMARK  22 active torsions:
REMARK  status: ('A' for Active; 'I' for Inactive)
REMARK    1  A    between atoms: C4_4  and  C5_5 
REMARK       I    between atoms: C5_5  and  N3_48 
REMARK    2  A    between atoms: C6_6  and  N3_48 
REMARK    3  A    between atoms: C8_8  and  C10_10 
REMARK       I    between atoms: C10_10  and  N5_50 
REMARK    4  A    between atoms: C11_11  and  N5_50 
REMARK    5  A    between atoms: C13_13  and  C15_15 
REMARK       I    between atoms: C15_15  and  N7_52 
REMARK    6  A    between atoms: C16_16  and  C17_17 
REMARK    7  A    between atoms: C16_16  and  N7_52 
REMARK    8  A    between atoms: C17_17  and  C18_18 
REMARK    9  A    between atoms: C18_18  and  C19_19 
REMARK   10  A    between atoms: C18_18  and  N16_61 
REMARK       I    between atoms: C19_19  and  N8_53 
REMARK   11  A    between atoms: C20_20  and  N8_53 
REMARK   12  A    between atoms: C22_22  and  C24_24 
REMARK       I    between atoms: C24_24  and  N10_55 
REMARK   13  A    between atoms: C25_25  and  N10_55 
REMARK   14  A    between atoms: C27_27  and  C29_29 
REMARK       I    between atoms: C29_29  and  N12_57 
REMARK   15  A    between atoms: C30_30  and  N12_57 
REMARK   16  A    between atoms: C32_32  and  C34_34 
REMARK       I    between atoms: C34_34  and  N14_59 
REMARK   17  A    between atoms: C35_35  and  C36_36 
REMARK   18  A    between atoms: C35_35  and  N14_59 
REMARK   19  A    between atoms: C36_36  and  C37_37 
REMARK       I    between atoms: C37_37  and  N15_60 
REMARK   20  A    between atoms: C38_38  and  C39_39 
REMARK   21  A    between atoms: C38_38  and  N15_60 
REMARK   22  A    between atoms: C39_39  and  O9_70 
USER                              x       y       z     vdW  Elec       q    Type
USER                           _______ _______ _______ _____ _____    ______ ____
ROOT
ATOM      1  C19 UNL     1       5.137   2.311  -0.116 -0.06 +0.00    +0.255 C 
ATOM      2  N8  UNL     1       6.114   2.862  -0.933 -0.01 -0.00    -0.324 N 
ATOM      3  O4  UNL     1       5.303   1.899   1.027 -0.11 -0.00    -0.271 OA
ATOM      4  H47 UNL     1       5.870   3.099  -1.886 +0.04 +0.00    +0.169 HD
ENDROOT
BRANCH   2   5
ATOM      5  C20 UNL     1       7.428   3.070  -0.564 -0.07 +0.00    +0.052 A 
ATOM      6  C21 UNL     1       8.222   2.071  -0.049 -0.10 +0.00    +0.120 A 
ATOM      7  N9  UNL     1       9.469   2.596   0.190 -0.01 -0.00    -0.354 N 
ATOM      8  C22 UNL     1       9.478   3.941  -0.118 -0.07 +0.00    +0.105 A 
ATOM      9  C42 UNL     1      10.609   1.816   0.625 +4.95 +0.00    +0.156 C 
ATOM     10  C23 UNL     1       8.224   4.236  -0.630 -0.09 +0.00    +0.066 A 
BRANCH   8  11
ATOM     11  C24 UNL     1      10.604   4.847   0.014 +0.33 +0.00    +0.273 C 
ATOM     12  N10 UNL     1      10.604   5.515   1.223 +0.00 -0.00    -0.320 N 
ATOM     13  H48 UNL     1       9.794   5.418   1.819 +0.01 +0.00    +0.169 HD
ATOM     14  O5  UNL     1      11.429   4.996  -0.879 -0.23 -0.00    -0.266 OA
BRANCH  12  15
ATOM     15  C25 UNL     1      11.576   6.401   1.642 -0.31 +0.00    +0.053 A 
ATOM     16  C26 UNL     1      11.288   7.648   2.139 +0.60 +0.00    +0.120 A 
ATOM     17  N11 UNL     1      12.472   8.265   2.463 +2.34 -0.00    -0.354 N 
ATOM     18  C27 UNL     1      13.542   7.434   2.177 +1.38 +0.00    +0.105 A 
ATOM     19  C41 UNL     1      12.559   9.606   3.007+14.13 +0.00    +0.156 C 
ATOM     20  C28 UNL     1      12.983   6.262   1.674 +1.99 +0.00    +0.066 A 
BRANCH  18  21
ATOM     21  C29 UNL     1      14.945   7.783   2.400 +2.61 +0.00    +0.273 C 
ATOM     22  N12 UNL     1      15.406   8.813   1.602 +0.61 -0.00    -0.320 N 
ATOM     23  H49 UNL     1      14.758   9.266   0.973 +0.50 +0.00    +0.169 HD
ATOM     24  O6  UNL     1      15.631   7.202   3.238 -0.25 -0.00    -0.266 OA
BRANCH  22  25
ATOM     25  C30 UNL     1      16.692   9.319   1.608 -0.45 +0.00    +0.053 A 
ATOM     26  C31 UNL     1      17.685   8.810   2.408 -0.39 +0.00    +0.120 A 
ATOM     27  N13 UNL     1      18.834   9.525   2.176 -0.14 -0.00    -0.354 N 
ATOM     28  C32 UNL     1      18.604  10.511   1.232 -0.41 +0.00    +0.104 A 
ATOM     29  C40 UNL     1      20.092   9.273   2.849 -0.27 +0.00    +0.156 C 
ATOM     30  C33 UNL     1      17.266  10.378   0.869 -0.44 +0.00    +0.066 A 
BRANCH  28  31
ATOM     31  C34 UNL     1      19.610  11.447   0.754 -0.46 +0.00    +0.268 C 
ATOM     32  N14 UNL     1      19.878  11.382  -0.596 +0.25 -0.00    -0.355 N 
ATOM     33  H50 UNL     1      19.304  10.789  -1.178 +0.66 +0.00    +0.162 HD
ATOM     34  O7  UNL     1      20.188  12.250   1.483 -0.42 -0.00    -0.266 OA
BRANCH  32  35
ATOM     35  C35 UNL     1      20.793  12.300  -1.248 +2.63 +0.00    +0.132 C 
BRANCH  35  36
ATOM     36  C36 UNL     1      22.234  11.808  -1.201 +1.90 +0.00    +0.122 C 
BRANCH  36  37
ATOM     37  C37 UNL     1      22.393  10.679  -0.208 -0.16 +0.00    +0.219 C 
ATOM     38  N15 UNL     1      23.199   9.660  -0.667 +0.00 -0.00    -0.359 N 
ATOM     39  H51 UNL     1      23.441   9.659  -1.651 +0.17 +0.00    +0.162 HD
ATOM     40  O8  UNL     1      21.897  10.681   0.914 +0.08 -0.00    -0.274 OA
BRANCH  38  41
ATOM     41  C38 UNL     1      23.399   8.421   0.073 -0.44 +0.00    +0.148 C 
BRANCH  41  42
ATOM     42  C39 UNL     1      24.229   8.595   1.351 -0.36 +0.00    +0.183 C 
BRANCH  42  43
ATOM     43  O9  UNL     1      23.431   9.019   2.451 -0.19 -0.00    -0.399 OA
ATOM     44  H54 UNL     1      22.713   9.582   2.086 +0.17 +0.00    +0.209 HD
ENDBRANCH  42  43
ENDBRANCH  41  42
ENDBRANCH  38  41
ENDBRANCH  36  37
ENDBRANCH  35  36
ENDBRANCH  32  35
ENDBRANCH  28  31
ENDBRANCH  22  25
ENDBRANCH  18  21
ENDBRANCH  12  15
ENDBRANCH   8  11
ENDBRANCH   2   5
BRANCH   1  45
ATOM     45  C18 UNL     1       3.757   2.280  -0.817 -0.04 +0.00    +0.310 C 
BRANCH  45  46
ATOM     46  C17 UNL     1       2.843   3.436  -0.374 -0.06 +0.00    +0.065 C 
BRANCH  46  47
ATOM     47  C16 UNL     1       2.520   3.495   1.120 +0.06 +0.00    +0.125 C 
BRANCH  47  48
ATOM     48  N7  UNL     1       3.552   4.194   1.861 -0.04 -0.00    -0.356 N 
ATOM     49  C15 UNL     1       3.568   4.217   3.237 -0.07 +0.00    +0.268 C 
ATOM     50  O3  UNL     1       2.646   3.745   3.897 -0.04 -0.00    -0.266 OA
ATOM     51  H46 UNL     1       4.389   4.453   1.353 +0.04 +0.00    +0.162 HD
BRANCH  49  52
ATOM     52  C13 UNL     1       4.753   4.819   3.833 -0.12 +0.00    +0.104 A 
ATOM     53  C14 UNL     1       6.101   4.575   3.585 -0.15 +0.00    +0.066 A 
ATOM     54  C11 UNL     1       6.881   5.409   4.419 -0.20 +0.00    +0.053 A 
ATOM     55  C12 UNL     1       6.001   6.160   5.161 +0.77 +0.00    +0.120 A 
ATOM     56  N6  UNL     1       4.724   5.804   4.805 -0.05 -0.00    -0.354 N 
ATOM     57  C43 UNL     1       3.533   6.391   5.384 -0.16 +0.00    +0.156 C 
BRANCH  54  58
ATOM     58  N5  UNL     1       8.252   5.532   4.539 -0.08 -0.00    -0.320 N 
ATOM     59  C10 UNL     1       9.035   4.894   5.483 -0.20 +0.00    +0.273 C 
ATOM     60  O2  UNL     1       8.592   4.162   6.365 -0.27 -0.00    -0.266 OA
ATOM     61  H45 UNL     1       8.693   6.174   3.900 +0.09 +0.00    +0.169 HD
BRANCH  59  62
ATOM     62  C8  UNL     1      10.464   5.182   5.363 -0.24 +0.00    +0.105 A 
ATOM     63  C9  UNL     1      11.130   6.401   5.269 -0.28 +0.00    +0.066 A 
ATOM     64  C6  UNL     1      12.523   6.160   5.165 -0.34 +0.00    +0.053 A 
ATOM     65  C7  UNL     1      12.690   4.800   5.188 +0.79 +0.00    +0.120 A 
ATOM     66  N4  UNL     1      11.455   4.213   5.295 -0.18 -0.00    -0.354 N 
ATOM     67  C44 UNL     1      11.248   2.779   5.344 +0.23 +0.00    +0.156 C 
BRANCH  64  68
ATOM     68  N3  UNL     1      13.489   7.136   5.057 -0.22 -0.00    -0.319 N 
ATOM     69  C5  UNL     1      14.858   6.960   5.135 -0.15 +0.00    +0.290 C 
ATOM     70  O1  UNL     1      15.438   5.893   5.317 +7.21 -0.00    -0.264 OA
ATOM     71  H44 UNL     1      13.190   8.095   4.902 +0.12 +0.00    +0.169 HD
BRANCH  69  72
ATOM     72  C4  UNL     1      15.561   8.229   4.973 +1.22 +0.00    +0.176 A 
ATOM     73  N1  UNL     1      16.923   8.422   4.946 +0.68 -0.00    -0.342 N 
ATOM     74  C1  UNL     1      17.933   7.400   5.073 +9.22 +0.00    +0.157 C 
ATOM     75  C2  UNL     1      17.157   9.759   4.776 +0.20 +0.00    +0.109 A 
ATOM     76  C3  UNL     1      15.912  10.335   4.704+17.96 +0.00    +0.107 A 
ATOM     77  N2  UNL     1      14.930   9.388   4.827 +1.26 -0.00    -0.346 N 
ATOM     78  H2  UNL     1      13.921   9.542   4.809 +0.14 +0.00    +0.167 HD
ENDBRANCH  69  72
ENDBRANCH  64  68
ENDBRANCH  59  62
ENDBRANCH  54  58
ENDBRANCH  49  52
ENDBRANCH  47  48
ENDBRANCH  46  47
ENDBRANCH  45  46
BRANCH  45  79
ATOM     79  N16 UNL     1       3.937   2.229  -2.286 -0.06 +0.00    +0.092 N 
ATOM     80  H52 UNL     1       4.719   1.596  -2.487 +0.07 +0.00    +0.313 HD
ATOM     81  H53 UNL     1       3.133   1.784  -2.725 +0.05 +0.00    +0.313 HD
ENDBRANCH  45  79
ENDBRANCH   1  45
TORSDOF 22
TER
