USER    Run = 1
USER    DPF = ligand_288_receptor.dpf
USER  
USER    Estimated Free Energy of Binding    = +233.09 kcal/mol  [=(1)+(2)+(3)-(4)]
USER    
USER    (1) Final Intermolecular Energy     = +231.90 kcal/mol
USER        vdW + Hbond + desolv Energy     = +231.90 kcal/mol
USER        Electrostatic Energy            =   +0.00 kcal/mol
USER    (2) Final Total Internal Energy     =   +0.00 kcal/mol
USER    (3) Torsional Free Energy           =   +1.19 kcal/mol
USER    (4) Unbound System's Energy  [=(2)] =   +0.00 kcal/mol
USER    
USER    
USER    NEWDPF move ligand_288.pdbqt
USER    NEWDPF about 0.000000 0.000000 0.000000
USER    NEWDPF tran0 11.330708 5.566863 2.478034
USER    NEWDPF quaternion0 0.517009 0.652989 0.020203 -0.553082
USER    NEWDPF axisangle0 0.620564 0.783781 0.024250 -112.842573
USER    NEWDPF quat0 0.620564 0.783781 0.024250 -112.842573
USER  keepresnum = 1 
USER  
REMARK  0 active torsions:
REMARK  status: ('A' for Active; 'I' for Inactive)
REMARK       I    between atoms: C2_2  and  C3_3 
REMARK       I    between atoms: C2_2  and  N9_66 
REMARK       I    between atoms: C3_3  and  C4_4 
REMARK       I    between atoms: C4_4  and  C5_5 
REMARK       I    between atoms: C5_5  and  N1_57 
REMARK       I    between atoms: C6_6  and  C7_7 
REMARK       I    between atoms: C6_6  and  C9_9 
REMARK       I    between atoms: C6_6  and  N1_57 
REMARK       I    between atoms: C7_7  and  C8_8 
REMARK       I    between atoms: C8_8  and  O3_44 
REMARK       I    between atoms: C9_9  and  N2_58 
REMARK       I    between atoms: C10_10  and  C11_11 
REMARK       I    between atoms: C10_10  and  C15_15 
REMARK       I    between atoms: C10_10  and  N2_58 
REMARK       I    between atoms: C11_11  and  C12_12 
REMARK       I    between atoms: C12_12  and  C13_13 
REMARK       I    between atoms: C13_13  and  N3_59 
REMARK       I    between atoms: C14_14  and  N4_61 
REMARK       I    between atoms: C14_14  and  N5_62 
REMARK       I    between atoms: C15_15  and  N6_63 
REMARK       I    between atoms: C16_16  and  C17_17 
REMARK       I    between atoms: C16_16  and  C19_19 
REMARK       I    between atoms: C16_16  and  N6_63 
REMARK       I    between atoms: C17_17  and  C18_18 
REMARK       I    between atoms: C18_18  and  O7_48 
REMARK       I    between atoms: C19_19  and  N7_64 
REMARK       I    between atoms: C20_20  and  C21_21 
REMARK       I    between atoms: C20_20  and  C24_24 
REMARK       I    between atoms: C20_20  and  N7_64 
REMARK       I    between atoms: C21_21  and  C22_22 
REMARK       I    between atoms: C22_22  and  C23_23 
REMARK       I    between atoms: C23_23  and  O10_51 
REMARK       I    between atoms: C24_24  and  N8_65 
REMARK       I    between atoms: C25_25  and  C26_26 
REMARK       I    between atoms: C25_25  and  C27_27 
REMARK       I    between atoms: C25_25  and  N8_65 
REMARK       I    between atoms: C26_26  and  S1_76 
REMARK       I    between atoms: C27_27  and  O13_54 
REMARK       I    between atoms: C28_28  and  C29_29 
REMARK       I    between atoms: C28_28  and  N9_66 
REMARK       I    between atoms: C32_32  and  N10_67 
REMARK       I    between atoms: C35_35  and  C36_36 
REMARK       I    between atoms: C35_35  and  N10_67 
REMARK       I    between atoms: C41_41  and  N15_75 
USER                              x       y       z     vdW  Elec       q    Type
USER                           _______ _______ _______ _____ _____    ______ ____
ROOT
ATOM      1  C1  UNL     1      10.238   8.990   5.820 +1.96 +0.00    +0.032 C 
ATOM      2  C2  UNL     1      10.728   8.835   4.380 -0.16 +0.00    +0.081 C 
ATOM      3  C3  UNL     1      10.065   7.628   3.702 -0.44 +0.00    +0.034 C 
ATOM      4  C4  UNL     1      10.461   7.462   2.235 -0.16 +0.00    +0.105 C 
ATOM      5  C5  UNL     1       9.999   6.131   1.675 -0.19 +0.00    +0.218 C 
ATOM      6  C6  UNL     1       9.849   4.788  -0.380 -0.13 +0.00    +0.186 C 
ATOM      7  C7  UNL     1      10.599   4.546  -1.684 -0.13 +0.00    +0.144 C 
ATOM      8  C8  UNL     1      10.462   5.713  -2.619 -0.21 +0.00    +0.141 C 
ATOM      9  C9  UNL     1       8.345   4.953  -0.656 -0.07 +0.00    +0.241 C 
ATOM     10  C10 UNL     1       6.177   3.770  -0.746 -0.08 +0.00    +0.176 C 
ATOM     11  C11 UNL     1       5.667   2.326  -0.642 -0.11 +0.00    +0.036 C 
ATOM     12  C12 UNL     1       5.934   1.461  -1.882 -0.12 +0.00    +0.022 C 
ATOM     13  C13 UNL     1       7.340   1.515  -2.483 -0.11 +0.00    +0.121 C 
ATOM     14  C14 UNL     1       9.500   0.908  -1.758 -0.18 +0.00    +0.121 C 
ATOM     15  C15 UNL     1       5.334   4.658   0.197 -0.14 +0.00    +0.241 C 
ATOM     16  C16 UNL     1       5.235   5.736   2.422 -0.17 +0.00    +0.186 C 
ATOM     17  C17 UNL     1       3.810   5.384   2.865 -0.15 +0.00    +0.144 C 
ATOM     18  C18 UNL     1       3.674   3.987   3.403 -0.10 +0.00    +0.141 C 
ATOM     19  C19 UNL     1       6.117   5.934   3.670 -0.07 +0.00    +0.241 C 
ATOM     20  C20 UNL     1       7.335   4.773   5.484 -0.26 +0.00    +0.177 C 
ATOM     21  C21 UNL     1       6.272   4.701   6.596 -0.46 +0.00    +0.045 C 
ATOM     22  C22 UNL     1       6.586   5.607   7.787 +0.16 +0.00    +0.112 C 
ATOM     23  C23 UNL     1       7.769   5.135   8.579 +1.17 +0.00    +0.139 C 
ATOM     24  C24 UNL     1       8.352   3.608   5.558 -0.22 +0.00    +0.241 C 
ATOM     25  C25 UNL     1      10.414   2.773   4.471 +0.14 +0.00    +0.191 C 
ATOM     26  C26 UNL     1      10.799   2.204   3.103+15.11 +0.00    +0.106 C 
ATOM     27  C27 UNL     1      11.532   3.728   4.925 -0.01 +0.00    +0.164 C 
ATOM     28  C28 UNL     1      12.987   7.824   4.863 -0.30 +0.00    +0.251 C 
ATOM     29  C29 UNL     1      14.451   7.963   4.642 -0.46 +0.00    +0.032 A 
ATOM     30  C30 UNL     1      15.074   9.208   4.537 +0.41 +0.00    +0.019 A 
ATOM     31  C31 UNL     1      16.457   9.279   4.328 -0.34 +0.00    +0.024 A 
ATOM     32  C32 UNL     1      17.242   8.124   4.203 -0.47 +0.00    +0.008 A 
ATOM     33  C33 UNL     1      16.609   6.886   4.371 +6.80 +0.00    +0.024 A 
ATOM     34  C34 UNL     1      15.227   6.802   4.578 +1.73 +0.00    +0.019 A 
ATOM     35  C35 UNL     1      19.428   7.168   3.548 +5.47 +0.00    +0.151 C 
ATOM     36  C36 UNL     1      20.800   7.674   3.150+22.85 +0.00    +0.038 A 
ATOM     37  C37 UNL     1      21.906   6.825   3.199+31.54 +0.00    +0.116 A 
ATOM     38  C38 UNL     1      23.273   8.476   2.378 -0.32 +0.00    +0.140 A 
ATOM     39  C39 UNL     1      22.168   9.317   2.319 -0.34 +0.00    +0.146 A 
ATOM     40  C40 UNL     1      22.410  10.685   1.821+12.76 +0.00    +0.278 A 
ATOM     41  C41 UNL     1      24.735  10.068   1.577 +0.04 +0.00    +0.159 A 
ATOM     42  O1  UNL     1       9.411   5.271   2.327 -0.12 -0.00    -0.274 OA
ATOM     43  O2  UNL     1      10.766   6.868  -2.366 +0.03 -0.00    -0.650 OA
ATOM     44  O3  UNL     1       9.966   5.368  -3.820 +0.08 -0.00    -0.776 OA
ATOM     45  O4  UNL     1       7.852   6.009  -1.046 +0.08 -0.00    -0.271 OA
ATOM     46  O5  UNL     1       4.227   5.082  -0.130 -0.33 -0.00    -0.271 OA
ATOM     47  O6  UNL     1       4.564   3.180   3.621 +0.05 -0.00    -0.650 OA
ATOM     48  O7  UNL     1       2.391   3.679   3.683 +0.07 -0.00    -0.776 OA
ATOM     49  O8  UNL     1       6.175   7.012   4.259 +8.36 -0.00    -0.271 OA
ATOM     50  O9  UNL     1       7.736   4.433   9.575+13.35 -0.00    -0.650 OA
ATOM     51  O10 UNL     1       8.933   5.561   8.055 +0.13 -0.00    -0.776 OA
ATOM     52  O11 UNL     1       8.551   2.939   6.569 -0.13 -0.00    -0.271 OA
ATOM     53  O12 UNL     1      12.730   3.551   4.754 +7.74 -0.00    -0.648 OA
ATOM     54  O13 UNL     1      11.072   4.811   5.584 +0.12 -0.00    -0.775 OA
ATOM     55  O14 UNL     1      12.560   6.848   5.470 -0.23 -0.00    -0.268 OA
ATOM     56  O15 UNL     1      21.522  11.520   1.687 +9.54 -0.00    -0.265 OA
ATOM     57  N1  UNL     1      10.328   5.962   0.346 -0.10 -0.00    -0.347 N 
ATOM     58  N2  UNL     1       7.598   3.827  -0.393 +0.00 -0.00    -0.346 N 
ATOM     59  N3  UNL     1       8.340   1.339  -1.430 -0.00 -0.00    -0.372 N 
ATOM     60  H3  UNL     1       8.118   1.554  -0.458 +0.07 +0.00    +0.161 HD
ATOM     61  N4  UNL     1      10.006   0.610  -2.973 -0.45 -0.00    -0.279 NA
ATOM     62  N5  UNL     1      10.438   0.714  -0.808 -0.15 -0.00    -0.279 NA
ATOM     63  N6  UNL     1       5.835   4.795   1.479 -0.03 -0.00    -0.346 N 
ATOM     64  N7  UNL     1       6.707   4.788   4.158 -0.06 -0.00    -0.346 N 
ATOM     65  N8  UNL     1       9.121   3.473   4.417 -0.17 -0.00    -0.344 N 
ATOM     66  N9  UNL     1      12.191   8.807   4.312 +0.25 -0.00    -0.353 N 
ATOM     67  N10 UNL     1      18.622   8.270   4.068 -0.29 -0.00    -0.287 NA
ATOM     68  N11 UNL     1      23.153   7.203   2.820 +9.91 -0.00    -0.348 N 
ATOM     69  H11 UNL     1      23.949   6.567   2.866 +2.68 +0.00    +0.167 HD
ATOM     70  N12 UNL     1      20.912   8.951   2.688 -0.05 -0.00    -0.350 N 
ATOM     71  H12 UNL     1      20.114   9.584   2.624 +0.11 +0.00    +0.166 HD
ATOM     72  N13 UNL     1      23.718  10.973   1.502+26.19 -0.00    -0.298 N 
ATOM     73  N14 UNL     1      24.565   8.857   1.992 -0.20 -0.00    -0.317 N 
ATOM     74  H14 UNL     1      25.344   8.201   2.038 +0.14 +0.00    +0.170 HD
ATOM     75  N15 UNL     1      25.959  10.500   1.193 +3.97 -0.00    -0.274 NA
ATOM     76  S1  UNL     1       9.552   1.040   2.449+37.13 -0.00    -0.180 SA
ATOM     77  H37 UNL     1       9.877   6.220  -4.298 +0.09 +0.00    +0.167 HD
ATOM     78  H38 UNL     1       2.422   2.760   4.020 +0.05 +0.00    +0.167 HD
ATOM     79  H39 UNL     1       9.619   5.062   8.546 +0.12 +0.00    +0.167 HD
ATOM     80  H40 UNL     1      11.820   5.456   5.692 +0.12 +0.00    +0.167 HD
ATOM     81  H41 UNL     1      10.442   6.812  -0.205 +0.09 +0.00    +0.163 HD
ATOM     82  H42 UNL     1       8.089   2.931  -0.455 +0.07 +0.00    +0.163 HD
ATOM     83  H43 UNL     1       9.485   0.972  -3.762 +1.03 +0.00    +0.126 HD
ATOM     84  H44 UNL     1      10.993   0.819  -3.059 +0.06 +0.00    +0.126 HD
ATOM     85  H45 UNL     1      10.017   0.735   0.123 +0.07 +0.00    +0.126 HD
ATOM     86  H46 UNL     1      10.921  -0.170  -0.924 +0.08 +0.00    +0.126 HD
ATOM     87  H47 UNL     1       6.837   4.632   1.560 +0.07 +0.00    +0.163 HD
ATOM     88  H48 UNL     1       6.328   3.902   3.820 +0.07 +0.00    +0.163 HD
ATOM     89  H49 UNL     1       9.073   4.264   3.768 +0.08 +0.00    +0.163 HD
ATOM     90  H50 UNL     1      12.626   9.507   3.726 +0.03 +0.00    +0.163 HD
ATOM     91  H51 UNL     1      18.889   9.150   3.618 +0.08 +0.00    +0.128 HD
ATOM     92  H52 UNL     1      23.883  11.890   1.117+17.80 +0.00    +0.171 HD
ATOM     93  H53 UNL     1      26.691   9.845   1.457 +0.09 +0.00    +0.127 HD
ATOM     94  H54 UNL     1      26.199  11.455   1.424 +0.39 +0.00    +0.127 HD
ATOM     95  H55 UNL     1       8.484   1.772   2.809 -0.42 +0.00    +0.101 HD
ENDROOT
TORSDOF 36
TER
