USER    Run = 1
USER    DPF = ligand_45_receptor.dpf
USER  
USER    Estimated Free Energy of Binding    =  +3.35e+004 kcal/mol  [=(1)+(2)+(3)-(4)]
USER    
USER    (1) Final Intermolecular Energy     =  +3.35e+004 kcal/mol
USER        vdW + Hbond + desolv Energy     =  +3.35e+004 kcal/mol
USER        Electrostatic Energy            =   +0.00 kcal/mol
USER    (2) Final Total Internal Energy     =   +0.00 kcal/mol
USER    (3) Torsional Free Energy           =   +1.19 kcal/mol
USER    (4) Unbound System's Energy  [=(2)] =   +0.00 kcal/mol
USER    
USER    
USER    NEWDPF move ligand_45.pdbqt
USER    NEWDPF about 0.000000 0.000000 0.000000
USER    NEWDPF tran0 13.431420 7.043105 3.434317
USER    NEWDPF quaternion0 -0.019890 -0.631748 -0.773279 0.050382
USER    NEWDPF axisangle0 -0.019915 -0.632551 -0.774262 174.224253
USER    NEWDPF quat0 -0.019915 -0.632551 -0.774262 174.224253
USER  keepresnum = 1 
USER  
REMARK  0 active torsions:
REMARK  status: ('A' for Active; 'I' for Inactive)
REMARK       I    between atoms: C2_2  and  C3_3 
REMARK       I    between atoms: C3_3  and  C5_5 
REMARK       I    between atoms: C5_5  and  C6_6 
REMARK       I    between atoms: C5_5  and  N3_98 
REMARK       I    between atoms: C6_6  and  C7_7 
REMARK       I    between atoms: C6_6  and  O4_81 
REMARK       I    between atoms: C7_7  and  C8_8 
REMARK       I    between atoms: C8_8  and  N1_96 
REMARK       I    between atoms: C12_12  and  C13_13 
REMARK       I    between atoms: C13_13  and  C14_14 
REMARK       I    between atoms: C13_13  and  O3_80 
REMARK       I    between atoms: C14_14  and  C16_16 
REMARK       I    between atoms: C16_16  and  N2_97 
REMARK       I    between atoms: C17_17  and  C18_18 
REMARK       I    between atoms: C17_17  and  N2_97 
REMARK       I    between atoms: C18_18  and  C19_19 
REMARK       I    between atoms: C28_28  and  C29_29 
REMARK       I    between atoms: C28_28  and  N3_98 
REMARK       I    between atoms: C29_29  and  C30_30 
REMARK       I    between atoms: C29_29  and  N4_99 
REMARK       I    between atoms: C33_33  and  C34_34 
REMARK       I    between atoms: C33_33  and  N4_99 
REMARK       I    between atoms: C34_34  and  C35_35 
REMARK       I    between atoms: C34_34  and  N5_100 
REMARK       I    between atoms: C39_39  and  O8_85 
REMARK       I    between atoms: C39_39  and  N5_100 
REMARK       I    between atoms: C40_40  and  C41_41 
REMARK       I    between atoms: C40_40  and  O8_85 
REMARK       I    between atoms: C44_44  and  N6_101 
REMARK       I    between atoms: C47_47  and  C48_48 
REMARK       I    between atoms: C47_47  and  N6_101 
REMARK       I    between atoms: C48_48  and  C49_49 
REMARK       I    between atoms: C48_48  and  N9_104 
REMARK       I    between atoms: C49_49  and  C50_50 
REMARK       I    between atoms: C50_50  and  C51_51 
REMARK       I    between atoms: C51_51  and  N7_102 
REMARK       I    between atoms: C52_52  and  N7_102 
REMARK       I    between atoms: C52_52  and  N8_103 
REMARK       I    between atoms: C53_53  and  C54_54 
REMARK       I    between atoms: C53_53  and  N9_104 
REMARK       I    between atoms: C54_54  and  C55_55 
REMARK       I    between atoms: C54_54  and  N10_105 
REMARK       I    between atoms: C58_58  and  C59_59 
REMARK       I    between atoms: C58_58  and  N10_105 
REMARK       I    between atoms: C59_59  and  C60_60 
REMARK       I    between atoms: C60_60  and  C61_61 
REMARK       I    between atoms: C61_61  and  C62_62 
REMARK       I    between atoms: C62_62  and  C63_63 
REMARK       I    between atoms: C63_63  and  N11_106 
REMARK       I    between atoms: C66_66  and  S1_110 
REMARK       I    between atoms: C68_68  and  C69_69 
REMARK       I    between atoms: C68_68  and  S1_110 
REMARK       I    between atoms: C69_69  and  C72_72 
REMARK       I    between atoms: C72_72  and  C73_73 
REMARK       I    between atoms: C73_73  and  O16_93 
REMARK       I    between atoms: O16_93  and  N12_107 
USER                              x       y       z     vdW  Elec       q    Type
USER                           _______ _______ _______ _____ _____    ______ ____
ROOT
ATOM      1  C1  UNL     1      17.017  11.592  -3.854+99.99 +0.00    +0.005 C 
ATOM      2  C2  UNL     1      17.651  11.182  -2.531+99.99 +0.00    +0.002 C 
ATOM      3  C3  UNL     1      16.682  10.483  -1.546+99.99 +0.00    +0.006 C 
ATOM      4  C4  UNL     1      15.460  11.374  -1.265+99.99 +0.00    +0.012 C 
ATOM      5  C5  UNL     1      17.411  10.088  -0.211 -0.33 +0.00    +0.119 C 
ATOM      6  C6  UNL     1      18.695   9.192  -0.428 +1.54 +0.00    +0.152 C 
ATOM      7  C7  UNL     1      19.324   8.706   0.883+91.80 +0.00    +0.137 C 
ATOM      8  C8  UNL     1      19.998   9.839   1.622 -0.15 +0.00    +0.222 C 
ATOM      9  C9  UNL     1      21.894  11.354   1.880+99.99 +0.00    +0.126 C 
ATOM     10  C10 UNL     1      23.340  11.366   1.411+99.99 +0.00    +0.022 C 
ATOM     11  C11 UNL     1      23.288  10.532   0.142 +0.67 +0.00    +0.029 C 
ATOM     12  C12 UNL     1      22.260   9.430   0.455 -0.44 +0.00    +0.117 C 
ATOM     13  C13 UNL     1      22.950   8.129   1.010 -0.29 +0.00    +0.156 C 
ATOM     14  C14 UNL     1      23.055   8.041   2.560 +0.01 +0.00    +0.105 C 
ATOM     15  C15 UNL     1      21.946   7.204   3.208+15.26 +0.00    +0.022 C 
ATOM     16  C16 UNL     1      24.429   7.516   2.990 +2.96 +0.00    +0.224 C 
ATOM     17  C17 UNL     1      25.839   7.004   4.959 +1.17 +0.00    +0.127 C 
ATOM     18  C18 UNL     1      25.752   5.479   5.093+14.21 +0.00    +0.064 C 
ATOM     19  C19 UNL     1      24.577   5.027   5.922+99.99 +0.00    +0.021 A 
ATOM     20  C20 UNL     1      23.474   4.406   5.334+99.99 +0.00    +0.125 A 
ATOM     21  C21 UNL     1      22.370   4.015   6.088+99.99 +0.00    +0.043 A 
ATOM     22  C22 UNL     1      22.356   4.236   7.465+99.99 +0.00    +0.006 A 
ATOM     23  C23 UNL     1      23.450   4.850   8.073+99.99 +0.00    +0.043 A 
ATOM     24  C24 UNL     1      24.544   5.239   7.301+99.99 +0.00    +0.125 A 
ATOM     25  C25 UNL     1      23.031   5.850   0.262 -0.11 +0.00    +0.202 C 
ATOM     26  C26 UNL     1      19.487   7.443  -1.882+50.58 +0.00    +0.202 C 
ATOM     27  C27 UNL     1      16.185  10.428   1.944 -0.42 +0.00    +0.153 C 
ATOM     28  C28 UNL     1      15.848   8.317   0.637 -0.11 +0.00    +0.243 C 
ATOM     29  C29 UNL     1      15.298   7.497   1.853+55.12 +0.00    +0.180 C 
ATOM     30  C30 UNL     1      13.777   7.235   1.680 +9.80 +0.00    +0.009 C 
ATOM     31  C31 UNL     1      12.921   8.488   1.877+99.99 +0.00    +0.012 C 
ATOM     32  C32 UNL     1      13.299   6.118   2.616 +6.14 +0.00    +0.012 C 
ATOM     33  C33 UNL     1      16.742   7.509   3.901 -0.17 +0.00    +0.241 C 
ATOM     34  C34 UNL     1      16.881   8.164   5.307 +8.83 +0.00    +0.184 C 
ATOM     35  C35 UNL     1      18.185   7.847   6.095+99.99 +0.00    +0.010 C 
ATOM     36  C36 UNL     1      19.329   8.748   5.610+95.14 +0.00    +0.012 C 
ATOM     37  C37 UNL     1      18.663   6.391   6.078+99.99 +0.00    +0.012 C 
ATOM     38  C38 UNL     1      15.419   6.672   6.745 +3.41 +0.00    +0.156 C 
ATOM     39  C39 UNL     1      14.604   8.879   5.957+17.25 +0.00    +0.363 C 
ATOM     40  C40 UNL     1      12.378   9.439   6.503+16.55 +0.00    +0.219 C 
ATOM     41  C41 UNL     1      11.111   8.633   6.658 +0.04 -0.00    -0.034 A 
ATOM     42  C42 UNL     1      10.928   7.452   5.928 -0.35 +0.00    +0.011 A 
ATOM     43  C43 UNL     1       9.740   6.723   6.024 +0.98 +0.00    +0.030 A 
ATOM     44  C44 UNL     1       8.700   7.171   6.837+99.99 +0.00    +0.034 A 
ATOM     45  C45 UNL     1       8.877   8.353   7.567+99.99 +0.00    +0.030 A 
ATOM     46  C46 UNL     1      10.069   9.079   7.479+15.39 +0.00    +0.011 A 
ATOM     47  C47 UNL     1       7.032   5.374   6.321 -0.24 +0.00    +0.245 C 
ATOM     48  C48 UNL     1       5.669   4.836   6.840 -0.39 +0.00    +0.177 C 
ATOM     49  C49 UNL     1       5.604   4.510   8.341+27.12 +0.00    +0.036 C 
ATOM     50  C50 UNL     1       6.218   3.188   8.824+99.99 +0.00    +0.022 C 
ATOM     51  C51 UNL     1       7.736   3.200   9.001+11.61 +0.00    +0.124 C 
ATOM     52  C52 UNL     1       8.543   2.169   6.931+20.56 +0.00    +0.291 C 
ATOM     53  C53 UNL     1       4.486   3.896   4.912 -0.15 +0.00    +0.241 C 
ATOM     54  C54 UNL     1       4.773   2.961   3.720 -0.15 +0.00    +0.180 C 
ATOM     55  C55 UNL     1       4.171   1.545   3.870 -0.33 +0.00    +0.009 C 
ATOM     56  C56 UNL     1       2.644   1.600   3.969 -0.19 +0.00    +0.012 C 
ATOM     57  C57 UNL     1       4.740   0.731   5.035 +1.66 +0.00    +0.012 C 
ATOM     58  C58 UNL     1       6.765   2.606   2.294 -0.16 +0.00    +0.218 C 
ATOM     59  C59 UNL     1       8.262   2.846   2.203 -0.23 +0.00    +0.103 C 
ATOM     60  C60 UNL     1       8.697   3.072   0.758 -0.18 +0.00    +0.009 C 
ATOM     61  C61 UNL     1      10.192   3.392   0.657+22.58 +0.00    +0.002 C 
ATOM     62  C62 UNL     1      10.575   3.979  -0.708 -0.09 +0.00    +0.020 C 
ATOM     63  C63 UNL     1      10.576   5.514  -0.753 -0.23 +0.00    +0.135 C 
ATOM     64  C64 UNL     1       8.274   6.183  -1.390 +0.55 +0.00    +0.228 C 
ATOM     65  C65 UNL     1       7.039   6.702  -0.717 +3.42 +0.00    +0.128 C 
ATOM     66  C66 UNL     1       7.551   7.242   0.614 -0.36 +0.00    +0.148 C 
ATOM     67  C67 UNL     1       8.932   6.639   0.737 -0.19 +0.00    +0.240 C 
ATOM     68  C68 UNL     1       7.138   7.724   3.361 +6.13 +0.00    +0.084 C 
ATOM     69  C69 UNL     1       7.009   9.229   3.226+24.28 -0.00    -0.023 A 
ATOM     70  C70 UNL     1       7.959  10.074   4.060+99.99 +0.00    +0.011 A 
ATOM     71  C71 UNL     1       8.148   9.999   2.577+99.99 +0.00    +0.011 A 
ATOM     72  C72 UNL     1       5.596   9.772   3.057+99.99 +0.00    +0.123 C 
ATOM     73  C73 UNL     1       4.627   9.386   4.149+99.99 +0.00    +0.282 C 
ATOM     74  C74 UNL     1       4.319   8.731   7.398 +0.06 +0.00    +0.251 C 
ATOM     75  C75 UNL     1       3.142   8.872   8.322 -0.14 +0.00    +0.115 C 
ATOM     76  C76 UNL     1       2.403  10.104   7.809 -0.24 +0.00    +0.115 C 
ATOM     77  C77 UNL     1       3.201  10.543   6.614 -0.26 +0.00    +0.251 C 
ATOM     78  O1  UNL     1      19.352  10.540   2.408 -0.29 -0.00    -0.273 OA
ATOM     79  O2  UNL     1      25.277   7.100   2.206 -0.26 -0.00    -0.273 OA
ATOM     80  O3  UNL     1      22.226   7.008   0.458 +3.70 -0.00    -0.388 OA
ATOM     81  O4  UNL     1      18.373   8.099  -1.298 +5.02 -0.00    -0.388 OA
ATOM     82  O5  UNL     1      15.691   7.837  -0.492 -0.66 -0.00    -0.271 OA
ATOM     83  O6  UNL     1      17.570   6.751   3.411 -0.38 -0.00    -0.271 OA
ATOM     84  O7  UNL     1      14.674   9.850   5.210+12.76 -0.00    -0.238 OA
ATOM     85  O8  UNL     1      13.502   8.569   6.684 -0.20 -0.00    -0.299 OA
ATOM     86  O9  UNL     1       7.619   4.820   5.384 -0.19 -0.00    -0.271 OA
ATOM     87  O10 UNL     1       8.000   1.091   7.101+99.99 -0.00    -0.254 OA
ATOM     88  O11 UNL     1       3.581   4.728   4.910 -0.08 -0.00    -0.271 OA
ATOM     89  O12 UNL     1       6.107   2.125   1.378 -0.11 -0.00    -0.274 OA
ATOM     90  O13 UNL     1       8.333   5.856  -2.565 +0.46 -0.00    -0.273 OA
ATOM     91  O14 UNL     1       9.637   6.663   1.737 -0.19 -0.00    -0.272 OA
ATOM     92  O15 UNL     1       3.542   8.851   3.952 +0.17 -0.00    -0.263 OA
ATOM     93  O16 UNL     1       5.088   9.774   5.380+99.99 -0.00    -0.187 OA
ATOM     94  O17 UNL     1       5.283   8.010   7.623 -0.20 -0.00    -0.271 OA
ATOM     95  O18 UNL     1       3.060  11.611   6.038 -0.27 -0.00    -0.271 OA
ATOM     96  N1  UNL     1      21.324  10.116   1.365 -0.18 -0.00    -0.345 N 
ATOM     97  N2  UNL     1      24.655   7.586   4.349 +2.82 -0.00    -0.360 N 
ATOM     98  N3  UNL     1      16.477   9.546   0.823 -0.22 -0.00    -0.347 N 
ATOM     99  N4  UNL     1      15.613   7.920   3.214 -0.22 -0.00    -0.346 N 
ATOM    100  N5  UNL     1      15.634   7.959   6.098+99.99 -0.00    -0.319 N 
ATOM    101  N6  UNL     1       7.467   6.506   6.980 +7.84 -0.00    -0.325 N 
ATOM    102  N7  UNL     1       8.457   3.251   7.755 -0.32 -0.00    -0.348 N 
ATOM    103  N8  UNL     1       9.281   2.441   5.826 +1.99 -0.00    -0.254 NA
ATOM    104  N9  UNL     1       5.309   3.699   6.006 -0.19 -0.00    -0.346 N 
ATOM    105  N10 UNL     1       6.233   2.947   3.519 -0.09 -0.00    -0.347 N 
ATOM    106  N11 UNL     1       9.282   6.109  -0.473 -0.09 -0.00    -0.287 N 
ATOM    107  N12 UNL     1       4.117   9.574   6.361 +2.10 -0.00    -0.145 N 
ATOM    108  F1  UNL     1      25.579   5.837   7.907 +5.68 -0.00    -0.205 F 
ATOM    109  F2  UNL     1      23.457   4.185   4.011+99.99 -0.00    -0.205 F 
ATOM    110  S1  UNL     1       6.440   6.780   1.980 -0.37 -0.00    -0.153 SA
ATOM    111  HA7 UNL     1      23.894   7.843   4.963 +0.16 +0.00    +0.162 HD
ATOM    112  HA8 UNL     1      15.095   8.699   3.607 +0.10 +0.00    +0.163 HD
ATOM    113  HA9 UNL     1       6.761   6.994   7.538 +0.17 +0.00    +0.169 HD
ATOM    114  HB0 UNL     1       9.256   3.871   7.698 +0.11 +0.00    +0.163 HD
ATOM    115  HB1 UNL     1       9.240   1.694   5.144 +0.35 +0.00    +0.128 HD
ATOM    116  HB2 UNL     1       9.089   3.358   5.431 +0.04 +0.00    +0.128 HD
ATOM    117  HB3 UNL     1       6.038   3.002   5.884 -0.44 +0.00    +0.163 HD
ATOM    118  HB4 UNL     1       6.761   3.653   4.034 +0.06 +0.00    +0.163 HD
ENDROOT
TORSDOF 46
TER
