USER    Run = 1
USER    DPF = ligand_69_receptor.dpf
USER  
USER    Estimated Free Energy of Binding    =  +1.74e+003 kcal/mol  [=(1)+(2)+(3)-(4)]
USER    
USER    (1) Final Intermolecular Energy     =  +1.74e+003 kcal/mol
USER        vdW + Hbond + desolv Energy     =  +1.74e+003 kcal/mol
USER        Electrostatic Energy            =   +0.00 kcal/mol
USER    (2) Final Total Internal Energy     =   -4.49 kcal/mol
USER    (3) Torsional Free Energy           =   +1.19 kcal/mol
USER    (4) Unbound System's Energy  [=(2)] =   -4.49 kcal/mol
USER    
USER    
USER    NEWDPF move ligand_69.pdbqt
USER    NEWDPF about 0.000000 0.000000 0.000000
USER    NEWDPF tran0 18.260051 5.821995 6.889679
USER    NEWDPF quaternion0 0.366905 -0.639888 0.062740 -0.672301
USER    NEWDPF axisangle0 0.495631 -0.864388 0.084753 -95.510246
USER    NEWDPF quat0 0.495631 -0.864388 0.084753 -95.510246
USER    NEWDPF dihe0 -85.24 178.14 -24.92 13.89 179.97 -20.04 -115.50 6.33 71.66 -71.61 109.75 128.95 43.08 -105.73 -3.69 -105.31 180.00 167.77 60.75 
USER  keepresnum = 1 
USER  
REMARK  19 active torsions:
REMARK  status: ('A' for Active; 'I' for Inactive)
REMARK    1  A    between atoms: C2_2  and  C3_3 
REMARK       I    between atoms: C2_2  and  N1_52 
REMARK    2  A    between atoms: C5_5  and  N3_54 
REMARK    3  A    between atoms: C8_8  and  C9_9 
REMARK       I    between atoms: C8_8  and  N3_54 
REMARK    4  A    between atoms: C15_15  and  C16_16 
REMARK    5  A    between atoms: C17_17  and  N8_61 
REMARK    6  A    between atoms: C20_20  and  C21_21 
REMARK       I    between atoms: C20_20  and  N8_61 
REMARK    7  A    between atoms: C23_23  and  N10_63 
REMARK    8  A    between atoms: C26_26  and  C27_27 
REMARK       I    between atoms: C26_26  and  N10_63 
REMARK    9  A    between atoms: C27_27  and  C28_28 
REMARK   10  A    between atoms: C27_27  and  N21_76 
REMARK   11  A    between atoms: C28_28  and  C29_29 
REMARK   12  A    between atoms: C29_29  and  N11_64 
REMARK   13  A    between atoms: C30_30  and  C31_31 
REMARK       I    between atoms: C30_30  and  N11_64 
REMARK   14  A    between atoms: C33_33  and  N13_66 
REMARK   15  A    between atoms: C36_36  and  C37_37 
REMARK       I    between atoms: C36_36  and  N13_66 
REMARK   16  A    between atoms: C39_39  and  N15_68 
REMARK   17  A    between atoms: C42_42  and  C43_43 
REMARK       I    between atoms: C42_42  and  N15_68 
REMARK   18  A    between atoms: C44_44  and  N18_72 
REMARK   19  A    between atoms: C47_47  and  C48_48 
REMARK       I    between atoms: C47_47  and  N18_72 
USER                              x       y       z     vdW  Elec       q    Type
USER                           _______ _______ _______ _____ _____    ______ ____
ROOT
ATOM      1  C27 UNL     1      25.614   6.184   5.977 +3.59 +0.00    +0.310 C 
ENDROOT
BRANCH   1   2
ATOM      2  C26 UNL     1      24.897   7.160   5.015 +7.12 +0.00    +0.255 C 
ATOM      3  N10 UNL     1      23.896   7.881   5.648 +5.17 -0.00    -0.324 N 
ATOM      4  H49 UNL     1      23.698   7.670   6.628 +0.90 +0.00    +0.169 HD
ATOM      5  O4  UNL     1      25.238   7.258   3.838 +0.20 -0.00    -0.271 OA
BRANCH   3   6
ATOM      6  C23 UNL     1      23.091   8.835   5.058 +5.23 +0.00    +0.052 A 
ATOM      7  C22 UNL     1      22.033   8.560   4.158+17.67 +0.00    +0.066 A 
ATOM      8  C21 UNL     1      21.444   9.761   3.771 +1.34 +0.00    +0.105 A 
ATOM      9  N9  UNL     1      22.164  10.754   4.415 +1.79 -0.00    -0.354 N 
ATOM     10  C24 UNL     1      23.140  10.198   5.203 -0.19 +0.00    +0.120 A 
ATOM     11  C25 UNL     1      21.927  12.180   4.312+45.23 +0.00    +0.156 C 
BRANCH   8  12
ATOM     12  C20 UNL     1      20.324  10.009   2.863 +0.01 +0.00    +0.274 C 
ATOM     13  N8  UNL     1      19.133   9.476   3.313 -0.09 -0.00    -0.306 N 
ATOM     14  H48 UNL     1      19.106   9.046   4.221 +0.12 +0.00    +0.170 HD
ATOM     15  O3  UNL     1      20.465  10.653   1.829 -0.33 -0.00    -0.266 OA
BRANCH  13  16
ATOM     16  C17 UNL     1      17.940   9.550   2.639 -0.37 +0.00    +0.125 A 
ATOM     17  C18 UNL     1      17.417  10.701   2.097 -0.38 +0.00    +0.140 A 
ATOM     18  N7  UNL     1      16.229  10.318   1.528 -0.21 -0.00    -0.341 N 
ATOM     19  C16 UNL     1      16.082   8.972   1.749 -0.31 +0.00    +0.153 A 
ATOM     20  C19 UNL     1      15.313  11.182   0.826 +0.01 +0.00    +0.157 C 
ATOM     21  N6  UNL     1      17.109   8.494   2.422 -0.27 -0.00    -0.324 N 
ATOM     22  H6  UNL     1      17.253   7.530   2.721 +0.06 +0.00    +0.169 HD
BRANCH  19  23
ATOM     23  C15 UNL     1      14.991   8.158   1.328 +4.26 +0.00    +0.151 A 
ATOM     24  N4  UNL     1      14.692   7.793   0.099 +0.37 -0.00    -0.338 N 
ATOM     25  C12 UNL     1      13.562   7.020   0.219 +0.64 +0.00    +0.060 A 
ATOM     26  H4  UNL     1      15.192   8.033  -0.758 +0.02 +0.00    +0.167 HD
ATOM     27  C11 UNL     1      13.161   6.919   1.548 +1.12 +0.00    +0.061 A 
ATOM     28  C13 UNL     1      12.821   6.361  -0.772 -0.39 +0.00    +0.033 A 
ATOM     29  C10 UNL     1      12.040   6.194   1.963 -0.13 +0.00    +0.049 A 
ATOM     30  N5  UNL     1      14.097   7.649   2.234 +1.12 -0.00    -0.337 N 
ATOM     31  C9  UNL     1      11.297   5.552   0.955 +0.48 +0.00    +0.034 A 
ATOM     32  C14 UNL     1      11.692   5.624  -0.389 -0.36 +0.00    +0.019 A 
ATOM     33  H47 UNL     1      14.153   7.811   3.231 +0.02 +0.00    +0.167 HD
BRANCH  31  34
ATOM     34  C8  UNL     1      10.084   4.749   1.286 +2.41 +0.00    +0.256 C 
ATOM     35  N3  UNL     1       9.558   4.988   2.543 -0.04 -0.00    -0.322 N 
ATOM     36  H46 UNL     1       9.949   5.730   3.107 +0.07 +0.00    +0.169 HD
ATOM     37  O2  UNL     1       9.640   3.987   0.435 -0.00 -0.00    -0.267 OA
BRANCH  35  38
ATOM     38  C5  UNL     1       8.466   4.339   3.090 -0.18 +0.00    +0.053 A 
ATOM     39  C4  UNL     1       7.726   4.792   4.207 -0.21 +0.00    +0.066 A 
ATOM     40  C3  UNL     1       6.691   3.898   4.450 -0.20 +0.00    +0.104 A 
ATOM     41  N2  UNL     1       6.855   2.868   3.545 -0.11 -0.00    -0.354 N 
ATOM     42  C6  UNL     1       7.896   3.154   2.697 -0.19 +0.00    +0.120 A 
ATOM     43  C7  UNL     1       6.127   1.618   3.519 -0.23 +0.00    +0.156 C 
BRANCH  40  44
ATOM     44  C2  UNL     1       5.689   4.013   5.490 -0.22 +0.00    +0.268 C 
ATOM     45  N1  UNL     1       6.173   4.463   6.701 -0.24 -0.00    -0.360 N 
ATOM     46  C1  UNL     1       5.327   4.466   7.867 +2.49 +0.00    +0.149 C 
ATOM     47  H45 UNL     1       7.170   4.384   6.845 +0.08 +0.00    +0.162 HD
ATOM     48  O1  UNL     1       4.520   3.676   5.334 -0.19 -0.00    -0.266 OA
ENDBRANCH  40  44
ENDBRANCH  35  38
ENDBRANCH  31  34
ENDBRANCH  19  23
ENDBRANCH  13  16
ENDBRANCH   8  12
ENDBRANCH   3   6
ENDBRANCH   1   2
BRANCH   1  49
ATOM     49  C28 UNL     1      25.626   4.762   5.404+99.99 +0.00    +0.065 C 
BRANCH  49  50
ATOM     50  C29 UNL     1      25.288   4.704   3.917+92.41 +0.00    +0.125 C 
BRANCH  50  51
ATOM     51  N11 UNL     1      24.187   3.838   3.516+13.03 -0.00    -0.356 N 
ATOM     52  C30 UNL     1      23.022   3.638   4.223+25.34 +0.00    +0.268 C 
ATOM     53  O5  UNL     1      22.887   4.002   5.389+99.99 -0.00    -0.266 OA
ATOM     54  H50 UNL     1      24.164   3.602   2.533 +0.23 +0.00    +0.162 HD
BRANCH  52  55
ATOM     55  C31 UNL     1      21.976   2.944   3.488 +0.78 +0.00    +0.104 A 
ATOM     56  C32 UNL     1      20.979   3.459   2.664+83.22 +0.00    +0.066 A 
ATOM     57  C33 UNL     1      20.197   2.392   2.167+11.09 +0.00    +0.053 A 
ATOM     58  C34 UNL     1      20.730   1.236   2.685+99.99 +0.00    +0.120 A 
ATOM     59  N12 UNL     1      21.801   1.572   3.474 +3.79 -0.00    -0.354 N 
ATOM     60  C35 UNL     1      22.598   0.609   4.205+99.99 +0.00    +0.156 C 
BRANCH  57  61
ATOM     61  N13 UNL     1      19.101   2.397   1.325+23.73 -0.00    -0.320 N 
ATOM     62  C36 UNL     1      19.094   1.945   0.018+16.19 +0.00    +0.273 C 
ATOM     63  O6  UNL     1      20.077   1.474  -0.549 +9.49 -0.00    -0.266 OA
ATOM     64  H51 UNL     1      18.243   2.752   1.719 -0.05 +0.00    +0.169 HD
BRANCH  62  65
ATOM     65  C37 UNL     1      17.799   2.065  -0.652+48.82 +0.00    +0.105 A 
ATOM     66  C38 UNL     1      16.579   1.457  -0.363+79.12 +0.00    +0.066 A 
ATOM     67  C39 UNL     1      15.614   1.891  -1.300+13.14 +0.00    +0.053 A 
ATOM     68  C40 UNL     1      16.248   2.765  -2.148+73.25 +0.00    +0.120 A 
ATOM     69  N14 UNL     1      17.559   2.871  -1.755+99.99 -0.00    -0.354 N 
ATOM     70  C41 UNL     1      18.532   3.708  -2.427+99.99 +0.00    +0.156 C 
BRANCH  67  71
ATOM     71  N15 UNL     1      14.282   1.566  -1.421+28.58 -0.00    -0.319 N 
ATOM     72  C42 UNL     1      13.548   0.792  -0.542 +2.66 +0.00    +0.290 C 
ATOM     73  O7  UNL     1      13.980   0.272   0.484 +0.43 -0.00    -0.264 OA
ATOM     74  H52 UNL     1      13.768   1.917  -2.227 +6.39 +0.00    +0.169 HD
BRANCH  72  75
ATOM     75  C43 UNL     1      12.167   0.658  -0.984 -0.26 +0.00    +0.178 A 
ATOM     76  N16 UNL     1      11.149   1.151  -0.294 -0.15 -0.00    -0.323 N 
ATOM     77  C44 UNL     1      10.027   0.840  -1.000 -0.20 +0.00    +0.125 A 
ATOM     78  H16 UNL     1      11.197   1.662   0.588 -0.39 +0.00    +0.169 HD
ATOM     79  C45 UNL     1      10.345   0.146  -2.141 -0.23 +0.00    +0.140 A 
ATOM     80  N17 UNL     1      11.709   0.036  -2.121 -0.25 -0.00    -0.339 N 
ATOM     81  C46 UNL     1      12.517  -0.621  -3.120 +0.72 +0.00    +0.157 C 
BRANCH  77  82
ATOM     82  N18 UNL     1       8.760   1.178  -0.616 -0.05 -0.00    -0.305 N 
ATOM     83  C47 UNL     1       7.608   0.877  -1.309 -0.07 +0.00    +0.291 C 
ATOM     84  O8  UNL     1       7.533   0.265  -2.371 -0.13 -0.00    -0.264 OA
ATOM     85  H53 UNL     1       8.634   1.693   0.248 +0.08 +0.00    +0.170 HD
BRANCH  83  86
ATOM     86  C48 UNL     1       6.433   1.390  -0.610 -0.09 +0.00    +0.176 A 
ATOM     87  N19 UNL     1       6.414   1.609   0.700 -0.06 -0.00    -0.346 N 
ATOM     88  C49 UNL     1       5.159   2.081   0.981 -0.11 +0.00    +0.107 A 
ATOM     89  H19 UNL     1       7.177   1.458   1.361 +0.06 +0.00    +0.167 HD
ATOM     90  C50 UNL     1       4.398   2.154  -0.161 -0.08 +0.00    +0.109 A 
ATOM     91  N20 UNL     1       5.216   1.713  -1.164 -0.03 -0.00    -0.342 N 
ATOM     92  C51 UNL     1       4.857   1.609  -2.558 -0.06 +0.00    +0.157 C 
ENDBRANCH  83  86
ENDBRANCH  77  82
ENDBRANCH  72  75
ENDBRANCH  67  71
ENDBRANCH  62  65
ENDBRANCH  57  61
ENDBRANCH  52  55
ENDBRANCH  50  51
ENDBRANCH  49  50
ENDBRANCH   1  49
BRANCH   1  93
ATOM     93  N21 UNL     1      27.001   6.640   6.241 +3.30 +0.00    +0.092 N 
ATOM     94  H54 UNL     1      27.600   5.809   6.206 -0.23 +0.00    +0.313 HD
ATOM     95  H55 UNL     1      27.306   7.166   5.418 +1.49 +0.00    +0.313 HD
ENDBRANCH   1  93
TORSDOF 19
TER
