USER    Run = 1
USER    DPF = ligand_414_receptor.dpf
USER  
USER    Estimated Free Energy of Binding    =  +3.94e+005 kcal/mol  [=(1)+(2)+(3)-(4)]
USER    
USER    (1) Final Intermolecular Energy     =  +3.94e+005 kcal/mol
USER        vdW + Hbond + desolv Energy     =  +3.94e+005 kcal/mol
USER        Electrostatic Energy            =   +0.00 kcal/mol
USER    (2) Final Total Internal Energy     =   +0.00 kcal/mol
USER    (3) Torsional Free Energy           =   +1.19 kcal/mol
USER    (4) Unbound System's Energy  [=(2)] =   +0.00 kcal/mol
USER    
USER    
USER    NEWDPF move ligand_414.pdbqt
USER    NEWDPF about 0.000000 0.000000 0.000000
USER    NEWDPF tran0 13.393524 6.522362 1.553593
USER    NEWDPF quaternion0 -0.058840 -0.406683 0.820141 -0.398140
USER    NEWDPF axisangle0 -0.064143 -0.443336 0.894058 -133.076110
USER    NEWDPF quat0 -0.064143 -0.443336 0.894058 -133.076110
USER  keepresnum = 1 
USER  
REMARK  0 active torsions:
REMARK  status: ('A' for Active; 'I' for Inactive)
REMARK       I    between atoms: C4_4  and  C5_5 
REMARK       I    between atoms: C5_5  and  N3_72 
REMARK       I    between atoms: C6_6  and  N3_72 
REMARK       I    between atoms: C8_8  and  C10_10 
REMARK       I    between atoms: C10_10  and  N5_74 
REMARK       I    between atoms: C11_11  and  N5_74 
REMARK       I    between atoms: C13_13  and  C15_15 
REMARK       I    between atoms: C15_15  and  N7_76 
REMARK       I    between atoms: C16_16  and  C17_17 
REMARK       I    between atoms: C16_16  and  N7_76 
REMARK       I    between atoms: C17_17  and  C18_18 
REMARK       I    between atoms: C18_18  and  C19_19 
REMARK       I    between atoms: C19_19  and  N8_77 
REMARK       I    between atoms: C20_20  and  N8_77 
REMARK       I    between atoms: C22_22  and  C23_23 
REMARK       I    between atoms: C23_23  and  N11_81 
REMARK       I    between atoms: C24_24  and  N11_81 
REMARK       I    between atoms: C26_26  and  C28_28 
REMARK       I    between atoms: C28_28  and  N13_83 
REMARK       I    between atoms: C29_29  and  N13_83 
REMARK       I    between atoms: C31_31  and  C33_33 
REMARK       I    between atoms: C33_33  and  N15_85 
REMARK       I    between atoms: C34_34  and  C35_35 
REMARK       I    between atoms: C34_34  and  N15_85 
REMARK       I    between atoms: C35_35  and  C36_36 
REMARK       I    between atoms: C36_36  and  N16_86 
REMARK       I    between atoms: C37_37  and  N16_86 
REMARK       I    between atoms: C39_39  and  C41_41 
REMARK       I    between atoms: C41_41  and  N18_88 
REMARK       I    between atoms: C42_42  and  N18_88 
REMARK       I    between atoms: C44_44  and  C46_46 
REMARK       I    between atoms: C46_46  and  N20_90 
REMARK       I    between atoms: C47_47  and  N20_90 
REMARK       I    between atoms: C49_49  and  C51_51 
REMARK       I    between atoms: C51_51  and  N22_92 
REMARK       I    between atoms: C52_52  and  C53_53 
REMARK       I    between atoms: C52_52  and  N22_92 
REMARK       I    between atoms: C53_53  and  N23_93 
REMARK       I    between atoms: C54_54  and  C55_55 
REMARK       I    between atoms: C54_54  and  N23_93 
REMARK       I    between atoms: C55_55  and  C56_56 
REMARK       I    between atoms: C56_56  and  N24_94 
REMARK       I    between atoms: C58_58  and  C59_59 
REMARK       I    between atoms: C58_58  and  N24_94 
REMARK       I    between atoms: C59_59  and  C60_60 
REMARK       I    between atoms: C60_60  and  N25_95 
USER                              x       y       z     vdW  Elec       q    Type
USER                           _______ _______ _______ _____ _____    ______ ____
ROOT
ATOM      1  C1  UNL     1       2.385   9.696  -2.497 +0.97 +0.00    +0.157 C 
ATOM      2  C2  UNL     1       2.664   7.906  -4.220 +3.72 +0.00    +0.109 A 
ATOM      3  C3  UNL     1       3.471   6.797  -4.301+99.99 +0.00    +0.107 A 
ATOM      4  C4  UNL     1       3.943   7.724  -2.415+99.99 +0.00    +0.176 A 
ATOM      5  C5  UNL     1       4.566   7.967  -1.120+99.99 +0.00    +0.290 C 
ATOM      6  C6  UNL     1       6.346   7.007   0.277 -0.31 +0.00    +0.053 A 
ATOM      7  C7  UNL     1       7.269   6.013   0.500 -0.17 +0.00    +0.120 A 
ATOM      8  C8  UNL     1       7.364   7.403   2.271 -0.32 +0.00    +0.105 A 
ATOM      9  C9  UNL     1       6.425   7.894   1.373 -0.26 +0.00    +0.066 A 
ATOM     10  C10 UNL     1       7.737   7.989   3.548 +4.13 +0.00    +0.273 C 
ATOM     11  C11 UNL     1       8.089   7.348   5.891+99.99 +0.00    +0.053 A 
ATOM     12  C12 UNL     1       8.046   6.398   6.882+14.58 +0.00    +0.120 A 
ATOM     13  C13 UNL     1       8.705   8.331   7.862+99.99 +0.00    +0.104 A 
ATOM     14  C14 UNL     1       8.495   8.557   6.504+99.99 +0.00    +0.066 A 
ATOM     15  C15 UNL     1       9.159   9.236   8.907+99.99 +0.00    +0.268 C 
ATOM     16  C16 UNL     1      10.225  11.426   9.306+73.62 +0.00    +0.123 C 
ATOM     17  C17 UNL     1       9.538  12.748   9.640+99.99 +0.00    +0.029 C 
ATOM     18  C18 UNL     1       8.438  12.603  10.693+99.99 +0.00    +0.105 C 
ATOM     19  C19 UNL     1       7.072  12.903  10.107+99.99 +0.00    +0.223 C 
ATOM     20  C20 UNL     1       5.427  11.897   8.618+35.05 +0.00    +0.125 A 
ATOM     21  C21 UNL     1       4.505  12.898   8.456+11.92 +0.00    +0.140 A 
ATOM     22  C22 UNL     1       3.984  11.130   7.226 -0.05 +0.00    +0.178 A 
ATOM     23  C23 UNL     1       3.347  10.237   6.266 -0.15 +0.00    +0.290 C 
ATOM     24  C24 UNL     1       3.823   8.020   5.302 +7.48 +0.00    +0.053 A 
ATOM     25  C25 UNL     1       3.031   8.009   4.182 -0.07 +0.00    +0.120 A 
ATOM     26  C26 UNL     1       4.248   6.110   4.142 -0.13 +0.00    +0.105 A 
ATOM     27  C27 UNL     1       4.535   6.803   5.308 +2.98 +0.00    +0.066 A 
ATOM     28  C28 UNL     1       4.898   4.888   3.704 -0.09 +0.00    +0.273 C 
ATOM     29  C29 UNL     1       4.408   2.818   2.490 -0.10 +0.00    +0.053 A 
ATOM     30  C30 UNL     1       3.505   1.885   2.044 -0.10 +0.00    +0.120 A 
ATOM     31  C31 UNL     1       5.556   1.150   1.438 +0.00 +0.00    +0.104 A 
ATOM     32  C32 UNL     1       5.692   2.354   2.122 -0.16 +0.00    +0.066 A 
ATOM     33  C33 UNL     1       6.577   0.312   0.833 +8.00 +0.00    +0.268 C 
ATOM     34  C34 UNL     1       8.783   0.355  -0.257 -0.25 +0.00    +0.132 C 
ATOM     35  C35 UNL     1      10.159   0.980  -0.062 -0.30 +0.00    +0.123 C 
ATOM     36  C36 UNL     1      10.193   2.449  -0.446 +0.02 +0.00    +0.223 C 
ATOM     37  C37 UNL     1      11.832   4.266  -0.700 +2.07 +0.00    +0.052 A 
ATOM     38  C38 UNL     1      11.013   5.306  -1.059 -0.20 +0.00    +0.120 A 
ATOM     39  C39 UNL     1      13.108   6.149  -0.949 +0.27 +0.00    +0.105 A 
ATOM     40  C40 UNL     1      13.148   4.791  -0.641+59.46 +0.00    +0.066 A 
ATOM     41  C41 UNL     1      14.190   7.132  -1.015 +2.93 +0.00    +0.273 C 
ATOM     42  C42 UNL     1      16.648   7.259  -1.171 +2.45 +0.00    +0.053 A 
ATOM     43  C43 UNL     1      16.855   8.613  -1.112 -0.18 +0.00    +0.120 A 
ATOM     44  C44 UNL     1      18.895   7.659  -1.331+99.99 +0.00    +0.105 A 
ATOM     45  C45 UNL     1      17.926   6.660  -1.309+99.99 +0.00    +0.066 A 
ATOM     46  C46 UNL     1      20.348   7.559  -1.464+34.66 +0.00    +0.273 C 
ATOM     47  C47 UNL     1      22.170   5.911  -1.252+10.42 +0.00    +0.053 A 
ATOM     48  C48 UNL     1      23.255   6.643  -1.665 -0.21 +0.00    +0.120 A 
ATOM     49  C49 UNL     1      24.035   4.606  -1.089 +1.44 +0.00    +0.104 A 
ATOM     50  C50 UNL     1      22.657   4.627  -0.913+99.99 +0.00    +0.066 A 
ATOM     51  C51 UNL     1      24.905   3.477  -0.828 +0.45 +0.00    +0.268 C 
ATOM     52  C52 UNL     1      27.092   2.772   0.034+99.99 +0.00    +0.225 C 
ATOM     53  C53 UNL     1      28.448   3.412   0.329 -0.21 +0.00    +0.235 C 
ATOM     54  C54 UNL     1      30.834   2.915   0.784 -0.25 +0.00    +0.124 C 
ATOM     55  C55 UNL     1      31.692   3.012  -0.478 -0.13 +0.00    +0.050 C 
ATOM     56  C56 UNL     1      31.309   4.209  -1.359 +0.00 +0.00    +0.273 C 
ATOM     57  C57 UNL     1      32.156   3.378  -3.493 +0.01 +0.00    +0.309 C 
ATOM     58  C58 UNL     1      32.146   5.771  -3.042 +0.00 +0.00    +0.273 C 
ATOM     59  C59 UNL     1      30.789   6.144  -3.659 -0.12 +0.00    +0.060 C 
ATOM     60  C60 UNL     1      30.780   7.545  -4.277 -0.16 +0.00    +0.268 C 
ATOM     61  C61 UNL     1      25.665   6.257  -2.108 -0.13 +0.00    +0.156 C 
ATOM     62  C62 UNL     1      18.785  10.180  -1.211+53.56 +0.00    +0.156 C 
ATOM     63  C63 UNL     1      11.226   7.745  -1.497 +1.06 +0.00    +0.156 C 
ATOM     64  C64 UNL     1       3.584  -0.306   0.856+15.31 +0.00    +0.156 C 
ATOM     65  C65 UNL     1       2.835   6.650   2.114+26.50 +0.00    +0.156 C 
ATOM     66  C66 UNL     1       2.445  13.110   7.056 -0.23 +0.00    +0.157 C 
ATOM     67  C67 UNL     1       8.468   6.288   9.329+10.96 +0.00    +0.156 C 
ATOM     68  C68 UNL     1       9.007   5.493   2.205 -0.15 +0.00    +0.156 C 
ATOM     69  N1  UNL     1       2.973   8.487  -3.021 +0.43 -0.00    -0.342 N 
ATOM     70  N2  UNL     1       4.258   6.688  -3.184+99.99 -0.00    -0.346 N 
ATOM     71  H2  UNL     1       4.945   5.960  -2.984+99.99 +0.00    +0.167 HD
ATOM     72  N3  UNL     1       5.549   7.039  -0.846 +2.72 -0.00    -0.319 N 
ATOM     73  N4  UNL     1       7.899   6.270   1.692 -0.06 -0.00    -0.354 N 
ATOM     74  N5  UNL     1       7.768   7.068   4.577 +3.00 -0.00    -0.320 N 
ATOM     75  N6  UNL     1       8.408   6.992   8.064 +5.40 -0.00    -0.354 N 
ATOM     76  N7  UNL     1       9.396  10.538   8.512+99.99 -0.00    -0.356 N 
ATOM     77  N8  UNL     1       6.581  11.867   9.350+61.10 -0.00    -0.312 N 
ATOM     78  N9  UNL     1       3.594  12.403   7.565 -0.16 -0.00    -0.339 N 
ATOM     79  N10 UNL     1       5.090  10.797   7.885 +2.09 -0.00    -0.323 N 
ATOM     80  H10 UNL     1       5.583   9.904   7.850 +0.11 +0.00    +0.169 HD
ATOM     81  N11 UNL     1       3.983   9.013   6.238 +3.21 -0.00    -0.319 N 
ATOM     82  N12 UNL     1       3.328   6.880   3.456 -0.09 -0.00    -0.354 N 
ATOM     83  N13 UNL     1       4.032   3.976   3.138 -0.03 -0.00    -0.320 N 
ATOM     84  N14 UNL     1       4.202   0.867   1.440 -0.07 -0.00    -0.354 N 
ATOM     85  N15 UNL     1       7.775   0.954   0.597 -0.09 -0.00    -0.355 N 
ATOM     86  N16 UNL     1      11.484   2.954  -0.436 +2.27 -0.00    -0.326 N 
ATOM     87  N17 UNL     1      11.773   6.443  -1.173 -0.21 -0.00    -0.354 N 
ATOM     88  N18 UNL     1      15.451   6.569  -1.111+18.02 -0.00    -0.320 N 
ATOM     89  N19 UNL     1      18.201   8.852  -1.226 +0.97 -0.00    -0.354 N 
ATOM     90  N20 UNL     1      20.846   6.300  -1.178+28.61 -0.00    -0.320 N 
ATOM     91  N21 UNL     1      24.372   5.844  -1.604 -0.25 -0.00    -0.354 N 
ATOM     92  N22 UNL     1      26.159   3.799  -0.378 +0.77 -0.00    -0.347 N 
ATOM     93  N23 UNL     1      29.471   2.506   0.507 -0.20 -0.00    -0.360 N 
ATOM     94  N24 UNL     1      32.257   4.416  -2.467 -0.01 +0.00    +0.084 N 
ATOM     95  N25 UNL     1      30.891   8.616  -3.292 -0.24 +0.00    +0.078 N 
ATOM     96  O1  UNL     1       4.222   8.880  -0.375+99.99 -0.00    -0.264 OA
ATOM     97  O2  UNL     1       7.972   9.188   3.668 +9.38 -0.00    -0.266 OA
ATOM     98  O3  UNL     1       9.325   8.889  10.074+99.99 -0.00    -0.266 OA
ATOM     99  O4  UNL     1       6.528  13.986  10.304+99.99 -0.00    -0.273 OA
ATOM    100  O5  UNL     1       2.375  10.560   5.589 -0.17 -0.00    -0.264 OA
ATOM    101  O6  UNL     1       6.099   4.704   3.893 -0.10 -0.00    -0.266 OA
ATOM    102  O7  UNL     1       6.394  -0.860   0.516+99.99 -0.00    -0.266 OA
ATOM    103  O8  UNL     1       9.166   3.080  -0.680 -0.09 -0.00    -0.273 OA
ATOM    104  O9  UNL     1      13.967   8.339  -1.001+99.99 -0.00    -0.266 OA
ATOM    105  O10 UNL     1      21.037   8.524  -1.781+13.16 -0.00    -0.266 OA
ATOM    106  O11 UNL     1      24.542   2.310  -0.942 +4.20 -0.00    -0.266 OA
ATOM    107  O12 UNL     1      28.596   4.631   0.413 -0.23 -0.00    -0.272 OA
ATOM    108  H72 UNL     1       5.682   6.317  -1.549+14.10 +0.00    +0.169 HD
ATOM    109  H73 UNL     1       7.396   6.138   4.384 +0.08 +0.00    +0.169 HD
ATOM    110  H74 UNL     1       9.319  10.751   7.526+29.27 +0.00    +0.162 HD
ATOM    111  H75 UNL     1       7.113  11.011   9.259+19.61 +0.00    +0.170 HD
ATOM    112  H76 UNL     1       4.751   8.911   6.896 +0.16 +0.00    +0.169 HD
ATOM    113  H77 UNL     1       3.040   4.133   3.246 +0.04 +0.00    +0.169 HD
ATOM    114  H78 UNL     1       7.719   1.968   0.552 +0.07 +0.00    +0.162 HD
ATOM    115  H79 UNL     1      12.243   2.334  -0.189 -0.37 +0.00    +0.169 HD
ATOM    116  H80 UNL     1      15.517   5.567  -1.199+99.99 +0.00    +0.169 HD
ATOM    117  H81 UNL     1      20.205   5.598  -0.841+18.34 +0.00    +0.169 HD
ATOM    118  H82 UNL     1      26.336   4.733  -0.031 +0.10 +0.00    +0.163 HD
ATOM    119  H83 UNL     1      29.286   1.518   0.376 +0.02 +0.00    +0.162 HD
ATOM    120  H84 UNL     1      30.195   8.488  -2.558 +0.13 +0.00    +0.312 HD
ATOM    121  H85 UNL     1      31.797   8.581  -2.830 +0.10 +0.00    +0.312 HD
ENDROOT
TORSDOF 34
TER
