USER    Run = 1
USER    DPF = ligand_432_receptor.dpf
USER  
USER    Estimated Free Energy of Binding    =  -11.28 kcal/mol  [=(1)+(2)+(3)-(4)]
USER    Estimated Inhibition Constant, Ki   =    5.36 nM (nanomolar)  [Temperature = 298.15 K]
USER    
USER    (1) Final Intermolecular Energy     =  -12.48 kcal/mol
USER        vdW + Hbond + desolv Energy     =  -12.48 kcal/mol
USER        Electrostatic Energy            =   +0.00 kcal/mol
USER    (2) Final Total Internal Energy     =   -1.65 kcal/mol
USER    (3) Torsional Free Energy           =   +1.19 kcal/mol
USER    (4) Unbound System's Energy  [=(2)] =   -1.65 kcal/mol
USER    
USER    
USER    NEWDPF move ligand_432.pdbqt
USER    NEWDPF about 0.000000 0.000000 0.000000
USER    NEWDPF tran0 16.275866 8.711818 1.457294
USER    NEWDPF quaternion0 0.667200 -0.010820 -0.164940 -0.726307
USER    NEWDPF axisangle0 0.970656 -0.015742 -0.239958 -86.844562
USER    NEWDPF quat0 0.970656 -0.015742 -0.239958 -86.844562
USER    NEWDPF dihe0 -149.66 104.92 -92.50 -177.23 16.53 12.24 33.27 106.43 -167.84 94.95 -128.97 23.10 -13.12 
USER  keepresnum = 1 
USER  
REMARK  13 active torsions:
REMARK  status: ('A' for Active; 'I' for Inactive)
REMARK    1  A    between atoms: C2_2  and  O1_36 
REMARK    2  A    between atoms: C3_3  and  C4_4 
REMARK    3  A    between atoms: C3_3  and  O1_36 
REMARK    4  A    between atoms: C4_4  and  O2_37 
REMARK    5  A    between atoms: C5_5  and  O2_37 
REMARK    6  A    between atoms: C6_6  and  O4_39 
REMARK       I    between atoms: C13_13  and  N1_42 
REMARK       I    between atoms: C13_13  and  N2_43 
REMARK    7  A    between atoms: C15_15  and  O4_39 
REMARK    8  A    between atoms: C17_17  and  N4_46 
REMARK    9  A    between atoms: C20_20  and  C21_21 
REMARK       I    between atoms: C20_20  and  N4_46 
REMARK   10  A    between atoms: C24_24  and  C27_27 
REMARK   11  A    between atoms: C32_32  and  C33_33 
REMARK   12  A    between atoms: C32_32  and  N5_47 
REMARK   13  A    between atoms: C33_33  and  O6_41 
USER                              x       y       z     vdW  Elec       q    Type
USER                           _______ _______ _______ _____ _____    ______ ____
ROOT
ATOM      1  C15 UNL     1      11.424   7.874   4.712 -0.35 +0.00    +0.081 A 
ATOM      2  C16 UNL     1      12.658   8.137   4.117 -0.35 +0.00    +0.085 A 
ATOM      3  C17 UNL     1      13.794   8.061   4.905 -0.36 +0.00    +0.110 A 
ATOM      4  C18 UNL     1      12.540   7.526   6.772 -0.36 +0.00    +0.092 A 
ATOM      5  C19 UNL     1      11.356   7.581   6.066 -0.36 +0.00    +0.054 A 
ATOM      6  N3  UNL     1      13.753   7.752   6.221 -0.08 -0.00    -0.352 N 
ATOM      7  H3  UNL     1      14.606   7.692   6.778 +0.32 +0.00    +0.166 HD
ENDROOT
BRANCH   3   8
ATOM      8  N4  UNL     1      15.088   8.316   4.450 -0.25 -0.00    -0.309 N 
ATOM      9  C20 UNL     1      15.542   8.380   3.155 -0.35 +0.00    +0.257 C 
ATOM     10  O5  UNL     1      14.894   8.151   2.140 -0.02 -0.00    -0.267 OA
ATOM     11  H43 UNL     1      15.737   8.412   5.217 +0.18 +0.00    +0.170 HD
BRANCH   9  12
ATOM     12  C21 UNL     1      16.980   8.743   3.011 -0.52 +0.00    +0.032 A 
ATOM     13  C22 UNL     1      17.306   9.919   2.327 -0.46 +0.00    +0.017 A 
ATOM     14  C23 UNL     1      18.643  10.296   2.175 -0.45 +0.00    +0.008 A 
ATOM     15  C24 UNL     1      19.674   9.512   2.712 -0.31 -0.00    -0.054 A 
ATOM     16  C25 UNL     1      19.335   8.344   3.413 -0.11 +0.00    +0.008 A 
ATOM     17  C26 UNL     1      17.999   7.961   3.565 -0.53 +0.00    +0.017 A 
BRANCH  15  18
ATOM     18  C27 UNL     1      21.134   9.906   2.563 -0.48 +0.00    +0.022 C 
ATOM     19  C28 UNL     1      21.887   9.867   3.899 +0.21 +0.00    +0.039 C 
ATOM     20  C29 UNL     1      23.358  10.237   3.705 -0.33 +0.00    +0.273 C 
ATOM     21  N5  UNL     1      24.003   9.342   2.730 -0.44 +0.00    +0.091 N 
ATOM     22  C30 UNL     1      23.337   9.438   1.423 -0.27 +0.00    +0.273 C 
ATOM     23  C31 UNL     1      21.862   9.045   1.523 -0.17 +0.00    +0.039 C 
BRANCH  21  24
ATOM     24  C32 UNL     1      25.446   9.628   2.614 -0.39 +0.00    +0.309 C 
BRANCH  24  25
ATOM     25  C33 UNL     1      26.361   8.369   2.609 -0.58 +0.00    +0.077 C 
ATOM     26  C34 UNL     1      26.319   7.646   1.258 -0.45 +0.00    +0.047 C 
ATOM     27  C35 UNL     1      26.028   7.390   3.734 -0.39 +0.00    +0.047 C 
BRANCH  25  28
ATOM     28  O6  UNL     1      27.714   8.801   2.833 -0.20 -0.00    -0.389 OA
ATOM     29  H41 UNL     1      28.149   8.134   3.393 -0.41 +0.00    +0.210 HD
ENDBRANCH  25  28
ENDBRANCH  24  25
ENDBRANCH  21  24
ENDBRANCH  15  18
ENDBRANCH   9  12
ENDBRANCH   3   8
BRANCH   1  30
ATOM     30  O4  UNL     1      10.219   7.952   4.046 -0.30 -0.00    -0.308 OA
BRANCH  30  31
ATOM     31  C6  UNL     1      10.044   7.090   2.984 -0.29 +0.00    +0.110 A 
ATOM     32  C5  UNL     1       8.998   6.166   3.015 -0.20 +0.00    +0.104 A 
ATOM     33  C12 UNL     1       8.849   5.248   1.968 -0.14 +0.00    +0.070 A 
ATOM     34  C11 UNL     1       9.752   5.291   0.882 -0.11 +0.00    +0.056 A 
ATOM     35  C8  UNL     1      10.802   6.217   0.854 -0.31 -0.00    -0.005 A 
ATOM     36  N1  UNL     1       9.836   4.504  -0.279 -0.07 -0.00    -0.274 N 
ATOM     37  C7  UNL     1      10.957   7.121   1.923 -0.23 +0.00    +0.054 A 
ATOM     38  C9  UNL     1      11.522   6.008  -0.344 -0.37 +0.00    +0.031 A 
ATOM     39  C10 UNL     1      10.911   4.983  -1.022 -0.18 +0.00    +0.103 A 
ATOM     40  C13 UNL     1       8.961   3.438  -0.625 -0.03 +0.00    +0.326 C 
ATOM     41  O3  UNL     1       7.936   3.232   0.012 -0.06 -0.00    -0.246 OA
ATOM     42  N2  UNL     1       9.405   2.687  -1.695 -0.04 -0.00    -0.347 N 
ATOM     43  C14 UNL     1       8.670   1.514  -2.097 -0.11 +0.00    +0.151 C 
ATOM     44  H42 UNL     1      10.375   2.734  -1.969 +0.08 +0.00    +0.163 HD
BRANCH  32  45
ATOM     45  O2  UNL     1       8.176   6.207   4.113 -0.11 -0.00    -0.346 OA
BRANCH  45  46
ATOM     46  C4  UNL     1       8.388   5.178   5.084 -0.21 +0.00    +0.201 C 
BRANCH  46  47
ATOM     47  C3  UNL     1       7.064   4.875   5.792 -0.28 +0.00    +0.194 C 
BRANCH  47  48
ATOM     48  O1  UNL     1       7.044   5.217   7.182 -0.26 -0.00    -0.389 OA
BRANCH  48  49
ATOM     49  C2  UNL     1       8.332   5.236   7.790 -0.41 +0.00    +0.163 C 
ATOM     50  C1  UNL     1       8.687   3.818   8.194 -0.61 +0.00    +0.033 C 
ENDBRANCH  48  49
ENDBRANCH  47  48
ENDBRANCH  46  47
ENDBRANCH  45  46
ENDBRANCH  32  45
ENDBRANCH  30  31
ENDBRANCH   1  30
TORSDOF 13
TER
