USER    Run = 1
USER    DPF = ligand_333_receptor.dpf
USER  
USER    Estimated Free Energy of Binding    =  +5.75e+003 kcal/mol  [=(1)+(2)+(3)-(4)]
USER    
USER    (1) Final Intermolecular Energy     =  +5.74e+003 kcal/mol
USER        vdW + Hbond + desolv Energy     =  +5.74e+003 kcal/mol
USER        Electrostatic Energy            =   +0.00 kcal/mol
USER    (2) Final Total Internal Energy     =   +0.00 kcal/mol
USER    (3) Torsional Free Energy           =   +1.19 kcal/mol
USER    (4) Unbound System's Energy  [=(2)] =   +0.00 kcal/mol
USER    
USER    
USER    NEWDPF move ligand_333.pdbqt
USER    NEWDPF about 0.000000 0.000000 0.000000
USER    NEWDPF tran0 17.519297 7.202225 3.155427
USER    NEWDPF quaternion0 -0.110557 0.453699 -0.852155 0.236150
USER    NEWDPF axisangle0 -0.113775 0.466905 -0.876958 152.681207
USER    NEWDPF quat0 -0.113775 0.466905 -0.876958 152.681207
USER  keepresnum = 1 
USER  
REMARK  0 active torsions:
REMARK  status: ('A' for Active; 'I' for Inactive)
REMARK       I    between atoms: C2_2  and  C3_3 
REMARK       I    between atoms: C3_3  and  C5_5 
REMARK       I    between atoms: C5_5  and  C6_6 
REMARK       I    between atoms: C5_5  and  N7_73 
REMARK       I    between atoms: C6_6  and  N1_66 
REMARK       I    between atoms: C7_7  and  C8_8 
REMARK       I    between atoms: C7_7  and  C9_9 
REMARK       I    between atoms: C7_7  and  N1_66 
REMARK       I    between atoms: C8_8  and  S1_85 
REMARK       I    between atoms: C9_9  and  N2_67 
REMARK       I    between atoms: C10_10  and  C11_11 
REMARK       I    between atoms: C10_10  and  C18_18 
REMARK       I    between atoms: C10_10  and  N2_67 
REMARK       I    between atoms: C11_11  and  C12_12 
REMARK       I    between atoms: C18_18  and  N3_68 
REMARK       I    between atoms: C19_19  and  C20_20 
REMARK       I    between atoms: C19_19  and  C24_24 
REMARK       I    between atoms: C19_19  and  N3_68 
REMARK       I    between atoms: C20_20  and  C21_21 
REMARK       I    between atoms: C21_21  and  C22_22 
REMARK       I    between atoms: C22_22  and  N4_69 
REMARK       I    between atoms: C23_23  and  N5_71 
REMARK       I    between atoms: C23_23  and  N6_72 
REMARK       I    between atoms: C25_25  and  C26_26 
REMARK       I    between atoms: C25_25  and  N7_73 
REMARK       I    between atoms: C26_26  and  C27_27 
REMARK       I    between atoms: C26_26  and  N11_78 
REMARK       I    between atoms: C27_27  and  C28_28 
REMARK       I    between atoms: C28_28  and  C29_29 
REMARK       I    between atoms: C29_29  and  N8_74 
REMARK       I    between atoms: C30_30  and  N9_76 
REMARK       I    between atoms: C30_30  and  N10_77 
REMARK       I    between atoms: C31_31  and  C32_32 
REMARK       I    between atoms: C31_31  and  N11_78 
REMARK       I    between atoms: C32_32  and  N12_79 
REMARK       I    between atoms: C33_33  and  C34_34 
REMARK       I    between atoms: C33_33  and  N12_79 
REMARK       I    between atoms: C34_34  and  N13_80 
REMARK       I    between atoms: C35_35  and  C36_36 
REMARK       I    between atoms: C35_35  and  N13_80 
REMARK       I    between atoms: C36_36  and  C37_37 
REMARK       I    between atoms: C36_36  and  N14_81 
REMARK       I    between atoms: C37_37  and  C38_38 
REMARK       I    between atoms: C44_44  and  C45_45 
REMARK       I    between atoms: C44_44  and  N14_81 
REMARK       I    between atoms: C45_45  and  C46_46 
REMARK       I    between atoms: C45_45  and  N15_82 
REMARK       I    between atoms: C46_46  and  S2_86 
REMARK       I    between atoms: C47_47  and  C48_48 
REMARK       I    between atoms: C47_47  and  N15_82 
REMARK       I    between atoms: C48_48  and  C49_49 
REMARK       I    between atoms: C48_48  and  N16_83 
REMARK       I    between atoms: C49_49  and  O11_63 
REMARK       I    between atoms: C50_50  and  C51_51 
REMARK       I    between atoms: C50_50  and  N16_83 
REMARK       I    between atoms: C51_51  and  C52_52 
REMARK       I    between atoms: C51_51  and  N17_84 
REMARK       I    between atoms: C52_52  and  O13_65 
USER                              x       y       z     vdW  Elec       q    Type
USER                           _______ _______ _______ _____ _____    ______ ____
ROOT
ATOM      1  C1  UNL     1      18.297   8.967  -3.735+37.97 +0.00    +0.005 C 
ATOM      2  C2  UNL     1      17.704   9.788  -2.597+16.61 +0.00    +0.002 C 
ATOM      3  C3  UNL     1      17.215   8.936  -1.403 -0.10 +0.00    +0.013 C 
ATOM      4  C4  UNL     1      16.071   8.006  -1.837+29.24 +0.00    +0.012 C 
ATOM      5  C5  UNL     1      16.746   9.838  -0.233 +0.25 +0.00    +0.180 C 
ATOM      6  C6  UNL     1      16.315   9.050   1.023 -0.37 +0.00    +0.241 C 
ATOM      7  C7  UNL     1      17.003   7.452   2.768 -0.29 +0.00    +0.185 C 
ATOM      8  C8  UNL     1      16.469   6.115   2.224+99.99 +0.00    +0.105 C 
ATOM      9  C9  UNL     1      18.128   7.186   3.788 +2.20 +0.00    +0.241 C 
ATOM     10  C10 UNL     1      20.552   7.319   4.283+99.99 +0.00    +0.180 C 
ATOM     11  C11 UNL     1      20.747   5.896   4.868+99.99 +0.00    +0.073 C 
ATOM     12  C12 UNL     1      20.583   4.729   3.915+15.05 -0.00    -0.056 A 
ATOM     13  C13 UNL     1      19.481   3.870   4.049+19.20 +0.00    +0.007 A 
ATOM     14  C14 UNL     1      19.305   2.792   3.179+19.28 +0.00    +0.001 A 
ATOM     15  C15 UNL     1      20.224   2.565   2.158+11.38 +0.00    +0.000 A 
ATOM     16  C16 UNL     1      21.329   3.401   2.022+67.32 +0.00    +0.001 A 
ATOM     17  C17 UNL     1      21.519   4.463   2.909+77.31 +0.00    +0.007 A 
ATOM     18  C18 UNL     1      21.869   7.757   3.610+22.95 +0.00    +0.241 C 
ATOM     19  C19 UNL     1      23.106   7.672   1.463 -0.15 +0.00    +0.146 C 
ATOM     20  C20 UNL     1      22.849   7.064   0.080 -0.03 +0.00    +0.034 C 
ATOM     21  C21 UNL     1      24.088   6.721  -0.758 -0.58 +0.00    +0.022 C 
ATOM     22  C22 UNL     1      25.245   6.067  -0.004 -0.41 +0.00    +0.121 C 
ATOM     23  C23 UNL     1      25.597   4.298   1.496 +8.46 +0.00    +0.121 C 
ATOM     24  C24 UNL     1      23.686   9.082   1.408 -0.31 +0.00    +0.256 C 
ATOM     25  C25 UNL     1      19.007  10.642   0.523 -0.39 +0.00    +0.241 C 
ATOM     26  C26 UNL     1      19.710  11.884   1.123 -0.57 +0.00    +0.176 C 
ATOM     27  C27 UNL     1      21.219  11.716   1.327+13.18 +0.00    +0.036 C 
ATOM     28  C28 UNL     1      22.054  12.185   0.129+16.61 +0.00    +0.022 C 
ATOM     29  C29 UNL     1      21.848  11.373  -1.147+12.06 +0.00    +0.121 C 
ATOM     30  C30 UNL     1      23.741  11.579  -2.564+34.00 +0.00    +0.121 C 
ATOM     31  C31 UNL     1      18.993  11.388   3.455 +8.22 +0.00    +0.236 C 
ATOM     32  C32 UNL     1      18.030  11.843   4.557+99.99 +0.00    +0.225 C 
ATOM     33  C33 UNL     1      15.878  11.595   3.380 +7.07 +0.00    +0.235 C 
ATOM     34  C34 UNL     1      14.401  11.200   3.563+99.99 +0.00    +0.225 C 
ATOM     35  C35 UNL     1      14.126   9.930   5.676+35.73 +0.00    +0.241 C 
ATOM     36  C36 UNL     1      13.751   8.593   6.350 +0.75 +0.00    +0.180 C 
ATOM     37  C37 UNL     1      15.023   7.780   6.641+99.99 +0.00    +0.073 C 
ATOM     38  C38 UNL     1      14.774   6.596   7.549 +0.23 -0.00    -0.056 A 
ATOM     39  C39 UNL     1      14.487   6.784   8.908 -0.41 +0.00    +0.007 A 
ATOM     40  C40 UNL     1      14.269   5.686   9.743+78.60 +0.00    +0.001 A 
ATOM     41  C41 UNL     1      14.337   4.393   9.231+50.08 +0.00    +0.000 A 
ATOM     42  C42 UNL     1      14.621   4.196   7.881 +1.35 +0.00    +0.001 A 
ATOM     43  C43 UNL     1      14.840   5.291   7.045 +1.49 +0.00    +0.007 A 
ATOM     44  C44 UNL     1      12.850   7.118   4.523 -0.32 +0.00    +0.241 C 
ATOM     45  C45 UNL     1      11.646   6.255   4.098 -0.26 +0.00    +0.185 C 
ATOM     46  C46 UNL     1      10.761   7.112   3.185 -0.35 +0.00    +0.105 C 
ATOM     47  C47 UNL     1      11.272   4.585   5.895 -0.30 +0.00    +0.243 C 
ATOM     48  C48 UNL     1      10.412   4.183   7.103 -0.37 +0.00    +0.200 C 
ATOM     49  C49 UNL     1      10.558   5.187   8.255 -0.10 +0.00    +0.199 C 
ATOM     50  C50 UNL     1      10.081   2.121   8.457 +5.57 +0.00    +0.253 C 
ATOM     51  C51 UNL     1      10.600   0.686   8.678+49.97 +0.00    +0.332 C 
ATOM     52  C52 UNL     1       9.713  -0.059   9.686 +1.63 +0.00    +0.209 C 
ATOM     53  O1  UNL     1      15.140   9.020   1.391 +2.46 -0.00    -0.271 OA
ATOM     54  O2  UNL     1      17.888   6.640   4.864+98.23 -0.00    -0.271 OA
ATOM     55  O3  UNL     1      22.890   8.005   4.248+11.87 -0.00    -0.271 OA
ATOM     56  O4  UNL     1      24.406   9.513   0.507 +0.25 -0.00    -0.305 OA
ATOM     57  O5  UNL     1      19.554   9.553   0.361 +0.08 -0.00    -0.271 OA
ATOM     58  O6  UNL     1      19.613  10.329   3.503 +2.10 -0.00    -0.272 OA
ATOM     59  O7  UNL     1      16.263  12.286   2.434 -0.07 -0.00    -0.272 OA
ATOM     60  O8  UNL     1      14.534  10.887   6.340+99.99 -0.00    -0.271 OA
ATOM     61  O9  UNL     1      13.817   7.299   3.789 -0.36 -0.00    -0.271 OA
ATOM     62  O10 UNL     1      12.196   3.880   5.491 -0.34 -0.00    -0.271 OA
ATOM     63  O11 UNL     1       9.312   5.351   8.931 +0.09 -0.00    -0.398 OA
ATOM     64  O12 UNL     1       9.144   2.617   9.078 +0.41 -0.00    -0.271 OA
ATOM     65  O13 UNL     1       8.390  -0.235   9.182 +7.78 -0.00    -0.398 OA
ATOM     66  N1  UNL     1      17.323   8.393   1.697 -0.22 -0.00    -0.345 N 
ATOM     67  N2  UNL     1      19.407   7.499   3.374 +2.13 -0.00    -0.346 N 
ATOM     68  N3  UNL     1      21.860   7.712   2.230 +8.33 -0.00    -0.348 N 
ATOM     69  N4  UNL     1      24.760   4.905   0.740 -0.25 -0.00    -0.372 N 
ATOM     70  H4  UNL     1      23.792   4.591   0.660 +0.11 +0.00    +0.161 HD
ATOM     71  N5  UNL     1      25.208   3.237   2.235+99.99 -0.00    -0.279 NA
ATOM     72  N6  UNL     1      26.905   4.550   1.718+20.84 -0.00    -0.279 NA
ATOM     73  N7  UNL     1      17.682  10.878   0.201 -0.17 -0.00    -0.346 N 
ATOM     74  N8  UNL     1      22.584  12.008  -2.236+25.14 -0.00    -0.372 N 
ATOM     75  H8  UNL     1      22.172  12.796  -2.737 +7.46 +0.00    +0.161 HD
ATOM     76  N9  UNL     1      24.387  12.155  -3.602+99.99 -0.00    -0.279 NA
ATOM     77  N10 UNL     1      24.499  10.585  -2.057+86.10 -0.00    -0.279 NA
ATOM     78  N11 UNL     1      19.005  12.232   2.359 -0.29 -0.00    -0.346 N 
ATOM     79  N12 UNL     1      16.718  11.239   4.417 +2.50 -0.00    -0.351 N 
ATOM     80  N13 UNL     1      14.152   9.976   4.309+32.46 -0.00    -0.351 N 
ATOM     81  N14 UNL     1      12.680   7.825   5.694 -0.15 -0.00    -0.346 N 
ATOM     82  N15 UNL     1      10.918   5.770   5.283 -0.09 -0.00    -0.345 N 
ATOM     83  N16 UNL     1      10.785   2.827   7.506 -0.09 -0.00    -0.344 N 
ATOM     84  N17 UNL     1      12.005   0.747   9.144 +5.74 +0.00    +0.094 N 
ATOM     85  S1  UNL     1      17.536   5.362   0.939+99.99 -0.00    -0.180 SA
ATOM     86  S2  UNL     1       9.384   6.159   2.462 -0.28 -0.00    -0.180 SA
ATOM     87  H58 UNL     1       9.040   4.454   9.231 +0.17 +0.00    +0.209 HD
ATOM     88  H59 UNL     1       7.957   0.640   9.232 +0.17 +0.00    +0.209 HD
ATOM     89  H60 UNL     1      18.206   8.283   1.201 +0.18 +0.00    +0.163 HD
ATOM     90  H61 UNL     1      19.438   8.392   2.876 +0.11 +0.00    +0.163 HD
ATOM     91  H62 UNL     1      21.030   7.304   1.808+99.99 +0.00    +0.163 HD
ATOM     92  H63 UNL     1      25.533   3.297   3.194+99.99 +0.00    +0.126 HD
ATOM     93  H64 UNL     1      24.199   3.139   2.216 +2.70 +0.00    +0.126 HD
ATOM     94  H65 UNL     1      27.444   3.698   1.831 +5.25 +0.00    +0.126 HD
ATOM     95  H66 UNL     1      27.338   5.157   1.034 +0.08 +0.00    +0.126 HD
ATOM     96  H67 UNL     1      17.244  11.645   0.708 +0.14 +0.00    +0.163 HD
ATOM     97  H68 UNL     1      23.749  12.775  -4.091+99.99 +0.00    +0.126 HD
ATOM     98  H69 UNL     1      24.763  11.461  -4.237+33.15 +0.00    +0.126 HD
ATOM     99  H70 UNL     1      25.484  10.820  -2.052+99.99 +0.00    +0.126 HD
ATOM    100  H71 UNL     1      24.242  10.268  -1.119 +3.05 +0.00    +0.126 HD
ATOM    101  H72 UNL     1      18.168  12.806   2.265 +0.12 +0.00    +0.163 HD
ATOM    102  H73 UNL     1      16.232  11.030   5.287 +0.75 +0.00    +0.163 HD
ATOM    103  H74 UNL     1      14.134   9.099   3.782 +0.01 +0.00    +0.163 HD
ATOM    104  H75 UNL     1      12.011   7.411   6.330 +0.12 +0.00    +0.163 HD
ATOM    105  H76 UNL     1      10.101   6.281   5.604 +0.11 +0.00    +0.163 HD
ATOM    106  H77 UNL     1      11.445   2.341   6.904 +0.34 +0.00    +0.163 HD
ATOM    107  H78 UNL     1      12.035   1.212  10.052+14.56 +0.00    +0.314 HD
ATOM    108  H79 UNL     1      12.552   1.330   8.512 +1.62 +0.00    +0.314 HD
ATOM    109  H80 UNL     1      18.591   5.117   1.732+27.98 +0.00    +0.101 HD
ATOM    110  H81 UNL     1       8.907   5.654   3.608 +0.06 +0.00    +0.101 HD
ENDROOT
TORSDOF 44
TER
