USER    Run = 1
USER    DPF = ligand_258_receptor.dpf
USER  
USER    Estimated Free Energy of Binding    = +127.42 kcal/mol  [=(1)+(2)+(3)-(4)]
USER    
USER    (1) Final Intermolecular Energy     = +126.22 kcal/mol
USER        vdW + Hbond + desolv Energy     = +126.22 kcal/mol
USER        Electrostatic Energy            =   +0.00 kcal/mol
USER    (2) Final Total Internal Energy     =   +5.88 kcal/mol
USER    (3) Torsional Free Energy           =   +1.19 kcal/mol
USER    (4) Unbound System's Energy  [=(2)] =   +5.88 kcal/mol
USER    
USER    
USER    NEWDPF move ligand_258.pdbqt
USER    NEWDPF about 0.000000 0.000000 0.000000
USER    NEWDPF tran0 14.088050 11.484654 4.269893
USER    NEWDPF quaternion0 0.371576 0.876058 -0.182362 -0.247384
USER    NEWDPF axisangle0 0.383496 0.904161 -0.188212 -151.354499
USER    NEWDPF quat0 0.383496 0.904161 -0.188212 -151.354499
USER    NEWDPF dihe0 -98.46 -143.13 75.78 72.49 -171.76 -128.06 116.70 27.82 19.04 -171.94 84.34 94.92 90.02 176.94 72.73 -110.20 -133.62 -2.88 
USER  keepresnum = 1 
USER  
REMARK  18 active torsions:
REMARK  status: ('A' for Active; 'I' for Inactive)
REMARK    1  A    between atoms: C4_4  and  C5_5 
REMARK       I    between atoms: C5_5  and  N3_47 
REMARK    2  A    between atoms: C6_6  and  N3_47 
REMARK    3  A    between atoms: C8_8  and  C10_10 
REMARK       I    between atoms: C10_10  and  N5_49 
REMARK    4  A    between atoms: C11_11  and  N5_49 
REMARK    5  A    between atoms: C13_13  and  C15_15 
REMARK       I    between atoms: C15_15  and  N7_51 
REMARK    6  A    between atoms: C16_16  and  C17_17 
REMARK    7  A    between atoms: C16_16  and  N7_51 
REMARK    8  A    between atoms: C17_17  and  C18_18 
REMARK       I    between atoms: C18_18  and  N8_52 
REMARK    9  A    between atoms: C19_19  and  N8_52 
REMARK   10  A    between atoms: C21_21  and  C23_23 
REMARK       I    between atoms: C23_23  and  N10_54 
REMARK   11  A    between atoms: C24_24  and  N10_54 
REMARK   12  A    between atoms: C26_26  and  C28_28 
REMARK       I    between atoms: C28_28  and  N12_56 
REMARK   13  A    between atoms: C29_29  and  N12_56 
REMARK   14  A    between atoms: C32_32  and  C34_34 
REMARK       I    between atoms: C34_34  and  N14_58 
REMARK   15  A    between atoms: C35_35  and  C36_36 
REMARK   16  A    between atoms: C35_35  and  N14_58 
REMARK   17  A    between atoms: C36_36  and  C37_37 
REMARK   18  A    between atoms: C37_37  and  N15_59 
USER                              x       y       z     vdW  Elec       q    Type
USER                           _______ _______ _______ _____ _____    ______ ____
ROOT
ATOM      1  C19 UNL     1      10.139   8.171   2.850 +0.15 +0.00    +0.052 A 
ATOM      2  C20 UNL     1       9.781   8.231   4.172 -0.12 +0.00    +0.120 A 
ATOM      3  C21 UNL     1      12.039   8.108   4.126 -0.33 +0.00    +0.105 A 
ATOM      4  C22 UNL     1      11.555   8.088   2.820 +0.48 +0.00    +0.066 A 
ATOM      5  C41 UNL     1      10.909   8.252   6.383 -0.10 +0.00    +0.156 C 
ATOM      6  N9  UNL     1      10.918   8.203   4.935 -0.21 -0.00    -0.354 N 
ENDROOT
BRANCH   1   7
ATOM      7  N8  UNL     1       9.316   8.193   1.740 +0.90 -0.00    -0.326 N 
ATOM      8  C18 UNL     1       7.931   8.264   1.768 +1.73 +0.00    +0.223 C 
ATOM      9  O4  UNL     1       7.224   8.295   2.771 -0.11 -0.00    -0.273 OA
ATOM     10  H49 UNL     1       9.775   8.200   0.838 +0.15 +0.00    +0.169 HD
BRANCH   8  11
ATOM     11  C17 UNL     1       7.347   8.298   0.367 +0.25 +0.00    +0.123 C 
BRANCH  11  12
ATOM     12  C16 UNL     1       7.845   7.137  -0.489 -0.28 +0.00    +0.132 C 
BRANCH  12  13
ATOM     13  N7  UNL     1       9.275   6.926  -0.369 -0.12 -0.00    -0.355 N 
ATOM     14  C15 UNL     1      10.143   7.259  -1.385 -0.22 +0.00    +0.268 C 
ATOM     15  O3  UNL     1       9.752   7.809  -2.412 -0.31 -0.00    -0.266 OA
ATOM     16  H48 UNL     1       9.562   6.189   0.265 +0.09 +0.00    +0.162 HD
BRANCH  14  17
ATOM     17  C13 UNL     1      11.513   6.830  -1.190 -0.27 +0.00    +0.104 A 
ATOM     18  C14 UNL     1      12.617   7.666  -1.078 +9.71 +0.00    +0.066 A 
ATOM     19  C11 UNL     1      13.782   6.873  -0.940 +0.49 +0.00    +0.053 A 
ATOM     20  C12 UNL     1      13.364   5.566  -0.932+10.39 +0.00    +0.120 A 
ATOM     21  N6  UNL     1      11.993   5.545  -1.027 -0.14 -0.00    -0.354 N 
ATOM     22  C42 UNL     1      11.210   4.336  -0.872 +0.14 +0.00    +0.156 C 
BRANCH  19  23
ATOM     23  N5  UNL     1      15.067   7.369  -0.825 +0.17 -0.00    -0.320 N 
ATOM     24  C10 UNL     1      15.417   8.696  -0.645 +1.69 +0.00    +0.273 C 
ATOM     25  O2  UNL     1      14.608   9.613  -0.530 +5.38 -0.00    -0.266 OA
ATOM     26  H47 UNL     1      15.802   6.683  -0.897 +0.14 +0.00    +0.169 HD
BRANCH  24  27
ATOM     27  C8  UNL     1      16.861   8.935  -0.593 -0.30 +0.00    +0.105 A 
ATOM     28  C9  UNL     1      17.915   8.202  -1.133 +5.65 +0.00    +0.066 A 
ATOM     29  C6  UNL     1      19.135   8.844  -0.818 +8.53 +0.00    +0.053 A 
ATOM     30  C7  UNL     1      18.817   9.959  -0.083 -0.04 +0.00    +0.120 A 
ATOM     31  N4  UNL     1      17.452  10.015   0.046 -0.20 -0.00    -0.354 N 
ATOM     32  C43 UNL     1      16.756  11.075   0.747 -0.42 +0.00    +0.156 C 
BRANCH  29  33
ATOM     33  N3  UNL     1      20.429   8.504  -1.141 +4.94 -0.00    -0.319 N 
ATOM     34  C5  UNL     1      21.481   8.362  -0.258 +8.39 +0.00    +0.290 C 
ATOM     35  O1  UNL     1      21.423   8.553   0.954 +3.45 -0.00    -0.264 OA
ATOM     36  H46 UNL     1      20.648   8.307  -2.115 +0.62 +0.00    +0.169 HD
BRANCH  34  37
ATOM     37  C4  UNL     1      22.700   7.950  -0.943 +0.04 +0.00    +0.176 A 
ATOM     38  N1  UNL     1      23.260   6.693  -0.956 -0.29 -0.00    -0.342 N 
ATOM     39  C1  UNL     1      22.739   5.520  -0.296 +1.94 +0.00    +0.157 C 
ATOM     40  C2  UNL     1      24.392   6.741  -1.721 -0.45 +0.00    +0.109 A 
ATOM     41  C3  UNL     1      24.479   8.042  -2.154 +5.48 +0.00    +0.107 A 
ATOM     42  N2  UNL     1      23.434   8.785  -1.671 +3.30 -0.00    -0.346 N 
ATOM     43  H2  UNL     1      23.256   9.776  -1.836 +0.51 +0.00    +0.167 HD
ENDBRANCH  34  37
ENDBRANCH  29  33
ENDBRANCH  24  27
ENDBRANCH  19  23
ENDBRANCH  14  17
ENDBRANCH  12  13
ENDBRANCH  11  12
ENDBRANCH   8  11
ENDBRANCH   1   7
BRANCH   3  44
ATOM     44  C23 UNL     1      13.411   8.071   4.621 -0.30 +0.00    +0.273 C 
ATOM     45  N10 UNL     1      14.220   9.083   4.129 +0.25 -0.00    -0.320 N 
ATOM     46  H50 UNL     1      13.837   9.716   3.444 -0.02 +0.00    +0.169 HD
ATOM     47  O5  UNL     1      13.806   7.207   5.401 -0.31 -0.00    -0.266 OA
BRANCH  45  48
ATOM     48  C24 UNL     1      15.543   9.281   4.475 +0.22 +0.00    +0.053 A 
ATOM     49  C25 UNL     1      15.938  10.080   5.520+17.53 +0.00    +0.120 A 
ATOM     50  N11 UNL     1      17.309  10.056   5.589 +3.80 -0.00    -0.354 N 
ATOM     51  C26 UNL     1      17.825   9.226   4.607 +0.17 +0.00    +0.105 A 
ATOM     52  C40 UNL     1      18.076  10.792   6.574+27.65 +0.00    +0.156 C 
ATOM     53  C27 UNL     1      16.723   8.759   3.898 -0.47 +0.00    +0.066 A 
BRANCH  51  54
ATOM     54  C28 UNL     1      19.240   8.955   4.398 +2.96 +0.00    +0.273 C 
ATOM     55  N12 UNL     1      19.780   9.551   3.262 +0.07 -0.00    -0.320 N 
ATOM     56  H51 UNL     1      19.110  10.036   2.674 +0.13 +0.00    +0.169 HD
ATOM     57  O6  UNL     1      19.908   8.246   5.146 +3.43 -0.00    -0.266 OA
BRANCH  55  58
ATOM     58  C29 UNL     1      21.081   9.510   2.844 -0.37 +0.00    +0.053 A 
ATOM     59  C30 UNL     1      21.632  10.333   1.928 +0.13 +0.00    +0.125 A 
ATOM     60  N13 UNL     1      23.049   9.967   1.752 +0.03 -0.00    -0.336 N 
ATOM     61  C31 UNL     1      23.864  10.520   0.941 +2.46 +0.00    +0.128 C 
ATOM     62  C32 UNL     1      23.270   8.833   2.682 -0.38 +0.00    +0.108 A 
ATOM     63  C33 UNL     1      22.110   8.583   3.323 +0.40 +0.00    +0.066 A 
BRANCH  62  64
ATOM     64  C34 UNL     1      24.580   8.156   2.911 -0.23 +0.00    +0.268 C 
ATOM     65  N14 UNL     1      25.289   7.769   1.794 -0.14 -0.00    -0.356 N 
ATOM     66  H52 UNL     1      24.948   7.966   0.858 +0.13 +0.00    +0.162 HD
ATOM     67  O7  UNL     1      25.000   7.970   4.049 -0.41 -0.00    -0.266 OA
BRANCH  65  68
ATOM     68  C35 UNL     1      26.597   7.141   1.901 -0.15 +0.00    +0.124 C 
BRANCH  68  69
ATOM     69  C36 UNL     1      27.728   8.168   1.869 -0.48 +0.00    +0.047 C 
BRANCH  69  70
ATOM     70  C37 UNL     1      28.478   8.218   0.536 -0.24 +0.00    +0.235 C 
BRANCH  70  71
ATOM     71  N15 UNL     1      29.406   7.041   0.318 -0.21 -0.00    -0.079 N 
ATOM     72  C38 UNL     1      28.692   5.924  -0.411 -0.13 +0.00    +0.269 C 
ATOM     73  C39 UNL     1      30.034   6.516   1.587 -0.20 +0.00    +0.269 C 
ATOM     74  H53 UNL     1      30.177   7.324  -0.300 +0.12 +0.00    +0.278 HD
ENDBRANCH  70  71
ENDBRANCH  69  70
ENDBRANCH  68  69
ENDBRANCH  65  68
ENDBRANCH  62  64
ENDBRANCH  55  58
ENDBRANCH  51  54
ENDBRANCH  45  48
ENDBRANCH   3  44
TORSDOF 18
TER
