USER    Run = 1
USER    DPF = ligand_161_receptor.dpf
USER  
USER    Estimated Free Energy of Binding    =  +14.66 kcal/mol  [=(1)+(2)+(3)-(4)]
USER    
USER    (1) Final Intermolecular Energy     =  +13.47 kcal/mol
USER        vdW + Hbond + desolv Energy     =  +13.47 kcal/mol
USER        Electrostatic Energy            =   +0.00 kcal/mol
USER    (2) Final Total Internal Energy     =   -3.78 kcal/mol
USER    (3) Torsional Free Energy           =   +1.19 kcal/mol
USER    (4) Unbound System's Energy  [=(2)] =   -3.78 kcal/mol
USER    
USER    
USER    NEWDPF move ligand_161.pdbqt
USER    NEWDPF about 0.000000 0.000000 0.000000
USER    NEWDPF tran0 20.707173 8.460018 -0.643895
USER    NEWDPF quaternion0 0.016550 0.849840 0.402898 -0.339369
USER    NEWDPF axisangle0 0.017594 0.903457 0.428317 -140.323160
USER    NEWDPF quat0 0.017594 0.903457 0.428317 -140.323160
USER    NEWDPF dihe0 35.97 15.85 -29.82 -18.28 179.68 -169.65 88.05 167.33 96.85 -138.82 -144.19 -130.63 135.16 124.18 3.02 -124.22 35.73 141.29 139.60 139.60 
USER  keepresnum = 1 
USER  
REMARK  20 active torsions:
REMARK  status: ('A' for Active; 'I' for Inactive)
REMARK    1  A    between atoms: C3_3  and  S1_62 
REMARK    2  A    between atoms: C5_5  and  C7_7 
REMARK    3  A    between atoms: C7_7  and  C8_8 
REMARK    4  A    between atoms: C8_8  and  C9_9 
REMARK       I    between atoms: C9_9  and  N5_41 
REMARK    5  A    between atoms: C10_10  and  C11_11 
REMARK    6  A    between atoms: C10_10  and  S1_62 
REMARK    7  A    between atoms: C12_12  and  C33_33 
REMARK    8  A    between atoms: C14_14  and  N7_43 
REMARK    9  A    between atoms: C16_16  and  C17_17 
REMARK       I    between atoms: C16_16  and  N7_43 
REMARK   10  A    between atoms: C17_17  and  C29_29 
REMARK   11  A    between atoms: C18_18  and  C21_21 
REMARK   12  A    between atoms: C18_18  and  O5_55 
REMARK       I    between atoms: C21_21  and  N9_46 
REMARK   13  A    between atoms: C22_22  and  C23_23 
REMARK       I    between atoms: C22_22  and  N10_47 
REMARK   14  A    between atoms: C25_25  and  O9_59 
REMARK   15  A    between atoms: C26_26  and  O8_58 
REMARK   16  A    between atoms: C31_31  and  N12_50 
REMARK   17  A    between atoms: C33_33  and  O11_61 
REMARK   18  A    between atoms: N5_41  and  O2_52 
REMARK   19  A    between atoms: N8_44  and  O5_55 
REMARK   20  A    between atoms: N9_46  and  N10_47 
USER                              x       y       z     vdW  Elec       q    Type
USER                           _______ _______ _______ _____ _____    ______ ____
ROOT
ATOM      1  C16 UNL     1      21.782  10.157   0.071 -0.24 +0.00    +0.273 C 
ATOM      2  N7  UNL     1      20.783   9.218   0.203 +1.37 -0.00    -0.340 N 
ATOM      3  O4  UNL     1      21.643  11.245  -0.468 -0.32 -0.00    -0.266 OA
ATOM      4  H26 UNL     1      20.985   8.392   0.761 +2.10 +0.00    +0.163 HD
ENDROOT
BRANCH   2   5
ATOM      5  C14 UNL     1      19.419   9.470  -0.318 +2.58 +0.00    +0.211 A 
ATOM      6  C13 UNL     1      18.208   8.907   0.493 +1.51 +0.00    +0.187 A 
ATOM      7  N6  UNL     1      17.741  10.275   0.604 -0.24 -0.00    -0.293 N 
ATOM      8  S3  UNL     1      18.538   8.255   2.158 +3.60 -0.00    -0.136 SA
ATOM      9  C12 UNL     1      16.889  10.749   1.561 -0.48 +0.00    +0.116 C 
ATOM     10  C15 UNL     1      18.813  10.862   0.019 -0.20 +0.00    +0.251 A 
ATOM     11  C11 UNL     1      16.362   9.945   2.516 -0.52 -0.00    -0.027 C 
ATOM     12  C32 UNL     1      16.825   8.513   2.711 -0.52 +0.00    +0.113 C 
ATOM     13  O3  UNL     1      19.172  12.012  -0.076 -0.46 -0.00    -0.271 OA
BRANCH   9  14
ATOM     14  C33 UNL     1      16.542  12.193   1.469 -0.15 +0.00    +0.194 C 
ATOM     15  O10 UNL     1      16.886  13.050   2.265 +0.31 -0.00    -0.645 OA
BRANCH  14  16
ATOM     16  O11 UNL     1      15.779  12.460   0.397 +0.57 -0.00    -0.772 OA
ATOM     17  H34 UNL     1      16.040  13.370   0.144 +0.08 +0.00    +0.167 HD
ENDBRANCH  14  16
ENDBRANCH   9  14
BRANCH  11  18
ATOM     18  C10 UNL     1      15.331  10.378   3.544 +5.43 +0.00    +0.118 C 
BRANCH  18  19
ATOM     19  S1  UNL     1      15.160   9.279   4.983 +2.01 -0.00    -0.105 SA
BRANCH  19  20
ATOM     20  C3  UNL     1      14.153   7.988   4.397 -0.40 +0.00    +0.113 A 
ATOM     21  C4  UNL     1      13.708   8.029   3.131 -0.11 +0.00    +0.065 A 
ATOM     22  C5  UNL     1      12.855   6.884   2.685 -0.28 +0.00    +0.029 A 
ATOM     23  N3  UNL     1      12.511   5.881   3.438 +0.66 -0.00    -0.193 N 
ATOM     24  C6  UNL     1      12.976   5.882   4.720 +0.47 +0.00    +0.706 A 
ATOM     25  H3  UNL     1      11.920   5.128   3.086 -0.15 +0.00    +0.184 HD
ATOM     26  N2  UNL     1      13.783   6.914   5.219 -0.42 -0.00    -0.078 N 
ATOM     27  N4  UNL     1      12.790   4.985   5.662 -0.31 -0.00    -0.178 N 
ATOM     28  N1  UNL     1      14.112   6.637   6.511 -0.29 -0.00    -0.267 N 
ATOM     29  C2  UNL     1      13.468   5.488   6.731 -0.45 +0.00    +0.109 A 
ATOM     30  H1  UNL     1      14.701   7.171   7.150 +0.19 +0.00    +0.189 HD
ATOM     31  C1  UNL     1      13.511   4.794   8.034 -0.59 +0.00    +0.091 C 
ATOM     32  H4  UNL     1      12.260   4.115   5.606 +0.12 +0.00    +0.185 HD
BRANCH  22  33
ATOM     33  C7  UNL     1      12.335   6.944   1.259 -0.13 +0.00    +0.067 C 
BRANCH  33  34
ATOM     34  C8  UNL     1      10.822   7.118   1.198 -0.14 +0.00    +0.111 C 
BRANCH  34  35
ATOM     35  C9  UNL     1      10.193   7.005   2.567 -0.24 +0.00    +0.241 C 
ATOM     36  N5  UNL     1       9.795   5.724   2.881 -0.13 -0.00    -0.237 N 
ATOM     37  H25 UNL     1      10.245   4.913   2.468 -0.33 +0.00    +0.197 HD
ATOM     38  O1  UNL     1      10.033   7.947   3.337 -0.33 -0.00    -0.271 OA
BRANCH  36  39
ATOM     39  O2  UNL     1       9.323   5.558   4.207 -0.13 -0.00    -0.287 OA
ATOM     40  H31 UNL     1       9.111   6.480   4.474 +0.14 +0.00    +0.244 HD
ENDBRANCH  36  39
ENDBRANCH  34  35
ENDBRANCH  33  34
ENDBRANCH  22  33
ENDBRANCH  19  20
ENDBRANCH  18  19
ENDBRANCH  11  18
ENDBRANCH   2   5
BRANCH   1  41
ATOM     41  C17 UNL     1      23.133   9.731   0.615 -0.36 +0.00    +0.149 C 
ATOM     42  N8  UNL     1      23.987   9.012  -0.056 -0.11 -0.00    -0.258 N 
ATOM     43  H8  UNL     1      24.886   8.728   0.331 +0.15 +0.00    +0.194 HD
BRANCH  41  44
ATOM     44  C29 UNL     1      23.595  10.136   1.937 +0.83 +0.00    +0.074 A 
ATOM     45  C30 UNL     1      24.799  10.733   2.260 +0.47 +0.00    +0.084 A 
ATOM     46  S2  UNL     1      24.862  11.047   3.950 +2.17 -0.00    -0.070 SA
ATOM     47  C31 UNL     1      23.312  10.341   4.136 -0.50 +0.00    +0.121 A 
ATOM     48  N11 UNL     1      22.769   9.906   3.033 -0.18 -0.00    -0.339 N 
ATOM     49  H11 UNL     1      21.855   9.456   2.980 +0.12 +0.00    +0.167 HD
BRANCH  47  50
ATOM     50  N12 UNL     1      22.683  10.250   5.319 -0.02 -0.00    -0.283 NA
ATOM     51  H29 UNL     1      23.323  10.388   6.110 -0.50 +0.00    +0.126 HD
ATOM     52  H30 UNL     1      22.073   9.454   5.453 +0.10 +0.00    +0.126 HD
ENDBRANCH  47  50
ENDBRANCH  41  44
BRANCH  42  53
ATOM     53  O5  UNL     1      23.585   8.659  -1.341 -0.01 -0.00    -0.259 OA
BRANCH  53  54
ATOM     54  C18 UNL     1      23.923   7.283  -1.592 -0.44 +0.00    +0.163 C 
ATOM     55  C19 UNL     1      22.875   6.383  -0.923 -0.27 +0.00    +0.059 C 
ATOM     56  C20 UNL     1      23.813   7.117  -3.114 +0.84 +0.00    +0.059 C 
BRANCH  54  57
ATOM     57  C21 UNL     1      25.359   6.855  -1.141 -0.27 +0.00    +0.272 C 
ATOM     58  N9  UNL     1      25.848   5.694  -1.730 -0.25 -0.00    -0.265 N 
ATOM     59  H27 UNL     1      25.164   4.992  -2.038 +0.12 +0.00    +0.190 HD
ATOM     60  O6  UNL     1      26.045   7.503  -0.346 -0.25 -0.00    -0.268 OA
BRANCH  58  61
ATOM     61  N10 UNL     1      27.051   5.185  -1.215 -0.17 -0.00    -0.263 N 
ATOM     62  C22 UNL     1      27.170   4.962   0.144 -0.20 +0.00    +0.270 C 
ATOM     63  O7  UNL     1      26.316   5.249   0.979 -0.31 -0.00    -0.266 OA
ATOM     64  H28 UNL     1      27.660   4.744  -1.902 +0.09 +0.00    +0.190 HD
BRANCH  62  65
ATOM     65  C23 UNL     1      28.434   4.307   0.576 -0.16 +0.00    +0.036 A 
ATOM     66  C24 UNL     1      28.445   3.009   1.111 +0.67 +0.00    +0.056 A 
ATOM     67  C25 UNL     1      29.659   2.449   1.492 -0.40 +0.00    +0.099 A 
ATOM     68  C26 UNL     1      30.848   3.160   1.339 -0.24 +0.00    +0.098 A 
ATOM     69  C27 UNL     1      30.850   4.436   0.797 -0.18 +0.00    +0.040 A 
ATOM     70  C28 UNL     1      29.639   5.010   0.408 -0.20 +0.00    +0.020 A 
BRANCH  67  71
ATOM     71  O9  UNL     1      29.740   1.189   2.020 -0.22 -0.00    -0.358 OA
ATOM     72  H33 UNL     1      28.907   0.987   2.479 -0.44 +0.00    +0.217 HD
ENDBRANCH  67  71
BRANCH  68  73
ATOM     73  O8  UNL     1      32.033   2.597   1.718 -0.14 -0.00    -0.358 OA
ATOM     74  H32 UNL     1      31.780   1.865   2.316 +0.13 +0.00    +0.217 HD
ENDBRANCH  68  73
ENDBRANCH  62  65
ENDBRANCH  58  61
ENDBRANCH  54  57
ENDBRANCH  53  54
ENDBRANCH  42  53
ENDBRANCH   1  41
TORSDOF 20
TER
