USER    Run = 1
USER    DPF = ligand_501_receptor.dpf
USER  
USER    Estimated Free Energy of Binding    =  +8.95e+003 kcal/mol  [=(1)+(2)+(3)-(4)]
USER    
USER    (1) Final Intermolecular Energy     =  +8.95e+003 kcal/mol
USER        vdW + Hbond + desolv Energy     =  +8.95e+003 kcal/mol
USER        Electrostatic Energy            =   +0.00 kcal/mol
USER    (2) Final Total Internal Energy     =   +0.00 kcal/mol
USER    (3) Torsional Free Energy           =   +1.19 kcal/mol
USER    (4) Unbound System's Energy  [=(2)] =   +0.00 kcal/mol
USER    
USER    
USER    NEWDPF move ligand_501.pdbqt
USER    NEWDPF about 0.000000 0.000000 0.000000
USER    NEWDPF tran0 16.794106 7.041182 1.531369
USER    NEWDPF quaternion0 0.174281 -0.950285 -0.192456 -0.171889
USER    NEWDPF axisangle0 0.176914 -0.964642 -0.195364 -160.204625
USER    NEWDPF quat0 0.176914 -0.964642 -0.195364 -160.204625
USER  keepresnum = 1 
USER  
REMARK  0 active torsions:
REMARK  status: ('A' for Active; 'I' for Inactive)
REMARK       I    between atoms: C2_2  and  C3_3 
REMARK       I    between atoms: C2_2  and  N5_90 
REMARK       I    between atoms: C3_3  and  N1_86 
REMARK       I    between atoms: C4_4  and  C5_5 
REMARK       I    between atoms: C4_4  and  C8_8 
REMARK       I    between atoms: C4_4  and  N1_86 
REMARK       I    between atoms: C8_8  and  N2_87 
REMARK       I    between atoms: C9_9  and  C10_10 
REMARK       I    between atoms: C9_9  and  C13_13 
REMARK       I    between atoms: C9_9  and  N2_87 
REMARK       I    between atoms: C13_13  and  N3_88 
REMARK       I    between atoms: C14_14  and  C15_15 
REMARK       I    between atoms: C14_14  and  C18_18 
REMARK       I    between atoms: C14_14  and  N3_88 
REMARK       I    between atoms: C18_18  and  N4_89 
REMARK       I    between atoms: C19_19  and  C21_21 
REMARK       I    between atoms: C19_19  and  N4_89 
REMARK       I    between atoms: C21_21  and  O6_68 
REMARK       I    between atoms: C22_22  and  C23_23 
REMARK       I    between atoms: C22_22  and  N5_90 
REMARK       I    between atoms: C23_23  and  N6_91 
REMARK       I    between atoms: C25_25  and  C26_26 
REMARK       I    between atoms: C25_25  and  N6_91 
REMARK       I    between atoms: C30_30  and  C31_31 
REMARK       I    between atoms: C30_30  and  N7_92 
REMARK       I    between atoms: C31_31  and  C32_32 
REMARK       I    between atoms: C31_31  and  N8_93 
REMARK       I    between atoms: C32_32  and  C33_33 
REMARK       I    between atoms: C36_36  and  C37_37 
REMARK       I    between atoms: C36_36  and  N8_93 
REMARK       I    between atoms: C37_37  and  C38_38 
REMARK       I    between atoms: C37_37  and  N10_95 
REMARK       I    between atoms: C38_38  and  O11_73 
REMARK       I    between atoms: C40_40  and  O11_73 
REMARK       I    between atoms: C41_41  and  N9_94 
REMARK       I    between atoms: C42_42  and  O15_77 
REMARK       I    between atoms: C43_43  and  O14_76 
REMARK       I    between atoms: C44_44  and  C45_45 
REMARK       I    between atoms: C45_45  and  O13_75 
REMARK       I    between atoms: C46_46  and  O15_77 
REMARK       I    between atoms: C47_47  and  O20_82 
REMARK       I    between atoms: C48_48  and  O19_81 
REMARK       I    between atoms: C49_49  and  O18_80 
REMARK       I    between atoms: C50_50  and  C51_51 
REMARK       I    between atoms: C51_51  and  O17_79 
REMARK       I    between atoms: C52_52  and  N9_94 
REMARK       I    between atoms: C54_54  and  C55_55 
REMARK       I    between atoms: C54_54  and  N10_95 
REMARK       I    between atoms: C55_55  and  C56_56 
REMARK       I    between atoms: C55_55  and  N11_96 
REMARK       I    between atoms: C56_56  and  C57_57 
REMARK       I    between atoms: C60_60  and  O23_85 
USER                              x       y       z     vdW  Elec       q    Type
USER                           _______ _______ _______ _____ _____    ______ ____
ROOT
ATOM      1  C1  UNL     1       9.490   5.995   6.761 -0.16 +0.00    +0.042 C 
ATOM      2  C2  UNL     1      10.524   5.910   5.646 -0.24 +0.00    +0.172 C 
ATOM      3  C3  UNL     1       9.823   5.549   4.324 -0.17 +0.00    +0.240 C 
ATOM      4  C4  UNL     1       8.825   3.730   2.979 -0.19 +0.00    +0.180 C 
ATOM      5  C5  UNL     1       9.148   2.254   2.672 +1.69 +0.00    +0.009 C 
ATOM      6  C6  UNL     1       8.417   1.787   1.407 -0.30 +0.00    +0.012 C 
ATOM      7  C7  UNL     1      10.654   2.037   2.481+33.82 +0.00    +0.012 C 
ATOM      8  C8  UNL     1       7.332   3.937   3.328 -0.14 +0.00    +0.241 C 
ATOM      9  C9  UNL     1       5.586   5.690   3.582 -0.15 +0.00    +0.180 C 
ATOM     10  C10 UNL     1       5.341   7.174   3.178 +1.79 +0.00    +0.009 C 
ATOM     11  C11 UNL     1       4.036   7.735   3.759 +2.62 +0.00    +0.012 C 
ATOM     12  C12 UNL     1       6.487   8.091   3.632+99.99 +0.00    +0.012 C 
ATOM     13  C13 UNL     1       4.359   4.826   3.174 -0.11 +0.00    +0.241 C 
ATOM     14  C14 UNL     1       3.413   3.347   1.407 -0.07 +0.00    +0.180 C 
ATOM     15  C15 UNL     1       3.608   3.217  -0.127 -0.12 +0.00    +0.009 C 
ATOM     16  C16 UNL     1       3.674   4.598  -0.797 +0.02 +0.00    +0.012 C 
ATOM     17  C17 UNL     1       2.490   2.408  -0.795 -0.08 +0.00    +0.012 C 
ATOM     18  C18 UNL     1       3.366   1.951   2.087 -0.08 +0.00    +0.241 C 
ATOM     19  C19 UNL     1       4.557   0.273   3.430 -0.29 +0.00    +0.178 C 
ATOM     20  C20 UNL     1       5.951  -0.341   3.421+26.73 +0.00    +0.043 C 
ATOM     21  C21 UNL     1       4.113   0.494   4.882 +0.70 +0.00    +0.163 C 
ATOM     22  C22 UNL     1      12.493   7.213   4.978 -0.29 +0.00    +0.240 C 
ATOM     23  C23 UNL     1      13.014   8.621   4.590 +0.17 +0.00    +0.172 C 
ATOM     24  C24 UNL     1      12.734   9.690   5.643+99.99 +0.00    +0.042 C 
ATOM     25  C25 UNL     1      15.448   8.365   5.090 +2.10 +0.00    +0.241 C 
ATOM     26  C26 UNL     1      16.797   7.969   4.430 -0.27 +0.00    +0.179 C 
ATOM     27  C27 UNL     1      17.948   7.992   5.440+42.77 +0.00    +0.037 C 
ATOM     28  C28 UNL     1      18.446   9.430   5.347+18.30 +0.00    +0.022 C 
ATOM     29  C29 UNL     1      18.361   9.706   3.854 +0.29 +0.00    +0.127 C 
ATOM     30  C30 UNL     1      16.708   8.880   2.110 -0.38 +0.00    +0.243 C 
ATOM     31  C31 UNL     1      17.230   9.910   1.057 -0.41 +0.00    +0.177 C 
ATOM     32  C32 UNL     1      16.514   9.737  -0.301 +0.81 +0.00    +0.038 C 
ATOM     33  C33 UNL     1      16.684  10.858  -1.351+99.99 -0.00    -0.020 C 
ATOM     34  C34 UNL     1      16.320  12.239  -0.809+99.99 +0.00    +0.009 C 
ATOM     35  C35 UNL     1      18.066  10.885  -2.002+35.01 +0.00    +0.009 C 
ATOM     36  C36 UNL     1      19.434   8.877   0.501+33.80 +0.00    +0.243 C 
ATOM     37  C37 UNL     1      20.922   9.219   0.258 +2.56 +0.00    +0.205 C 
ATOM     38  C38 UNL     1      21.690   8.020  -0.345 +9.59 +0.00    +0.152 C 
ATOM     39  C39 UNL     1      21.285   7.778  -1.800 +6.55 +0.00    +0.042 C 
ATOM     40  C40 UNL     1      23.925   7.266   0.114 -0.32 +0.00    +0.286 C 
ATOM     41  C41 UNL     1      25.344   7.858   0.378 -0.33 +0.00    +0.171 C 
ATOM     42  C42 UNL     1      26.205   7.636  -0.877 +0.29 +0.00    +0.183 C 
ATOM     43  C43 UNL     1      26.345   6.119  -1.141 -0.32 +0.00    +0.180 C 
ATOM     44  C44 UNL     1      25.052   5.366  -0.767 -0.43 +0.00    +0.179 C 
ATOM     45  C45 UNL     1      24.859   4.143  -1.675 +0.05 +0.00    +0.198 C 
ATOM     46  C46 UNL     1      28.318   8.320  -1.831 +3.76 +0.00    +0.292 C 
ATOM     47  C47 UNL     1      29.263   9.537  -1.676+99.99 +0.00    +0.204 C 
ATOM     48  C48 UNL     1      30.603   9.311  -2.389 -0.06 +0.00    +0.183 C 
ATOM     49  C49 UNL     1      30.466   8.284  -3.517 -0.26 +0.00    +0.180 C 
ATOM     50  C50 UNL     1      29.922   6.950  -2.974 -0.17 +0.00    +0.179 C 
ATOM     51  C51 UNL     1      29.186   6.165  -4.072 +4.61 +0.00    +0.198 C 
ATOM     52  C52 UNL     1      25.605   7.561   2.839 -0.37 +0.00    +0.214 C 
ATOM     53  C53 UNL     1      26.412   6.889   3.915 +3.45 +0.00    +0.117 C 
ATOM     54  C54 UNL     1      21.408  10.944   2.002 +3.05 +0.00    +0.252 C 
ATOM     55  C55 UNL     1      22.070  11.181   3.373 +5.57 +0.00    +0.313 C 
ATOM     56  C56 UNL     1      23.121  12.303   3.318+99.99 +0.00    +0.083 C 
ATOM     57  C57 UNL     1      24.268  12.114   2.350+99.99 -0.00    -0.056 A 
ATOM     58  C58 UNL     1      24.135  12.522   1.014+99.99 +0.00    +0.010 A 
ATOM     59  C59 UNL     1      25.203  12.401   0.125+99.99 +0.00    +0.037 A 
ATOM     60  C60 UNL     1      26.411  11.878   0.567+68.64 +0.00    +0.065 A 
ATOM     61  C61 UNL     1      26.563  11.453   1.882+99.99 +0.00    +0.037 A 
ATOM     62  C62 UNL     1      25.490  11.569   2.771 +8.38 +0.00    +0.010 A 
ATOM     63  O1  UNL     1       9.450   6.398   3.511 -0.17 -0.00    -0.271 OA
ATOM     64  O2  UNL     1       6.656   3.101   3.922 -0.18 -0.00    -0.271 OA
ATOM     65  O3  UNL     1       3.315   4.816   3.823 -0.08 -0.00    -0.271 OA
ATOM     66  O4  UNL     1       2.373   1.227   2.015 -0.07 -0.00    -0.271 OA
ATOM     67  O5  UNL     1       3.997  -0.376   5.734+73.25 -0.00    -0.648 OA
ATOM     68  O6  UNL     1       3.879   1.784   5.197 -0.02 -0.00    -0.775 OA
ATOM     69  O7  UNL     1      13.137   6.181   4.796 -0.28 -0.00    -0.271 OA
ATOM     70  O8  UNL     1      15.292   8.423   6.308+99.99 -0.00    -0.271 OA
ATOM     71  O9  UNL     1      15.741   8.149   1.867 -0.22 -0.00    -0.271 OA
ATOM     72  O10 UNL     1      18.953   7.765   0.310+99.99 -0.00    -0.271 OA
ATOM     73  O11 UNL     1      23.096   8.339  -0.344 -0.28 -0.00    -0.352 OA
ATOM     74  O12 UNL     1      23.929   6.235  -0.886 -0.31 -0.00    -0.349 OA
ATOM     75  O13 UNL     1      25.874   3.159  -1.489 -0.37 -0.00    -0.398 OA
ATOM     76  O14 UNL     1      27.418   5.550  -0.374 -0.11 -0.00    -0.390 OA
ATOM     77  O15 UNL     1      27.461   8.310  -0.689 +0.08 -0.00    -0.348 OA
ATOM     78  O16 UNL     1      29.077   7.116  -1.821 -0.23 -0.00    -0.348 OA
ATOM     79  O17 UNL     1      28.758   4.907  -3.555 -0.02 -0.00    -0.398 OA
ATOM     80  O18 UNL     1      31.729   8.100  -4.168 -0.05 -0.00    -0.390 OA
ATOM     81  O19 UNL     1      31.074  10.548  -2.943+99.99 -0.00    -0.390 OA
ATOM     82  O20 UNL     1      29.511   9.799  -0.271 +1.23 -0.00    -0.388 OA
ATOM     83  O21 UNL     1      24.655   8.294   3.093 -0.35 -0.00    -0.274 OA
ATOM     84  O22 UNL     1      20.786  11.820   1.402 +0.17 -0.00    -0.271 OA
ATOM     85  O23 UNL     1      27.429  11.807  -0.336+37.71 -0.00    -0.361 OA
ATOM     86  N1  UNL     1       9.557   4.211   4.149 -0.12 -0.00    -0.346 N 
ATOM     87  N2  UNL     1       6.834   5.180   2.969 -0.03 -0.00    -0.346 N 
ATOM     88  N3  UNL     1       4.485   4.177   1.966 -0.04 -0.00    -0.346 N 
ATOM     89  N4  UNL     1       4.552   1.516   2.652 -0.10 -0.00    -0.345 N 
ATOM     90  N5  UNL     1      11.200   7.188   5.471 -0.13 -0.00    -0.346 N 
ATOM     91  N6  UNL     1      14.415   8.548   4.194 -0.20 -0.00    -0.346 N 
ATOM     92  N7  UNL     1      17.225   8.923   3.393 -0.25 -0.00    -0.337 N 
ATOM     93  N8  UNL     1      18.681   9.949   0.939 -0.16 -0.00    -0.346 N 
ATOM     94  N9  UNL     1      26.007   7.278   1.562 -0.15 -0.00    -0.349 N 
ATOM     95  N10 UNL     1      21.511   9.660   1.526 -0.18 -0.00    -0.344 N 
ATOM     96  N11 UNL     1      22.550   9.911   3.965 -0.46 +0.00    +0.092 N 
ATOM     97  H83 UNL     1       3.566   1.767   6.124 +0.04 +0.00    +0.167 HD
ATOM     98  H84 UNL     1      26.715   3.613  -1.283 +0.12 +0.00    +0.209 HD
ATOM     99  H85 UNL     1      28.240   5.946  -0.744 +0.11 +0.00    +0.210 HD
ATOM    100  H86 UNL     1      28.414   4.384  -4.301 +0.09 +0.00    +0.209 HD
ATOM    101  H87 UNL     1      32.369   7.766  -3.513 +0.05 +0.00    +0.210 HD
ATOM    102  H88 UNL     1      31.796  10.324  -3.561 +0.09 +0.00    +0.210 HD
ATOM    103  H89 UNL     1      28.830   9.270   0.200 +0.12 +0.00    +0.210 HD
ATOM    104  H90 UNL     1      28.236  11.471   0.099 +1.93 +0.00    +0.217 HD
ATOM    105  H91 UNL     1       9.669   3.579   4.934 +0.08 +0.00    +0.163 HD
ATOM    106  H92 UNL     1       7.578   5.868   2.845 +0.07 +0.00    +0.163 HD
ATOM    107  H93 UNL     1       5.421   4.085   1.595 +0.06 +0.00    +0.163 HD
ATOM    108  H94 UNL     1       5.111   2.261   3.066 +0.06 +0.00    +0.163 HD
ATOM    109  H95 UNL     1      10.606   7.963   5.200 +0.10 +0.00    +0.163 HD
ATOM    110  H96 UNL     1      14.603   8.184   3.256 +0.05 +0.00    +0.163 HD
ATOM    111  H97 UNL     1      19.143  10.859   0.962 +0.14 +0.00    +0.163 HD
ATOM    112  H98 UNL     1      26.788   6.645   1.400 +0.11 +0.00    +0.163 HD
ATOM    113  H99 UNL     1      21.848   8.973   2.198 +0.11 +0.00    +0.163 HD
ATOM    114  HA0 UNL     1      23.379   9.578   3.442 +0.26 +0.00    +0.313 HD
ATOM    115  HA1 UNL     1      22.926  10.099   4.894 +0.20 +0.00    +0.313 HD
ENDROOT
TORSDOF 42
TER
