USER    Run = 1
USER    DPF = ligand_147_receptor.dpf
USER  
USER    Estimated Free Energy of Binding    =  +38.28 kcal/mol  [=(1)+(2)+(3)-(4)]
USER    
USER    (1) Final Intermolecular Energy     =  +37.08 kcal/mol
USER        vdW + Hbond + desolv Energy     =  +37.08 kcal/mol
USER        Electrostatic Energy            =   +0.00 kcal/mol
USER    (2) Final Total Internal Energy     =   -0.22 kcal/mol
USER    (3) Torsional Free Energy           =   +1.19 kcal/mol
USER    (4) Unbound System's Energy  [=(2)] =   -0.22 kcal/mol
USER    
USER    
USER    NEWDPF move ligand_147.pdbqt
USER    NEWDPF about 0.000000 0.000000 0.000000
USER    NEWDPF tran0 11.793284 8.136197 1.097174
USER    NEWDPF quaternion0 -0.318928 -0.170334 -0.171774 0.916387
USER    NEWDPF axisangle0 -0.796735 -0.425522 -0.429119 47.193086
USER    NEWDPF quat0 -0.796735 -0.425522 -0.429119 47.193086
USER    NEWDPF dihe0 -161.24 180.00 154.48 -94.07 -179.78 93.92 179.31 20.57 -90.73 180.00 180.00 180.00 180.00 33.05 93.82 -83.38 -161.06 -50.12 -115.68 -180.00 -109.19 -46.43 -52.77 -119.39 -13.59 -59.16 
USER  keepresnum = 1 
USER  
REMARK  26 active torsions:
REMARK  status: ('A' for Active; 'I' for Inactive)
REMARK    1  A    between atoms: C2_2  and  C3_3 
REMARK    2  A    between atoms: C3_3  and  C5_5 
REMARK    3  A    between atoms: C5_5  and  C6_6 
REMARK    4  A    between atoms: C5_5  and  N7_59 
REMARK       I    between atoms: C6_6  and  N1_52 
REMARK    5  A    between atoms: C10_10  and  C11_11 
REMARK       I    between atoms: C11_11  and  N2_53 
REMARK    6  A    between atoms: C12_12  and  C13_13 
REMARK    7  A    between atoms: C12_12  and  C17_17 
REMARK    8  A    between atoms: C12_12  and  N2_53 
REMARK    9  A    between atoms: C13_13  and  C14_14 
REMARK       I    between atoms: C17_17  and  N3_54 
REMARK   10  A    between atoms: C18_18  and  C19_19 
REMARK   11  A    between atoms: C18_18  and  C23_23 
REMARK   12  A    between atoms: C18_18  and  N3_54 
REMARK   13  A    between atoms: C19_19  and  C20_20 
REMARK   14  A    between atoms: C20_20  and  C21_21 
REMARK   15  A    between atoms: C21_21  and  N4_55 
REMARK       I    between atoms: C22_22  and  N5_57 
REMARK       I    between atoms: C22_22  and  N6_58 
REMARK   16  A    between atoms: C23_23  and  O5_46 
REMARK   17  A    between atoms: C24_24  and  C25_25 
REMARK       I    between atoms: C24_24  and  N7_59 
REMARK   18  A    between atoms: C29_29  and  C30_30 
REMARK       I    between atoms: C29_29  and  N8_60 
REMARK   19  A    between atoms: C30_30  and  C31_31 
REMARK   20  A    between atoms: C30_30  and  N9_61 
REMARK   21  A    between atoms: C31_31  and  C32_32 
REMARK   22  A    between atoms: C35_35  and  O8_49 
REMARK   23  A    between atoms: C38_38  and  C39_39 
REMARK       I    between atoms: C38_38  and  N9_61 
REMARK   24  A    between atoms: C39_39  and  C40_40 
REMARK   25  A    between atoms: C39_39  and  N10_62 
REMARK   26  A    between atoms: C40_40  and  O10_51 
USER                              x       y       z     vdW  Elec       q    Type
USER                           _______ _______ _______ _____ _____    ______ ____
ROOT
ATOM      1  C5  UNL     1      11.817   8.128   2.935 +0.32 +0.00    +0.180 C 
ENDROOT
BRANCH   1   2
ATOM      2  C3  UNL     1      12.220   8.792   4.275 +0.57 +0.00    +0.013 C 
ATOM      3  C4  UNL     1      11.223   8.480   5.402 -0.13 +0.00    +0.012 C 
BRANCH   2   4
ATOM      4  C2  UNL     1      13.626   8.356   4.754 -0.44 +0.00    +0.002 C 
ATOM      5  C1  UNL     1      13.645   7.254   5.803 -0.51 +0.00    +0.005 C 
ENDBRANCH   2   4
ENDBRANCH   1   2
BRANCH   1   6
ATOM      6  C6  UNL     1      13.019   7.457   2.227 +0.83 +0.00    +0.243 C 
ATOM      7  O1  UNL     1      14.074   7.255   2.841 +0.05 -0.00    -0.271 OA
ATOM      8  N1  UNL     1      12.876   7.088   0.910 +0.22 -0.00    -0.337 N 
ATOM      9  C7  UNL     1      11.647   7.075   0.131 +0.17 +0.00    +0.127 C 
ATOM     10  C10 UNL     1      13.969   6.442   0.193+12.02 +0.00    +0.179 C 
ATOM     11  C8  UNL     1      12.071   6.609  -1.253 -0.45 +0.00    +0.022 C 
ATOM     12  C9  UNL     1      13.277   5.719  -0.965 +5.12 +0.00    +0.037 C 
BRANCH  10  13
ATOM     13  C11 UNL     1      14.978   7.477  -0.348 +0.68 +0.00    +0.241 C 
ATOM     14  O2  UNL     1      15.494   7.409  -1.463 +2.45 -0.00    -0.271 OA
ATOM     15  N2  UNL     1      15.355   8.435   0.572 +0.41 -0.00    -0.346 N 
ATOM     16  H57 UNL     1      15.138   8.260   1.544 -0.34 +0.00    +0.163 HD
BRANCH  15  17
ATOM     17  C12 UNL     1      16.416   9.408   0.288 -0.38 +0.00    +0.177 C 
BRANCH  17  18
ATOM     18  C13 UNL     1      15.848  10.798  -0.059 +4.64 +0.00    +0.038 C 
BRANCH  18  19
ATOM     19  C14 UNL     1      15.104  11.567   1.055 -0.05 -0.00    -0.020 C 
ATOM     20  C15 UNL     1      15.137  10.749   2.351 +0.25 +0.00    +0.009 C 
ATOM     21  C16 UNL     1      13.656  11.909   0.708 +3.98 +0.00    +0.009 C 
ENDBRANCH  18  19
ENDBRANCH  17  18
BRANCH  17  22
ATOM     22  C17 UNL     1      17.496   9.441   1.403 -0.34 +0.00    +0.241 C 
ATOM     23  O3  UNL     1      17.902   8.440   1.987 -0.25 -0.00    -0.271 OA
ATOM     24  N3  UNL     1      17.884  10.716   1.765 -0.18 -0.00    -0.345 N 
ATOM     25  H58 UNL     1      17.165  11.425   1.606 +0.14 +0.00    +0.163 HD
BRANCH  24  26
ATOM     26  C18 UNL     1      18.730  10.946   2.941 +0.00 +0.00    +0.182 C 
BRANCH  26  27
ATOM     27  C19 UNL     1      19.731   9.791   3.048 +0.01 +0.00    +0.038 C 
BRANCH  27  28
ATOM     28  C20 UNL     1      20.169   9.241   1.687 +1.71 +0.00    +0.022 C 
BRANCH  28  29
ATOM     29  C21 UNL     1      21.413   9.945   1.147 -0.40 +0.00    +0.121 C 
BRANCH  29  30
ATOM     30  N4  UNL     1      22.157   9.066   0.249 -0.14 -0.00    -0.372 N 
ATOM     31  C22 UNL     1      23.097   8.335   0.711 -0.42 +0.00    +0.121 C 
ATOM     32  N5  UNL     1      23.761   7.498  -0.114 -0.27 -0.00    -0.279 NA
ATOM     33  N6  UNL     1      23.589   8.228   1.965 -0.22 -0.00    -0.279 NA
ATOM     34  H59 UNL     1      23.285   7.454  -1.011 +0.08 +0.00    +0.126 HD
ATOM     35  H60 UNL     1      23.856   6.570   0.279 +0.09 +0.00    +0.126 HD
ATOM     36  H61 UNL     1      24.595   8.098   1.965 +0.11 +0.00    +0.126 HD
ATOM     37  H62 UNL     1      23.336   8.994   2.575 +0.10 +0.00    +0.126 HD
ATOM     38  H4  UNL     1      21.927   9.036  -0.744 +0.12 +0.00    +0.161 HD
ENDBRANCH  29  30
ENDBRANCH  28  29
ENDBRANCH  27  28
ENDBRANCH  26  27
BRANCH  26  39
ATOM     39  C23 UNL     1      19.460  12.295   2.827 +1.87 +0.00    +0.163 C 
ATOM     40  O4  UNL     1      18.999  13.391   3.107 +0.77 -0.00    -0.648 OA
BRANCH  39  41
ATOM     41  O5  UNL     1      20.747  12.194   2.427 +0.81 -0.00    -0.775 OA
ATOM     42  H54 UNL     1      20.883  11.232   2.298 +0.14 +0.00    +0.167 HD
ENDBRANCH  39  41
ENDBRANCH  26  39
ENDBRANCH  24  26
ENDBRANCH  17  22
ENDBRANCH  15  17
ENDBRANCH  10  13
ENDBRANCH   1   6
BRANCH   1  43
ATOM     43  N7  UNL     1      10.885   7.021   3.158 -0.15 -0.00    -0.346 N 
ATOM     44  C24 UNL     1       9.792   6.848   2.331 -0.22 +0.00    +0.241 C 
ATOM     45  O6  UNL     1       9.476   7.668   1.470 -0.21 -0.00    -0.271 OA
ATOM     46  H63 UNL     1      11.293   6.188   3.567 +0.08 +0.00    +0.163 HD
BRANCH  44  47
ATOM     47  C25 UNL     1       9.053   5.510   2.544 -0.15 +0.00    +0.179 C 
ATOM     48  C26 UNL     1       8.697   4.874   1.200 -0.17 +0.00    +0.037 C 
ATOM     49  C27 UNL     1       7.323   5.466   0.891 -0.19 +0.00    +0.022 C 
ATOM     50  C28 UNL     1       6.663   5.545   2.261 -0.16 +0.00    +0.127 C 
ATOM     51  N8  UNL     1       7.764   5.732   3.190 -0.06 -0.00    -0.337 N 
ATOM     52  C29 UNL     1       7.687   5.889   4.556 -0.10 +0.00    +0.243 C 
ATOM     53  O7  UNL     1       8.693   5.820   5.269 -0.15 -0.00    -0.271 OA
BRANCH  52  54
ATOM     54  C30 UNL     1       6.306   6.210   5.166 +0.85 +0.00    +0.181 C 
BRANCH  54  55
ATOM     55  C31 UNL     1       6.343   6.133   6.704 +0.11 +0.00    +0.073 C 
BRANCH  55  56
ATOM     56  C32 UNL     1       7.144   4.981   7.276 -0.43 -0.00    -0.056 A 
ATOM     57  C33 UNL     1       6.514   3.782   7.636 +0.60 +0.00    +0.010 A 
ATOM     58  C34 UNL     1       7.253   2.733   8.185 +4.07 +0.00    +0.037 A 
ATOM     59  C35 UNL     1       8.621   2.877   8.373 -0.45 +0.00    +0.065 A 
ATOM     60  C36 UNL     1       9.267   4.057   8.022 -0.51 +0.00    +0.037 A 
ATOM     61  C37 UNL     1       8.528   5.108   7.474 -0.45 +0.00    +0.010 A 
BRANCH  59  62
ATOM     62  O8  UNL     1       9.303   1.826   8.913 +0.86 -0.00    -0.361 OA
ATOM     63  H55 UNL     1       8.683   1.293   9.438 +0.16 +0.00    +0.217 HD
ENDBRANCH  59  62
ENDBRANCH  55  56
ENDBRANCH  54  55
BRANCH  54  64
ATOM     64  N9  UNL     1       5.330   5.280   4.588 -0.06 -0.00    -0.346 N 
ATOM     65  C38 UNL     1       4.073   5.725   4.222 -0.12 +0.00    +0.254 C 
ATOM     66  O9  UNL     1       3.648   6.839   4.523 -0.11 -0.00    -0.271 OA
ATOM     67  H64 UNL     1       5.750   4.614   3.945 +0.07 +0.00    +0.163 HD
BRANCH  65  68
ATOM     68  C39 UNL     1       3.271   4.701   3.383 -0.07 +0.00    +0.336 C 
BRANCH  68  69
ATOM     69  C40 UNL     1       4.111   3.448   3.025 -0.09 +0.00    +0.156 C 
ATOM     70  C41 UNL     1       3.655   2.148   3.683 -0.20 +0.00    +0.042 C 
BRANCH  69  71
ATOM     71  O10 UNL     1       4.163   3.252   1.608 -0.04 -0.00    -0.393 OA
ATOM     72  H56 UNL     1       4.372   2.306   1.463 +0.06 +0.00    +0.210 HD
ENDBRANCH  69  71
ENDBRANCH  68  69
BRANCH  68  73
ATOM     73  N10 UNL     1       2.696   5.366   2.187 +0.95 +0.00    +0.094 N 
ATOM     74  H65 UNL     1       3.371   6.037   1.824 +0.08 +0.00    +0.314 HD
ATOM     75  H66 UNL     1       2.585   4.670   1.448 +0.13 +0.00    +0.314 HD
ENDBRANCH  68  73
ENDBRANCH  65  68
ENDBRANCH  54  64
ENDBRANCH  52  54
ENDBRANCH  44  47
ENDBRANCH   1  43
TORSDOF 26
TER
