USER    Run = 1
USER    DPF = ligand_138_receptor.dpf
USER  
USER    Estimated Free Energy of Binding    = +257.50 kcal/mol  [=(1)+(2)+(3)-(4)]
USER    
USER    (1) Final Intermolecular Energy     = +256.31 kcal/mol
USER        vdW + Hbond + desolv Energy     = +256.31 kcal/mol
USER        Electrostatic Energy            =   +0.00 kcal/mol
USER    (2) Final Total Internal Energy     =  +25.03 kcal/mol
USER    (3) Torsional Free Energy           =   +1.19 kcal/mol
USER    (4) Unbound System's Energy  [=(2)] =  +25.03 kcal/mol
USER    
USER    
USER    NEWDPF move ligand_138.pdbqt
USER    NEWDPF about 0.000000 0.000000 0.000000
USER    NEWDPF tran0 15.580930 8.646518 0.154666
USER    NEWDPF quaternion0 0.123035 0.000004 -0.988911 -0.083175
USER    NEWDPF axisangle0 0.123462 0.000004 -0.992349 -170.457815
USER    NEWDPF quat0 0.123462 0.000004 -0.992349 -170.457815
USER    NEWDPF dihe0 -160.56 -128.32 -176.74 79.38 -160.46 177.29 -170.91 -41.96 140.72 157.62 122.48 -22.42 64.41 174.76 -96.28 -85.81 71.41 104.10 53.11 
USER  keepresnum = 1 
USER  
REMARK  19 active torsions:
REMARK  status: ('A' for Active; 'I' for Inactive)
REMARK    1  A    between atoms: C2_2  and  C3_3 
REMARK    2  A    between atoms: C2_2  and  N10_81 
REMARK       I    between atoms: C3_3  and  N1_72 
REMARK    3  A    between atoms: C4_4  and  C5_5 
REMARK    4  A    between atoms: C4_4  and  C59_59 
REMARK    5  A    between atoms: C4_4  and  N1_72 
REMARK       I    between atoms: C5_5  and  N2_73 
REMARK    6  A    between atoms: C7_7  and  N4_75 
REMARK    7  A    between atoms: C9_9  and  C10_10 
REMARK       I    between atoms: C10_10  and  N3_74 
REMARK    8  A    between atoms: C11_11  and  N3_74 
REMARK    9  A    between atoms: C21_21  and  C22_22 
REMARK       I    between atoms: C21_21  and  N4_75 
REMARK   10  A    between atoms: C25_25  and  C28_28 
REMARK       I    between atoms: C28_28  and  N5_76 
REMARK   11  A    between atoms: C29_29  and  N5_76 
REMARK   12  A    between atoms: C34_34  and  C46_46 
REMARK   13  A    between atoms: C36_36  and  C37_37 
REMARK       I    between atoms: C36_36  and  N6_77 
REMARK   14  A    between atoms: C37_37  and  C38_38 
REMARK   15  A    between atoms: C37_37  and  N7_78 
REMARK   16  A    between atoms: C38_38  and  S1_82 
REMARK   17  A    between atoms: C42_42  and  C43_43 
REMARK       I    between atoms: C42_42  and  N7_78 
REMARK   18  A    between atoms: C43_43  and  N8_79 
REMARK       I    between atoms: C46_46  and  N9_80 
REMARK   19  A    between atoms: C47_47  and  N9_80 
USER                              x       y       z     vdW  Elec       q    Type
USER                           _______ _______ _______ _____ _____    ______ ____
ROOT
ATOM      1  C22 UNL     1      18.565   7.525  -2.466 +2.72 +0.00    +0.032 A 
ATOM      2  C23 UNL     1      17.760   6.892  -3.423 +3.56 +0.00    +0.018 A 
ATOM      3  C24 UNL     1      16.411   6.642  -3.159+12.25 +0.00    +0.018 A 
ATOM      4  C25 UNL     1      15.860   7.005  -1.925 +5.77 +0.00    +0.032 A 
ATOM      5  C26 UNL     1      16.658   7.641  -0.964 +0.29 +0.00    +0.018 A 
ATOM      6  C27 UNL     1      18.009   7.894  -1.232+22.04 +0.00    +0.018 A 
ENDROOT
BRANCH   4   7
ATOM      7  C28 UNL     1      14.418   6.731  -1.680 +8.56 +0.00    +0.256 C 
ATOM      8  O5  UNL     1      13.842   5.962  -2.440 +4.92 -0.00    -0.267 OA
ATOM      9  N5  UNL     1      13.884   7.385  -0.585 +0.04 -0.00    -0.323 N 
ATOM     10  H78 UNL     1      14.523   7.915  -0.006 -0.33 +0.00    +0.169 HD
BRANCH   9  11
ATOM     11  C29 UNL     1      12.544   7.364  -0.144 +1.77 +0.00    +0.035 A 
ATOM     12  C30 UNL     1      12.097   6.633   0.957 -0.35 +0.00    +0.039 A 
ATOM     13  C31 UNL     1      10.737   6.619   1.305 -0.31 -0.00    -0.032 A 
ATOM     14  C32 UNL     1       9.819   7.356   0.546 -0.18 -0.00    -0.048 A 
ATOM     15  C35 UNL     1      10.270   5.856   2.519 -0.19 +0.00    +0.166 C 
ATOM     16  C33 UNL     1       8.364   7.279   0.920 -0.35 +0.00    +0.074 C 
ATOM     17  C57 UNL     1      10.264   8.118  -0.536 +1.60 +0.00    +0.010 A 
ATOM     18  C34 UNL     1       8.018   5.846   1.355 -0.14 +0.00    +0.184 C 
ATOM     19  N6  UNL     1       8.885   5.372   2.464 -0.04 -0.00    -0.332 N 
ATOM     20  C36 UNL     1       8.300   4.626   3.480 -0.14 +0.00    +0.245 C 
ATOM     21  O6  UNL     1       7.088   4.370   3.467 -0.09 -0.00    -0.271 OA
ATOM     22  C58 UNL     1      11.618   8.117  -0.879+36.73 +0.00    +0.030 A 
BRANCH  18  23
ATOM     23  C46 UNL     1       8.048   4.918   0.113 -0.08 +0.00    +0.241 C 
ATOM     24  O8  UNL     1       7.134   4.905  -0.712 -0.08 -0.00    -0.271 OA
ATOM     25  N9  UNL     1       9.180   4.152  -0.026 -0.01 -0.00    -0.351 N 
ATOM     26  H81 UNL     1       9.860   4.145   0.725 -0.33 +0.00    +0.163 HD
BRANCH  25  27
ATOM     27  C47 UNL     1       9.465   3.372  -1.216 -0.15 +0.00    +0.118 C 
ATOM     28  C48 UNL     1       9.849   4.276  -2.397 -0.23 +0.00    +0.030 C 
ATOM     29  C49 UNL     1       8.620   4.934  -3.013 -0.15 +0.00    +0.007 C 
ATOM     30  C50 UNL     1       7.662   3.876  -3.556 -0.18 +0.00    +0.039 C 
ATOM     31  C51 UNL     1       7.402   2.748  -2.588 -0.12 -0.00    -0.050 A 
ATOM     32  C52 UNL     1       6.287   1.919  -2.790 -0.10 +0.00    +0.007 A 
ATOM     33  C56 UNL     1       8.270   2.486  -1.512 -0.10 -0.00    -0.029 A 
ATOM     34  C53 UNL     1       6.015   0.865  -1.919 -0.13 +0.00    +0.001 A 
ATOM     35  C54 UNL     1       6.861   0.616  -0.843 -0.13 +0.00    +0.001 A 
ATOM     36  C55 UNL     1       7.983   1.417  -0.645 -0.14 +0.00    +0.010 A 
ENDBRANCH  25  27
ENDBRANCH  18  23
BRANCH  20  37
ATOM     37  C37 UNL     1       9.155   4.152   4.688 -0.27 +0.00    +0.194 C 
BRANCH  37  38
ATOM     38  C38 UNL     1       8.330   3.933   5.996 -0.42 +0.00    +0.029 C 
ATOM     39  C39 UNL     1       8.866   2.778   6.867 +0.93 +0.00    +0.029 C 
ATOM     40  C40 UNL     1       6.863   3.605   5.649 +0.34 +0.00    +0.029 C 
BRANCH  38  41
ATOM     41  S1  UNL     1       8.402   5.436   7.092 -0.40 -0.00    -0.162 SA
ATOM     42  C41 UNL     1       9.979   5.211   7.962 -0.25 +0.00    +0.090 C 
ENDBRANCH  38  41
ENDBRANCH  37  38
BRANCH  37  43
ATOM     43  N7  UNL     1      10.157   5.222   4.839 -0.09 -0.00    -0.344 N 
ATOM     44  C42 UNL     1      11.496   4.900   4.991 -0.18 +0.00    +0.251 C 
ATOM     45  O7  UNL     1      11.865   3.747   5.205 -0.30 -0.00    -0.271 OA
ATOM     46  H79 UNL     1       9.963   6.063   4.303 +0.09 +0.00    +0.163 HD
BRANCH  44  47
ATOM     47  C43 UNL     1      12.441   6.117   4.845 -0.18 +0.00    +0.307 C 
ATOM     48  C44 UNL     1      12.701   6.698   6.234 -0.43 +0.00    +0.053 C 
BRANCH  47  49
ATOM     49  N8  UNL     1      11.875   7.166   3.975 -0.33 +0.00    +0.092 N 
ATOM     50  C45 UNL     1      12.563   8.442   4.132 -0.10 +0.00    +0.307 C 
ATOM     51  H80 UNL     1      10.887   7.291   4.189 +0.20 +0.00    +0.316 HD
ENDBRANCH  47  49
ENDBRANCH  44  47
ENDBRANCH  37  43
ENDBRANCH  20  37
ENDBRANCH   9  11
ENDBRANCH   4   7
BRANCH   1  52
ATOM     52  C21 UNL     1      19.998   7.766  -2.801+12.31 +0.00    +0.252 C 
ATOM     53  O4  UNL     1      20.306   8.285  -3.868+22.52 -0.00    -0.268 OA
ATOM     54  N4  UNL     1      20.924   7.396  -1.853 +1.22 -0.00    -0.351 N 
ATOM     55  H77 UNL     1      20.615   7.146  -0.917 +3.23 +0.00    +0.163 HD
BRANCH  54  56
ATOM     56  C7  UNL     1      22.354   7.645  -2.029+14.75 +0.00    +0.105 C 
ATOM     57  C6  UNL     1      22.719   9.049  -1.552+47.34 +0.00    +0.152 C 
ATOM     58  N2  UNL     1      22.706   8.922  -0.100 -0.23 -0.00    -0.335 N 
ATOM     59  C5  UNL     1      21.620   9.460   0.599 -0.11 +0.00    +0.244 C 
ATOM     60  C9  UNL     1      23.188   7.570   0.248 -0.35 +0.00    +0.181 C 
ATOM     61  O2  UNL     1      20.640   9.926   0.010 -0.26 -0.00    -0.271 OA
ATOM     62  C8  UNL     1      23.205   6.793  -1.084 -0.56 +0.00    +0.061 C 
BRANCH  59  63
ATOM     63  C4  UNL     1      21.790   9.609   2.136 -0.36 +0.00    +0.184 C 
BRANCH  63  64
ATOM     64  C59 UNL     1      21.948   8.263   2.917 +0.49 -0.00    -0.022 C 
ATOM     65  C60 UNL     1      22.982   8.414   4.049 +4.02 +0.00    +0.017 C 
ATOM     66  C61 UNL     1      22.381   7.074   2.035+18.61 +0.00    +0.017 C 
ATOM     67  C62 UNL     1      20.594   7.902   3.570 +4.11 +0.00    +0.017 C 
ENDBRANCH  63  64
BRANCH  63  68
ATOM     68  N1  UNL     1      20.600  10.349   2.577 -0.15 -0.00    -0.345 N 
ATOM     69  C3  UNL     1      19.340   9.791   2.494 -0.28 +0.00    +0.251 C 
ATOM     70  O1  UNL     1      19.139   8.676   2.019 +1.50 -0.00    -0.271 OA
ATOM     71  H75 UNL     1      20.729  11.019   3.322 +0.18 +0.00    +0.163 HD
BRANCH  69  72
ATOM     72  C2  UNL     1      18.208  10.636   3.111 -0.16 +0.00    +0.307 C 
ATOM     73  C1  UNL     1      17.586   9.923   4.311 -0.25 +0.00    +0.053 C 
BRANCH  72  74
ATOM     74  N10 UNL     1      17.156  10.936   2.118 -0.42 +0.00    +0.092 N 
ATOM     75  C63 UNL     1      15.866  10.374   2.496 -0.23 +0.00    +0.307 C 
ATOM     76  H82 UNL     1      17.062  11.938   1.971 +0.28 +0.00    +0.316 HD
ENDBRANCH  72  74
ENDBRANCH  69  72
ENDBRANCH  63  68
ENDBRANCH  59  63
BRANCH  60  77
ATOM     77  C10 UNL     1      24.570   7.487   0.920 -0.31 +0.00    +0.241 C 
ATOM     78  O3  UNL     1      25.257   8.493   1.086 -0.26 -0.00    -0.271 OA
ATOM     79  N3  UNL     1      24.971   6.234   1.300 -0.16 -0.00    -0.351 N 
ATOM     80  H76 UNL     1      24.447   5.427   0.954 +0.12 +0.00    +0.163 HD
BRANCH  79  81
ATOM     81  C11 UNL     1      26.295   5.937   1.835 +3.31 +0.00    +0.118 C 
ATOM     82  C12 UNL     1      27.120   5.288   0.712 +0.10 +0.00    +0.030 C 
ATOM     83  C13 UNL     1      28.611   5.328   1.008 +0.99 +0.00    +0.007 C 
ATOM     84  C14 UNL     1      29.074   6.777   1.099 -0.29 +0.00    +0.039 C 
ATOM     85  C15 UNL     1      28.250   7.575   2.078 -0.24 -0.00    -0.050 A 
ATOM     86  C16 UNL     1      28.800   8.744   2.629 +5.47 +0.00    +0.007 A 
ATOM     87  C20 UNL     1      26.941   7.185   2.426 +0.92 -0.00    -0.029 A 
ATOM     88  C17 UNL     1      28.084   9.500   3.556+15.28 +0.00    +0.001 A 
ATOM     89  C18 UNL     1      26.813   9.092   3.945 +9.78 +0.00    +0.001 A 
ATOM     90  C19 UNL     1      26.250   7.943   3.389 -0.41 +0.00    +0.010 A 
ENDBRANCH  79  81
ENDBRANCH  60  77
ENDBRANCH  54  56
ENDBRANCH   1  52
TORSDOF 19
TER
