USER    Run = 1
USER    DPF = ligand_423_receptor.dpf
USER  
USER    Estimated Free Energy of Binding    =  +1.89e+005 kcal/mol  [=(1)+(2)+(3)-(4)]
USER    
USER    (1) Final Intermolecular Energy     =  +1.89e+005 kcal/mol
USER        vdW + Hbond + desolv Energy     =  +1.89e+005 kcal/mol
USER        Electrostatic Energy            =   +0.00 kcal/mol
USER    (2) Final Total Internal Energy     =   +0.00 kcal/mol
USER    (3) Torsional Free Energy           =   +1.19 kcal/mol
USER    (4) Unbound System's Energy  [=(2)] =   +0.00 kcal/mol
USER    
USER    
USER    NEWDPF move ligand_423.pdbqt
USER    NEWDPF about 0.000000 0.000000 0.000000
USER    NEWDPF tran0 18.755023 6.041647 3.116526
USER    NEWDPF quaternion0 -0.151422 0.934450 0.312785 -0.077725
USER    NEWDPF axisangle0 -0.151881 0.937285 0.313734 -171.084418
USER    NEWDPF quat0 -0.151881 0.937285 0.313734 -171.084418
USER  keepresnum = 1 
USER  
REMARK  0 active torsions:
REMARK  status: ('A' for Active; 'I' for Inactive)
REMARK       I    between atoms: C2_2  and  C3_3 
REMARK       I    between atoms: C3_3  and  C5_5 
REMARK       I    between atoms: C5_5  and  C62_62 
REMARK       I    between atoms: C5_5  and  N1_78 
REMARK       I    between atoms: C6_6  and  C7_7 
REMARK       I    between atoms: C6_6  and  N1_78 
REMARK       I    between atoms: C7_7  and  C8_8 
REMARK       I    between atoms: C7_7  and  N3_80 
REMARK       I    between atoms: C8_8  and  C9_9 
REMARK       I    between atoms: C17_17  and  C18_18 
REMARK       I    between atoms: C17_17  and  N3_80 
REMARK       I    between atoms: C18_18  and  C59_59 
REMARK       I    between atoms: C18_18  and  N4_81 
REMARK       I    between atoms: C19_19  and  C20_20 
REMARK       I    between atoms: C19_19  and  N4_81 
REMARK       I    between atoms: C20_20  and  C21_21 
REMARK       I    between atoms: C20_20  and  N6_83 
REMARK       I    between atoms: C21_21  and  C22_22 
REMARK       I    between atoms: C30_30  and  C31_31 
REMARK       I    between atoms: C30_30  and  N6_83 
REMARK       I    between atoms: C31_31  and  C32_32 
REMARK       I    between atoms: C31_31  and  N8_85 
REMARK       I    between atoms: C32_32  and  C33_33 
REMARK       I    between atoms: C41_41  and  C42_42 
REMARK       I    between atoms: C41_41  and  N8_85 
REMARK       I    between atoms: C42_42  and  C43_43 
REMARK       I    between atoms: C42_42  and  N12_90 
REMARK       I    between atoms: C43_43  and  C44_44 
REMARK       I    between atoms: C44_44  and  C45_45 
REMARK       I    between atoms: C45_45  and  N9_86 
REMARK       I    between atoms: C46_46  and  N9_86 
REMARK       I    between atoms: C46_46  and  N10_87 
REMARK       I    between atoms: C46_46  and  N11_89 
REMARK       I    between atoms: C47_47  and  C48_48 
REMARK       I    between atoms: C47_47  and  N12_90 
REMARK       I    between atoms: C48_48  and  C49_49 
REMARK       I    between atoms: C48_48  and  N14_92 
REMARK       I    between atoms: C49_49  and  C50_50 
REMARK       I    between atoms: C50_50  and  C51_51 
REMARK       I    between atoms: C51_51  and  C52_52 
REMARK       I    between atoms: C52_52  and  N13_91 
REMARK       I    between atoms: C53_53  and  C54_54 
REMARK       I    between atoms: C53_53  and  N14_92 
REMARK       I    between atoms: C54_54  and  C55_55 
REMARK       I    between atoms: C54_54  and  N15_93 
REMARK       I    between atoms: C55_55  and  C56_56 
REMARK       I    between atoms: C56_56  and  C57_57 
REMARK       I    between atoms: C57_57  and  C58_58 
REMARK       I    between atoms: C58_58  and  N16_94 
REMARK       I    between atoms: C62_62  and  N17_95 
REMARK       I    between atoms: C63_63  and  C64_64 
REMARK       I    between atoms: C63_63  and  C68_68 
REMARK       I    between atoms: C63_63  and  N17_95 
REMARK       I    between atoms: C64_64  and  C65_65 
REMARK       I    between atoms: C65_65  and  C66_66 
REMARK       I    between atoms: C66_66  and  N18_96 
REMARK       I    between atoms: C67_67  and  N18_96 
REMARK       I    between atoms: C67_67  and  N20_99 
REMARK       I    between atoms: C68_68  and  N21_100 
REMARK       I    between atoms: C69_69  and  C70_70 
REMARK       I    between atoms: C69_69  and  C77_77 
REMARK       I    between atoms: C69_69  and  N21_100 
REMARK       I    between atoms: C70_70  and  C71_71 
REMARK       I    between atoms: C74_74  and  O10_110 
REMARK       I    between atoms: C77_77  and  O12_112 
USER                              x       y       z     vdW  Elec       q    Type
USER                           _______ _______ _______ _____ _____    ______ ____
ROOT
ATOM      1  C1  UNL     1      25.374   9.781  -1.540+99.99 +0.00    +0.005 C 
ATOM      2  C2  UNL     1      25.698   8.463  -2.233+99.99 +0.00    +0.002 C 
ATOM      3  C3  UNL     1      26.632   7.545  -1.412 +1.75 +0.00    +0.013 C 
ATOM      4  C4  UNL     1      27.482   6.715  -2.391 +1.51 +0.00    +0.012 C 
ATOM      5  C5  UNL     1      25.875   6.588  -0.458 -0.33 +0.00    +0.180 C 
ATOM      6  C6  UNL     1      23.567   7.179   0.281 -0.35 +0.00    +0.241 C 
ATOM      7  C7  UNL     1      22.753   7.917   1.358 +0.24 +0.00    +0.181 C 
ATOM      8  C8  UNL     1      22.777   7.127   2.688+14.23 +0.00    +0.075 C 
ATOM      9  C9  UNL     1      21.524   6.356   2.997+99.99 -0.00    -0.028 A 
ATOM     10  C10 UNL     1      20.591   6.713   3.952+39.12 +0.00    +0.096 A 
ATOM     11  C11 UNL     1      19.795   4.873   2.941+99.99 +0.00    +0.042 A 
ATOM     12  C12 UNL     1      19.009   3.787   2.541+99.99 +0.00    +0.030 A 
ATOM     13  C13 UNL     1      19.506   2.962   1.530+99.99 +0.00    +0.002 A 
ATOM     14  C14 UNL     1      20.744   3.215   0.947+99.99 +0.00    +0.001 A 
ATOM     15  C15 UNL     1      21.518   4.307   1.358+99.99 +0.00    +0.014 A 
ATOM     16  C16 UNL     1      21.038   5.161   2.373+99.99 -0.00    -0.002 A 
ATOM     17  C17 UNL     1      20.577   9.075   1.439 +6.16 +0.00    +0.241 C 
ATOM     18  C18 UNL     1      19.108   9.007   0.970+10.17 +0.00    +0.180 C 
ATOM     19  C19 UNL     1      17.398   8.584   2.718 -0.41 +0.00    +0.241 C 
ATOM     20  C20 UNL     1      16.833   9.092   4.070 -0.40 +0.00    +0.181 C 
ATOM     21  C21 UNL     1      17.917   9.386   5.129 +3.89 +0.00    +0.075 C 
ATOM     22  C22 UNL     1      17.645  10.658   5.881 +9.16 -0.00    -0.028 A 
ATOM     23  C23 UNL     1      18.289  11.866   5.697+99.99 +0.00    +0.096 A 
ATOM     24  C24 UNL     1      16.768  12.185   7.328 +7.61 +0.00    +0.042 A 
ATOM     25  C25 UNL     1      15.956  12.727   8.331+99.99 +0.00    +0.030 A 
ATOM     26  C26 UNL     1      15.021  11.881   8.937+18.29 +0.00    +0.002 A 
ATOM     27  C27 UNL     1      14.911  10.547   8.557+99.99 +0.00    +0.001 A 
ATOM     28  C28 UNL     1      15.737  10.021   7.557+99.99 +0.00    +0.014 A 
ATOM     29  C29 UNL     1      16.681  10.853   6.922+34.76 -0.00    -0.002 A 
ATOM     30  C30 UNL     1      16.021   6.921   5.005 +1.85 +0.00    +0.241 C 
ATOM     31  C31 UNL     1      14.752   6.050   5.090 +4.35 +0.00    +0.181 C 
ATOM     32  C32 UNL     1      14.865   5.018   6.217+20.64 +0.00    +0.075 C 
ATOM     33  C33 UNL     1      14.789   5.642   7.576 -0.21 -0.00    -0.028 A 
ATOM     34  C34 UNL     1      15.853   5.894   8.417+76.17 +0.00    +0.096 A 
ATOM     35  C35 UNL     1      14.010   6.630   9.475 +0.30 +0.00    +0.042 A 
ATOM     36  C36 UNL     1      13.108   7.180  10.393+14.12 +0.00    +0.030 A 
ATOM     37  C37 UNL     1      11.756   7.205  10.037+45.72 +0.00    +0.002 A 
ATOM     38  C38 UNL     1      11.328   6.699   8.812+89.06 +0.00    +0.001 A 
ATOM     39  C39 UNL     1      12.243   6.149   7.908 -0.37 +0.00    +0.014 A 
ATOM     40  C40 UNL     1      13.612   6.110   8.244 -0.61 -0.00    -0.002 A 
ATOM     41  C41 UNL     1      14.165   6.098   2.691+99.99 +0.00    +0.241 C 
ATOM     42  C42 UNL     1      14.370   5.358   1.348+99.99 +0.00    +0.176 C 
ATOM     43  C43 UNL     1      13.910   6.174   0.132+13.77 +0.00    +0.036 C 
ATOM     44  C44 UNL     1      12.393   6.346  -0.003 -0.50 +0.00    +0.022 C 
ATOM     45  C45 UNL     1      12.049   7.251  -1.187 +0.39 +0.00    +0.122 C 
ATOM     46  C46 UNL     1      10.062   8.193  -2.237 -0.34 +0.00    +0.143 C 
ATOM     47  C47 UNL     1      14.329   2.954   1.984+99.99 +0.00    +0.241 C 
ATOM     48  C48 UNL     1      13.410   1.732   2.156+99.99 +0.00    +0.176 C 
ATOM     49  C49 UNL     1      12.936   1.193   0.796+99.99 +0.00    +0.035 C 
ATOM     50  C50 UNL     1      14.094   0.625  -0.033 +5.44 +0.00    +0.004 C 
ATOM     51  C51 UNL     1      13.641   0.002  -1.358+10.59 +0.00    +0.030 C 
ATOM     52  C52 UNL     1      13.130   1.036  -2.362+11.50 +0.00    +0.267 C 
ATOM     53  C53 UNL     1      11.460   1.272   3.615+12.51 +0.00    +0.251 C 
ATOM     54  C54 UNL     1      10.526   1.932   4.650+15.05 +0.00    +0.308 C 
ATOM     55  C55 UNL     1       9.342   2.628   3.966 +3.11 +0.00    +0.045 C 
ATOM     56  C56 UNL     1       8.430   1.696   3.156+34.66 +0.00    +0.004 C 
ATOM     57  C57 UNL     1       7.819   0.519   3.926+99.99 +0.00    +0.030 C 
ATOM     58  C58 UNL     1       6.954   0.955   5.109+99.99 +0.00    +0.267 C 
ATOM     59  C59 UNL     1      18.812   9.861  -0.279 +0.36 +0.00    +0.009 C 
ATOM     60  C60 UNL     1      19.223  11.329  -0.125 -0.54 +0.00    +0.012 C 
ATOM     61  C61 UNL     1      19.448   9.272  -1.540+99.99 +0.00    +0.012 C 
ATOM     62  C62 UNL     1      26.812   5.882   0.545 -0.19 +0.00    +0.241 C 
ATOM     63  C63 UNL     1      26.712   4.415   2.563+99.99 +0.00    +0.176 C 
ATOM     64  C64 UNL     1      28.070   3.711   2.435+99.99 +0.00    +0.036 C 
ATOM     65  C65 UNL     1      28.665   3.189   3.750+99.99 +0.00    +0.022 C 
ATOM     66  C66 UNL     1      27.737   2.258   4.533+99.99 +0.00    +0.122 C 
ATOM     67  C67 UNL     1      28.829   2.203   6.732+18.54 +0.00    +0.143 C 
ATOM     68  C68 UNL     1      26.642   5.568   3.588+99.99 +0.00    +0.241 C 
ATOM     69  C69 UNL     1      27.710   7.662   4.378+99.99 +0.00    +0.186 C 
ATOM     70  C70 UNL     1      29.174   7.977   4.732+99.99 +0.00    +0.074 C 
ATOM     71  C71 UNL     1      29.342   8.437   6.162+99.99 -0.00    -0.056 A 
ATOM     72  C72 UNL     1      29.502   9.796   6.465+99.99 +0.00    +0.010 A 
ATOM     73  C73 UNL     1      29.642  10.209   7.791+99.99 +0.00    +0.037 A 
ATOM     74  C74 UNL     1      29.618   9.269   8.814+99.99 +0.00    +0.065 A 
ATOM     75  C75 UNL     1      29.455   7.916   8.534+68.74 +0.00    +0.037 A 
ATOM     76  C76 UNL     1      29.317   7.501   7.208+99.99 +0.00    +0.010 A 
ATOM     77  C77 UNL     1      27.051   8.896   3.745+15.38 +0.00    +0.163 C 
ATOM     78  N1  UNL     1      24.932   7.283   0.421 -0.14 -0.00    -0.346 N 
ATOM     79  N2  UNL     1      19.547   5.831   3.896+20.63 -0.00    -0.365 N 
ATOM     80  N3  UNL     1      21.420   8.179   0.827+28.55 -0.00    -0.346 N 
ATOM     81  N4  UNL     1      18.296   9.437   2.110 -0.16 -0.00    -0.346 N 
ATOM     82  N5  UNL     1      17.755  12.774   6.573+99.99 -0.00    -0.365 N 
ATOM     83  N6  UNL     1      15.767   8.196   4.525 -0.17 -0.00    -0.346 N 
ATOM     84  N7  UNL     1      15.376   6.488   9.553 +2.85 -0.00    -0.365 N 
ATOM     85  N8  UNL     1      14.637   5.393   3.787+99.99 -0.00    -0.346 N 
ATOM     86  N9  UNL     1      10.602   7.375  -1.304 -0.12 -0.00    -0.367 N 
ATOM     87  N10 UNL     1      10.720   8.990  -2.991 -0.16 -0.00    -0.376 N 
ATOM     88  H10 UNL     1      11.732   9.116  -2.969 -0.30 +0.00    +0.158 HD
ATOM     89  N11 UNL     1       8.720   8.073  -2.272 -0.19 -0.00    -0.274 NA
ATOM     90  N12 UNL     1      13.713   4.050   1.411+99.99 -0.00    -0.346 N 
ATOM     91  N13 UNL     1      12.776   0.387  -3.619+60.16 +0.00    +0.078 N 
ATOM     92  N14 UNL     1      12.292   2.180   2.988+99.99 -0.00    -0.346 N 
ATOM     93  N15 UNL     1      11.309   2.947   5.407 -0.39 +0.00    +0.092 N 
ATOM     94  N16 UNL     1       6.337  -0.197   5.757+99.99 +0.00    +0.078 N 
ATOM     95  N17 UNL     1      26.170   4.911   1.297 +0.48 -0.00    -0.346 N 
ATOM     96  N18 UNL     1      28.466   1.571   5.591 +0.97 -0.00    -0.367 N 
ATOM     97  N19 UNL     1      28.730   3.459   6.958+14.71 -0.00    -0.376 N 
ATOM     98  H19 UNL     1      28.388   4.152   6.293 -0.18 +0.00    +0.158 HD
ATOM     99  N20 UNL     1      29.332   1.328   7.627+18.16 -0.00    -0.274 NA
ATOM    100  N21 UNL     1      27.664   6.482   3.511+99.99 -0.00    -0.345 N 
ATOM    101  O1  UNL     1      23.046   6.526  -0.622 -0.41 -0.00    -0.271 OA
ATOM    102  O2  UNL     1      20.963   9.887   2.280 -0.31 -0.00    -0.271 OA
ATOM    103  O3  UNL     1      17.022   7.540   2.184 -0.51 -0.00    -0.271 OA
ATOM    104  O4  UNL     1      17.151   6.481   5.207+72.31 -0.00    -0.271 OA
ATOM    105  O5  UNL     1      13.682   7.223   2.797 -0.22 -0.00    -0.271 OA
ATOM    106  O6  UNL     1      15.501   2.962   2.351+99.99 -0.00    -0.271 OA
ATOM    107  O7  UNL     1      11.436   0.072   3.367+10.34 -0.00    -0.271 OA
ATOM    108  O8  UNL     1      27.973   6.228   0.752 -0.15 -0.00    -0.271 OA
ATOM    109  O9  UNL     1      25.678   5.707   4.337 +4.00 -0.00    -0.271 OA
ATOM    110  O10 UNL     1      29.753   9.718  10.094 -0.53 -0.00    -0.361 OA
ATOM    111  O11 UNL     1      27.079  10.036   4.188 +2.82 -0.00    -0.648 OA
ATOM    112  O12 UNL     1      26.368   8.684   2.593 -0.01 -0.00    -0.775 OA
ATOM    113  H82 UNL     1      25.325   7.767   1.229 +0.13 +0.00    +0.163 HD
ATOM    114  H83 UNL     1      18.698   5.892   4.453+99.99 +0.00    +0.165 HD
ATOM    115  H84 UNL     1      21.006   7.405   0.313+99.99 +0.00    +0.163 HD
ATOM    116  H85 UNL     1      18.689  10.201   2.650 +0.13 +0.00    +0.163 HD
ATOM    117  H86 UNL     1      18.043  13.739   6.659+78.02 +0.00    +0.165 HD
ATOM    118  H87 UNL     1      14.895   8.273   3.998 +0.10 +0.00    +0.163 HD
ATOM    119  H88 UNL     1      15.942   6.792  10.334 +3.20 +0.00    +0.165 HD
ATOM    120  H89 UNL     1      15.344   4.690   3.566+99.99 +0.00    +0.163 HD
ATOM    121  H90 UNL     1      10.120   6.486  -1.258 +0.09 +0.00    +0.162 HD
ATOM    122  H91 UNL     1      10.083   9.480  -3.619 +0.09 +0.00    +0.158 HD
ATOM    123  H92 UNL     1       8.327   7.950  -1.345 -0.04 +0.00    +0.127 HD
ATOM    124  H93 UNL     1       8.249   8.825  -2.757 -0.03 +0.00    +0.127 HD
ATOM    125  H94 UNL     1      12.699   4.042   1.448+99.99 +0.00    +0.163 HD
ATOM    126  H95 UNL     1      13.596  -0.078  -4.009+99.99 +0.00    +0.312 HD
ATOM    127  H96 UNL     1      12.501   1.094  -4.301 +0.27 +0.00    +0.312 HD
ATOM    128  H97 UNL     1      12.425   3.009   3.570 +5.65 +0.00    +0.163 HD
ATOM    129  H98 UNL     1      12.005   2.449   5.969 +0.54 +0.00    +0.313 HD
ATOM    130  H99 UNL     1      10.689   3.380   6.094 +0.22 +0.00    +0.313 HD
ATOM    131  HA0 UNL     1       7.059  -0.860   6.040 +5.50 +0.00    +0.312 HD
ATOM    132  HA1 UNL     1       5.756  -0.697   5.083 +0.71 +0.00    +0.312 HD
ATOM    133  HA2 UNL     1      25.158   4.904   1.224 +0.10 +0.00    +0.163 HD
ATOM    134  HA3 UNL     1      28.082   0.653   5.780 +0.01 +0.00    +0.162 HD
ATOM    135  HA4 UNL     1      29.047   3.659   7.906 +3.86 +0.00    +0.158 HD
ATOM    136  HA5 UNL     1      29.886   0.603   7.184+99.99 +0.00    +0.127 HD
ATOM    137  HA6 UNL     1      29.847   1.754   8.386 +0.75 +0.00    +0.127 HD
ATOM    138  HA7 UNL     1      28.165   6.525   2.621 +1.20 +0.00    +0.163 HD
ATOM    139  HA8 UNL     1      29.675   8.958  10.694 +0.24 +0.00    +0.217 HD
ATOM    140  HA9 UNL     1      26.071   9.604   2.404 +0.11 +0.00    +0.167 HD
ENDROOT
TORSDOF 51
TER
