USER    Run = 1
USER    DPF = ligand_10_receptor.dpf
USER  
USER    Estimated Free Energy of Binding    =   -4.49 kcal/mol  [=(1)+(2)+(3)-(4)]
USER    Estimated Inhibition Constant, Ki   =  515.21 uM (micromolar)  [Temperature = 298.15 K]
USER    
USER    (1) Final Intermolecular Energy     =   -5.68 kcal/mol
USER        vdW + Hbond + desolv Energy     =   -5.68 kcal/mol
USER        Electrostatic Energy            =   +0.00 kcal/mol
USER    (2) Final Total Internal Energy     =  +10.28 kcal/mol
USER    (3) Torsional Free Energy           =   +1.19 kcal/mol
USER    (4) Unbound System's Energy  [=(2)] =  +10.28 kcal/mol
USER    
USER    
USER    NEWDPF move ligand_10.pdbqt
USER    NEWDPF about 0.000000 0.000000 0.000000
USER    NEWDPF tran0 8.916676 11.822178 3.866922
USER    NEWDPF quaternion0 0.296240 0.934841 0.105467 0.164894
USER    NEWDPF axisangle0 0.300352 0.947816 0.106931 161.017829
USER    NEWDPF quat0 0.300352 0.947816 0.106931 161.017829
USER    NEWDPF dihe0 -101.98 -85.91 8.99 -53.89 45.51 179.76 -38.44 178.06 159.57 180.00 180.00 164.78 179.96 69.92 161.73 -101.73 -119.18 -172.21 
USER  keepresnum = 1 
USER  
REMARK  18 active torsions:
REMARK  status: ('A' for Active; 'I' for Inactive)
REMARK    1  A    between atoms: C3_3  and  O15_67 
REMARK    2  A    between atoms: C4_4  and  N1_68 
REMARK    3  A    between atoms: C6_6  and  O2_54 
REMARK    4  A    between atoms: C7_7  and  O2_54 
REMARK    5  A    between atoms: C9_9  and  C26_26 
REMARK    6  A    between atoms: C9_9  and  O9_61 
REMARK    7  A    between atoms: C13_13  and  O7_59 
REMARK    8  A    between atoms: C16_16  and  O3_55 
REMARK    9  A    between atoms: C21_21  and  O6_58 
REMARK   10  A    between atoms: C28_28  and  C29_29 
REMARK   11  A    between atoms: C28_28  and  N1_68 
REMARK   12  A    between atoms: C32_32  and  N2_69 
REMARK   13  A    between atoms: C35_35  and  C36_36 
REMARK       I    between atoms: C35_35  and  N2_69 
REMARK   14  A    between atoms: C38_38  and  N4_71 
REMARK   15  A    between atoms: C41_41  and  C42_42 
REMARK       I    between atoms: C41_41  and  N4_71 
REMARK   16  A    between atoms: C44_44  and  N6_73 
REMARK   17  A    between atoms: C47_47  and  C48_48 
REMARK       I    between atoms: C47_47  and  N6_73 
REMARK   18  A    between atoms: C50_50  and  N8_75 
USER                              x       y       z     vdW  Elec       q    Type
USER                           _______ _______ _______ _____ _____    ______ ____
ROOT
ATOM      1  N1  UNL     1      11.121   6.136   6.667 -0.27 +0.00    +0.095 N 
ATOM      2  H49 UNL     1      10.354   6.065   7.340 +0.24 +0.00    +0.316 HD
ENDROOT
BRANCH   1   3
ATOM      3  C4  UNL     1      10.527   6.187   5.306 -0.19 +0.00    +0.256 C 
ATOM      4  C3  UNL     1      11.120   7.415   4.560 -0.32 +0.00    +0.180 C 
ATOM      5  C2  UNL     1      10.268   7.835   3.337 -0.34 +0.00    +0.151 C 
ATOM      6  C1  UNL     1       9.469   9.127   3.501 +1.19 +0.00    +0.042 C 
ATOM      7  O1  UNL     1       9.441   6.762   2.879 -0.15 -0.00    -0.354 OA
ATOM      8  C6  UNL     1       8.519   6.234   3.833 -0.14 +0.00    +0.263 C 
ATOM      9  C5  UNL     1       9.009   6.317   5.283 +0.45 +0.00    +0.099 C 
BRANCH   4  10
ATOM     10  O15 UNL     1      11.299   8.507   5.473 -0.16 -0.00    -0.391 OA
ATOM     11  H48 UNL     1      10.427   8.953   5.503 +0.12 +0.00    +0.210 HD
ENDBRANCH   4  10
BRANCH   8  12
ATOM     12  O2  UNL     1       7.244   6.861   3.754 +0.10 -0.00    -0.351 OA
BRANCH  12  13
ATOM     13  C7  UNL     1       6.158   5.947   3.985 -0.03 +0.00    +0.164 C 
ATOM     14  C8  UNL     1       6.161   5.650   5.489 -0.20 +0.00    +0.083 C 
ATOM     15  C9  UNL     1       5.589   4.287   5.863 -0.34 +0.00    +0.124 C 
ATOM     16  C10 UNL     1       6.363   3.197   5.111 +1.34 +0.00    +0.088 C 
ATOM     17  C11 UNL     1       6.480   3.438   3.626 -0.22 -0.00    -0.009 A 
ATOM     18  C12 UNL     1       6.376   4.736   3.088 -0.15 +0.00    +0.014 A 
ATOM     19  C16 UNL     1       6.726   2.353   2.766 -0.23 +0.00    +0.088 A 
ATOM     20  C13 UNL     1       6.431   4.889   1.686 -0.11 +0.00    +0.090 A 
ATOM     21  C14 UNL     1       6.665   3.795   0.828 -0.08 +0.00    +0.066 A 
ATOM     22  C15 UNL     1       6.825   2.527   1.376 -0.14 +0.00    +0.066 A 
ATOM     23  C20 UNL     1       6.739   3.985  -0.641 -0.04 +0.00    +0.200 A 
ATOM     24  C17 UNL     1       7.081   1.377   0.495 -0.10 +0.00    +0.197 A 
ATOM     25  C18 UNL     1       7.190   1.568  -0.962 -0.10 +0.00    +0.032 A 
ATOM     26  O4  UNL     1       7.207   0.257   0.987 +0.92 -0.00    -0.286 OA
ATOM     27  C19 UNL     1       7.030   2.832  -1.536 -0.07 +0.00    +0.062 A 
ATOM     28  C24 UNL     1       7.460   0.447  -1.760 -0.16 +0.00    +0.017 A 
ATOM     29  C21 UNL     1       7.147   2.975  -2.937 -0.12 +0.00    +0.083 A 
ATOM     30  C22 UNL     1       7.417   1.844  -3.723 +0.12 +0.00    +0.038 A 
ATOM     31  C23 UNL     1       7.573   0.587  -3.138 -0.14 +0.00    +0.004 A 
ATOM     32  O5  UNL     1       6.547   5.119  -1.071 +0.61 -0.00    -0.286 OA
BRANCH  15  33
ATOM     33  C26 UNL     1       4.070   4.185   5.580 -0.22 +0.00    +0.157 C 
ATOM     34  C27 UNL     1       3.493   5.115   4.541 -0.15 +0.00    +0.094 C 
ATOM     35  O8  UNL     1       3.330   3.406   6.184 -0.24 -0.00    -0.295 OA
ENDBRANCH  15  33
BRANCH  15  36
ATOM     36  O9  UNL     1       5.812   4.130   7.275 -0.51 -0.00    -0.382 OA
ATOM     37  H47 UNL     1       4.954   4.063   7.726 +0.09 +0.00    +0.211 HD
ENDBRANCH  15  36
BRANCH  20  38
ATOM     38  O7  UNL     1       6.223   6.153   1.181 -0.14 -0.00    -0.359 OA
ATOM     39  H46 UNL     1       6.146   6.083   0.201 +0.04 +0.00    +0.217 HD
ENDBRANCH  20  38
BRANCH  29  40
ATOM     40  O6  UNL     1       6.990   4.227  -3.465 +0.01 -0.00    -0.355 OA
ATOM     41  C25 UNL     1       8.013   4.752  -4.298 -0.13 +0.00    +0.210 C 
ENDBRANCH  29  40
BRANCH  19  42
ATOM     42  O3  UNL     1       6.859   1.118   3.353 -0.16 -0.00    -0.359 OA
ATOM     43  H45 UNL     1       7.648   0.669   2.967 -0.17 +0.00    +0.217 HD
ENDBRANCH  19  42
ENDBRANCH  12  13
ENDBRANCH   8  12
ENDBRANCH   1   3
BRANCH   1  44
ATOM     44  C28 UNL     1      11.923   7.309   7.032 -0.07 +0.00    +0.308 C 
BRANCH  44  45
ATOM     45  C29 UNL     1      13.048   7.606   6.069 -0.40 -0.00    -0.030 A 
ATOM     46  C30 UNL     1      13.509   8.915   5.890 +0.24 +0.00    +0.011 A 
ATOM     47  C31 UNL     1      14.570   9.181   5.019 +1.26 +0.00    +0.030 A 
ATOM     48  C32 UNL     1      15.193   8.147   4.311 -0.47 +0.00    +0.035 A 
ATOM     49  C33 UNL     1      14.727   6.842   4.478 +0.14 +0.00    +0.030 A 
ATOM     50  C34 UNL     1      13.666   6.574   5.351 -0.45 +0.00    +0.011 A 
BRANCH  48  51
ATOM     51  N2  UNL     1      16.250   8.502   3.451 -0.28 -0.00    -0.322 N 
ATOM     52  C35 UNL     1      16.489   9.730   2.862 -0.33 +0.00    +0.273 C 
ATOM     53  O10 UNL     1      15.747  10.704   2.918 -0.18 -0.00    -0.266 OA
ATOM     54  H50 UNL     1      16.853   7.747   3.154 +0.07 +0.00    +0.169 HD
BRANCH  52  55
ATOM     55  C36 UNL     1      17.713   9.754   2.081 -0.38 +0.00    +0.105 A 
ATOM     56  C37 UNL     1      18.997   9.518   2.552 -0.36 +0.00    +0.066 A 
ATOM     57  C38 UNL     1      19.907   9.657   1.477 +0.01 +0.00    +0.053 A 
ATOM     58  C39 UNL     1      19.157   9.942   0.362 -0.18 +0.00    +0.120 A 
ATOM     59  N3  UNL     1      17.833   9.948   0.719 -0.18 -0.00    -0.354 N 
ATOM     60  C40 UNL     1      16.748  10.052  -0.235 +0.52 +0.00    +0.156 C 
BRANCH  57  61
ATOM     61  N4  UNL     1      21.278   9.523   1.577 -0.14 -0.00    -0.320 N 
ATOM     62  C41 UNL     1      21.990   9.298   2.740 -0.31 +0.00    +0.273 C 
ATOM     63  O11 UNL     1      21.515   9.266   3.870 -0.18 -0.00    -0.266 OA
ATOM     64  H51 UNL     1      21.800   9.691   0.728 +0.13 +0.00    +0.169 HD
BRANCH  62  65
ATOM     65  C42 UNL     1      23.419   9.158   2.515 -0.40 +0.00    +0.105 A 
ATOM     66  C43 UNL     1      24.023   8.428   1.500 -0.39 +0.00    +0.066 A 
ATOM     67  C44 UNL     1      25.427   8.529   1.643 -0.43 +0.00    +0.053 A 
ATOM     68  C45 UNL     1      25.655   9.346   2.723 -0.50 +0.00    +0.120 A 
ATOM     69  N5  UNL     1      24.443   9.767   3.213 -0.29 -0.00    -0.354 N 
ATOM     70  C46 UNL     1      24.306  10.776   4.242 +0.59 +0.00    +0.156 C 
BRANCH  67  71
ATOM     71  N6  UNL     1      26.354   7.908   0.828 -0.18 -0.00    -0.320 N 
ATOM     72  C47 UNL     1      26.133   6.774   0.070 -0.24 +0.00    +0.273 C 
ATOM     73  O12 UNL     1      25.106   6.107   0.060 -0.25 -0.00    -0.266 OA
ATOM     74  H52 UNL     1      27.293   8.277   0.868 +0.10 +0.00    +0.169 HD
BRANCH  72  75
ATOM     75  C48 UNL     1      27.293   6.390  -0.721 -0.26 +0.00    +0.105 A 
ATOM     76  C49 UNL     1      28.050   7.224  -1.534 -0.22 +0.00    +0.073 A 
ATOM     77  C50 UNL     1      29.082   6.454  -2.127 -0.17 +0.00    +0.120 A 
ATOM     78  C51 UNL     1      28.957   5.169  -1.634 -0.12 +0.00    +0.127 A 
ATOM     79  N7  UNL     1      27.902   5.149  -0.757 -0.08 -0.00    -0.354 N 
ATOM     80  C52 UNL     1      27.561   4.006   0.066 -0.20 +0.00    +0.156 C 
BRANCH  77  81
ATOM     81  N8  UNL     1      30.087   6.902  -3.059 -0.17 -0.00    -0.114 N 
ATOM     82  O13 UNL     1      31.231   6.450  -2.918 +0.02 -0.00    -0.532 OA
ATOM     83  O14 UNL     1      29.724   7.703  -3.930 -0.67 -0.00    -0.532 OA
ENDBRANCH  77  81
ENDBRANCH  72  75
ENDBRANCH  67  71
ENDBRANCH  62  65
ENDBRANCH  57  61
ENDBRANCH  52  55
ENDBRANCH  48  51
ENDBRANCH  44  45
ENDBRANCH   1  44
TORSDOF 18
TER
