USER    Run = 1
USER    DPF = ligand_60_receptor.dpf
USER  
USER    Estimated Free Energy of Binding    =  +1.24e+003 kcal/mol  [=(1)+(2)+(3)-(4)]
USER    
USER    (1) Final Intermolecular Energy     =  +1.23e+003 kcal/mol
USER        vdW + Hbond + desolv Energy     =  +1.23e+003 kcal/mol
USER        Electrostatic Energy            =   +0.00 kcal/mol
USER    (2) Final Total Internal Energy     = +474.30 kcal/mol
USER    (3) Torsional Free Energy           =   +1.19 kcal/mol
USER    (4) Unbound System's Energy  [=(2)] = +474.30 kcal/mol
USER    
USER    
USER    NEWDPF move ligand_60.pdbqt
USER    NEWDPF about 0.000000 0.000000 0.000000
USER    NEWDPF tran0 26.677040 12.563759 3.735359
USER    NEWDPF quaternion0 -0.596194 -0.328922 0.258584 0.685199
USER    NEWDPF axisangle0 -0.818547 -0.451596 0.355024 93.497522
USER    NEWDPF quat0 -0.818547 -0.451596 0.355024 93.497522
USER    NEWDPF dihe0 -32.81 130.92 173.32 30.81 -82.96 -123.62 60.54 180.00 -138.93 136.13 180.00 -36.76 -161.96 -6.28 180.00 -41.82 117.42 4.69 180.00 118.73 80.43 51.45 180.00 -100.67 180.00 -180.00 
USER  keepresnum = 1 
USER  
REMARK  26 active torsions:
REMARK  status: ('A' for Active; 'I' for Inactive)
REMARK    1  A    between atoms: C4_4  and  C5_5 
REMARK       I    between atoms: C5_5  and  N3_60 
REMARK    2  A    between atoms: C6_6  and  N3_60 
REMARK    3  A    between atoms: C8_8  and  C10_10 
REMARK       I    between atoms: C10_10  and  N5_62 
REMARK    4  A    between atoms: C11_11  and  N5_62 
REMARK    5  A    between atoms: C13_13  and  C14_14 
REMARK       I    between atoms: C14_14  and  N8_66 
REMARK    6  A    between atoms: C15_15  and  N8_66 
REMARK    7  A    between atoms: C17_17  and  C19_19 
REMARK       I    between atoms: C19_19  and  N10_68 
REMARK    8  A    between atoms: C20_20  and  C21_21 
REMARK    9  A    between atoms: C20_20  and  N10_68 
REMARK   10  A    between atoms: C21_21  and  C22_22 
REMARK   11  A    between atoms: C22_22  and  C23_23 
REMARK       I    between atoms: C23_23  and  N11_69 
REMARK   12  A    between atoms: C24_24  and  N11_69 
REMARK   13  A    between atoms: C26_26  and  C27_27 
REMARK       I    between atoms: C27_27  and  N14_73 
REMARK   14  A    between atoms: C28_28  and  N14_73 
REMARK   15  A    between atoms: C30_30  and  C32_32 
REMARK       I    between atoms: C32_32  and  N16_75 
REMARK   16  A    between atoms: C33_33  and  N16_75 
REMARK   17  A    between atoms: C35_35  and  C36_36 
REMARK       I    between atoms: C36_36  and  N19_79 
REMARK   18  A    between atoms: C37_37  and  N19_79 
REMARK   19  A    between atoms: C39_39  and  C41_41 
REMARK       I    between atoms: C41_41  and  N21_81 
REMARK   20  A    between atoms: C42_42  and  C43_43 
REMARK   21  A    between atoms: C42_42  and  N21_81 
REMARK   22  A    between atoms: C43_43  and  C44_44 
REMARK       I    between atoms: C44_44  and  N22_82 
REMARK   23  A    between atoms: C45_45  and  C46_46 
REMARK   24  A    between atoms: C45_45  and  N22_82 
REMARK   25  A    between atoms: C46_46  and  C47_47 
REMARK   26  A    between atoms: C47_47  and  N23_83 
USER                              x       y       z     vdW  Elec       q    Type
USER                           _______ _______ _______ _____ _____    ______ ____
ROOT
ATOM      1  C24 UNL     1      28.777   8.732   2.074 +5.03 +0.00    +0.125 A 
ATOM      2  C25 UNL     1      27.960   8.258   1.075 -0.28 +0.00    +0.140 A 
ATOM      3  C26 UNL     1      26.869   9.660   2.402 +2.33 +0.00    +0.178 A 
ATOM      4  C53 UNL     1      25.557   8.671   0.501 +0.03 +0.00    +0.157 C 
ATOM      5  N12 UNL     1      26.746   8.854   1.295 -0.20 -0.00    -0.339 N 
ATOM      6  N13 UNL     1      28.101   9.591   2.882+15.71 -0.00    -0.323 N 
ATOM      7  H13 UNL     1      28.470  10.084   3.695 +2.20 +0.00    +0.169 HD
ENDROOT
BRANCH   1   8
ATOM      8  N11 UNL     1      30.094   8.392   2.239 +0.26 -0.00    -0.312 N 
ATOM      9  C23 UNL     1      30.786   7.525   1.410 -0.24 +0.00    +0.223 C 
ATOM     10  O5  UNL     1      30.354   6.957   0.412 -0.11 -0.00    -0.273 OA
ATOM     11  H64 UNL     1      30.573   8.810   3.024 -0.14 +0.00    +0.170 HD
BRANCH   9  12
ATOM     12  C22 UNL     1      32.224   7.358   1.873 -0.22 +0.00    +0.105 C 
BRANCH  12  13
ATOM     13  C21 UNL     1      32.359   6.595   3.191 +1.32 +0.00    +0.029 C 
BRANCH  13  14
ATOM     14  C20 UNL     1      31.043   6.432   3.957+71.24 +0.00    +0.123 C 
BRANCH  14  15
ATOM     15  N10 UNL     1      29.876   6.455   3.100 +6.05 -0.00    -0.356 N 
ATOM     16  C19 UNL     1      29.816   5.764   1.911 +1.04 +0.00    +0.268 C 
ATOM     17  O4  UNL     1      30.741   5.049   1.534 -0.20 -0.00    -0.266 OA
ATOM     18  H63 UNL     1      29.163   7.144   3.298 -0.06 +0.00    +0.162 HD
BRANCH  16  19
ATOM     19  C17 UNL     1      28.589   5.953   1.152 +0.95 +0.00    +0.104 A 
ATOM     20  C18 UNL     1      27.425   6.636   1.496 +0.91 +0.00    +0.066 A 
ATOM     21  C15 UNL     1      26.503   6.534   0.429 -0.32 +0.00    +0.053 A 
ATOM     22  C16 UNL     1      27.108   5.785  -0.550 -0.25 +0.00    +0.120 A 
ATOM     23  N9  UNL     1      28.359   5.433  -0.110 -0.07 -0.00    -0.354 N 
ATOM     24  C54 UNL     1      29.292   4.641  -0.885 -0.13 +0.00    +0.156 C 
BRANCH  21  25
ATOM     25  N8  UNL     1      25.231   7.045   0.301 -0.16 -0.00    -0.319 N 
ATOM     26  C14 UNL     1      24.260   7.074   1.281 -0.25 +0.00    +0.290 C 
ATOM     27  O3  UNL     1      24.378   6.629   2.421 +1.93 -0.00    -0.264 OA
ATOM     28  H62 UNL     1      24.962   7.454  -0.593 +0.12 +0.00    +0.169 HD
BRANCH  26  29
ATOM     29  C13 UNL     1      23.040   7.708   0.799 -0.15 +0.00    +0.178 A 
ATOM     30  N6  UNL     1      22.797   8.212  -0.455 -0.22 -0.00    -0.339 N 
ATOM     31  C12 UNL     1      21.522   8.713  -0.467 +1.56 +0.00    +0.140 A 
ATOM     32  C55 UNL     1      23.716   8.213  -1.567 +0.75 +0.00    +0.157 C 
ATOM     33  C11 UNL     1      21.038   8.486   0.799+73.95 +0.00    +0.125 A 
ATOM     34  N7  UNL     1      21.973   7.867   1.568 +5.91 -0.00    -0.323 N 
ATOM     35  H7  UNL     1      21.873   7.583   2.543 +0.22 +0.00    +0.169 HD
BRANCH  33  36
ATOM     36  N5  UNL     1      19.782   8.829   1.230+22.44 -0.00    -0.306 N 
ATOM     37  C10 UNL     1      19.032   8.094   2.127+23.84 +0.00    +0.274 C 
ATOM     38  O2  UNL     1      19.408   7.063   2.677+98.51 -0.00    -0.266 OA
ATOM     39  H61 UNL     1      19.416   9.700   0.886 +0.13 +0.00    +0.170 HD
BRANCH  37  40
ATOM     40  C8  UNL     1      17.715   8.672   2.400 -0.40 +0.00    +0.105 A 
ATOM     41  C9  UNL     1      16.525   8.056   2.779 -0.43 +0.00    +0.066 A 
ATOM     42  C6  UNL     1      15.521   9.044   2.927 -0.39 +0.00    +0.053 A 
ATOM     43  C7  UNL     1      16.110  10.250   2.647 -0.34 +0.00    +0.120 A 
ATOM     44  N4  UNL     1      17.430  10.027   2.344 -0.16 -0.00    -0.354 N 
ATOM     45  C56 UNL     1      18.363  11.080   2.000 -0.45 +0.00    +0.156 C 
BRANCH  42  46
ATOM     46  N3  UNL     1      14.214   8.798   3.292 -0.08 -0.00    -0.319 N 
ATOM     47  C5  UNL     1      13.780   8.150   4.432 -0.30 +0.00    +0.290 C 
ATOM     48  O1  UNL     1      14.496   7.687   5.314 -0.29 -0.00    -0.264 OA
ATOM     49  H60 UNL     1      13.474   9.114   2.672 -0.38 +0.00    +0.169 HD
BRANCH  47  50
ATOM     50  C4  UNL     1      12.322   8.077   4.471 -0.26 +0.00    +0.176 A 
ATOM     51  N1  UNL     1      11.525   8.062   5.591 -0.18 -0.00    -0.342 N 
ATOM     52  C1  UNL     1      11.974   8.116   6.961 -0.30 +0.00    +0.157 C 
ATOM     53  C2  UNL     1      10.222   7.986   5.182 +0.31 +0.00    +0.109 A 
ATOM     54  C3  UNL     1      10.278   7.956   3.809 -0.37 +0.00    +0.107 A 
ATOM     55  N2  UNL     1      11.576   8.012   3.374 -0.16 -0.00    -0.346 N 
ATOM     56  H2  UNL     1      11.902   8.007   2.408 -0.02 +0.00    +0.167 HD
ENDBRANCH  47  50
ENDBRANCH  42  46
ENDBRANCH  37  40
ENDBRANCH  33  36
ENDBRANCH  26  29
ENDBRANCH  21  25
ENDBRANCH  16  19
ENDBRANCH  14  15
ENDBRANCH  13  14
ENDBRANCH  12  13
ENDBRANCH   9  12
ENDBRANCH   1   8
BRANCH   3  57
ATOM     57  C27 UNL     1      25.842  10.494   3.012 +1.44 +0.00    +0.290 C 
ATOM     58  N14 UNL     1      24.638  10.366   2.347 -0.16 -0.00    -0.319 N 
ATOM     59  H65 UNL     1      24.650   9.730   1.549 +0.14 +0.00    +0.169 HD
ATOM     60  O6  UNL     1      26.051  11.209   3.987 +6.58 -0.00    -0.264 OA
BRANCH  58  61
ATOM     61  C28 UNL     1      23.459  10.998   2.667+52.94 +0.00    +0.053 A 
ATOM     62  C29 UNL     1      23.349  11.868   3.727+28.64 +0.00    +0.120 A 
ATOM     63  N15 UNL     1      22.063  12.342   3.761+10.85 -0.00    -0.354 N 
ATOM     64  C30 UNL     1      21.312  11.736   2.773+13.14 +0.00    +0.105 A 
ATOM     65  C52 UNL     1      21.614  13.387   4.658+99.99 +0.00    +0.156 C 
ATOM     66  C31 UNL     1      22.189  10.937   2.052+37.44 +0.00    +0.066 A 
BRANCH  64  67
ATOM     67  C32 UNL     1      19.901  11.937   2.505 +0.46 +0.00    +0.274 C 
ATOM     68  N16 UNL     1      19.650  12.245   1.186 -0.40 -0.00    -0.306 N 
ATOM     69  H66 UNL     1      20.423  12.421   0.564 +0.13 +0.00    +0.170 HD
ATOM     70  O7  UNL     1      19.052  11.872   3.387 +4.00 -0.00    -0.266 OA
BRANCH  68  71
ATOM     71  C33 UNL     1      18.415  12.462   0.639 -0.40 +0.00    +0.125 A 
ATOM     72  C34 UNL     1      17.868  13.605   0.120+39.77 +0.00    +0.140 A 
ATOM     73  N17 UNL     1      16.612  13.251  -0.285+32.49 -0.00    -0.339 N 
ATOM     74  C35 UNL     1      16.438  11.916  -0.001 +7.92 +0.00    +0.178 A 
ATOM     75  C51 UNL     1      15.650  14.132  -0.901+22.82 +0.00    +0.157 C 
ATOM     76  N18 UNL     1      17.529  11.422   0.574 -0.23 -0.00    -0.323 N 
ATOM     77  H18 UNL     1      17.675  10.466   0.900 +0.14 +0.00    +0.169 HD
BRANCH  74  78
ATOM     78  C36 UNL     1      15.254  11.110  -0.270+24.06 +0.00    +0.290 C 
ATOM     79  N19 UNL     1      15.469   9.778   0.029 +0.94 -0.00    -0.319 N 
ATOM     80  H67 UNL     1      16.395   9.554   0.383 +0.09 +0.00    +0.169 HD
ATOM     81  O8  UNL     1      14.205  11.574  -0.713 +7.74 -0.00    -0.264 OA
BRANCH  79  82
ATOM     82  C37 UNL     1      14.556   8.757  -0.111+40.49 +0.00    +0.053 A 
ATOM     83  C38 UNL     1      13.430   8.861  -0.890+99.99 +0.00    +0.120 A 
ATOM     84  N20 UNL     1      12.737   7.680  -0.806 +2.59 -0.00    -0.354 N 
ATOM     85  C39 UNL     1      13.404   6.792   0.020 +0.25 +0.00    +0.104 A 
ATOM     86  C50 UNL     1      11.502   7.414  -1.516 +0.21 +0.00    +0.156 C 
ATOM     87  C40 UNL     1      14.540   7.464   0.460 +7.17 +0.00    +0.066 A 
BRANCH  85  88
ATOM     88  C41 UNL     1      12.943   5.456   0.345 +1.26 +0.00    +0.268 C 
ATOM     89  N21 UNL     1      11.610   5.224   0.083 +0.02 -0.00    -0.355 N 
ATOM     90  H68 UNL     1      11.048   6.049  -0.091 +0.08 +0.00    +0.162 HD
ATOM     91  O9  UNL     1      13.679   4.573   0.779+33.79 -0.00    -0.266 OA
BRANCH  89  92
ATOM     92  C42 UNL     1      10.880   4.046   0.525+84.88 +0.00    +0.132 C 
BRANCH  92  93
ATOM     93  C43 UNL     1       9.369   4.038   0.319 -0.03 +0.00    +0.122 C 
BRANCH  93  94
ATOM     94  C44 UNL     1       8.896   2.781  -0.372 -0.08 +0.00    +0.219 C 
ATOM     95  N22 UNL     1       7.560   2.505  -0.206 +0.01 -0.00    -0.361 N 
ATOM     96  H69 UNL     1       7.092   3.043   0.529 +0.06 +0.00    +0.162 HD
ATOM     97  O10 UNL     1       9.638   2.062  -1.041 -0.13 -0.00    -0.274 OA
BRANCH  95  98
ATOM     98  C45 UNL     1       6.966   1.231  -0.556 -0.14 +0.00    +0.124 C 
BRANCH  98  99
ATOM     99  C46 UNL     1       5.436   1.268  -0.618 -0.15 +0.00    +0.047 C 
BRANCH  99 100
ATOM    100  C47 UNL     1       4.752   1.255   0.751 -0.09 +0.00    +0.235 C 
BRANCH 100 101
ATOM    101  N23 UNL     1       5.207   2.367   1.654 -0.12 -0.00    -0.079 N 
ATOM    102  C48 UNL     1       4.065   3.195   2.163 -0.05 +0.00    +0.269 C 
ATOM    103  C49 UNL     1       6.105   1.922   2.770 -0.20 +0.00    +0.269 C 
ATOM    104  H70 UNL     1       5.781   3.026   1.082 +0.09 +0.00    +0.278 HD
ENDBRANCH 100 101
ENDBRANCH  99 100
ENDBRANCH  98  99
ENDBRANCH  95  98
ENDBRANCH  93  94
ENDBRANCH  92  93
ENDBRANCH  89  92
ENDBRANCH  85  88
ENDBRANCH  79  82
ENDBRANCH  74  78
ENDBRANCH  68  71
ENDBRANCH  64  67
ENDBRANCH  58  61
ENDBRANCH   3  57
TORSDOF 26
TER
