USER    Run = 1
USER    DPF = ligand_75_receptor.dpf
USER  
USER    Estimated Free Energy of Binding    =  +4.78e+005 kcal/mol  [=(1)+(2)+(3)-(4)]
USER    
USER    (1) Final Intermolecular Energy     =  +4.78e+005 kcal/mol
USER        vdW + Hbond + desolv Energy     =  +3.17e+005 kcal/mol
USER        Electrostatic Energy            =  +1.62e+005 kcal/mol
USER    (2) Final Total Internal Energy     =   +0.00 kcal/mol
USER    (3) Torsional Free Energy           =   +1.19 kcal/mol
USER    (4) Unbound System's Energy  [=(2)] =   +0.00 kcal/mol
USER    
USER    
USER    NEWDPF move ligand_75.pdbqt
USER    NEWDPF about 0.000000 0.000000 0.000000
USER    NEWDPF tran0 15.606175 7.641222 1.009741
USER    NEWDPF quaternion0 0.699515 -0.154608 -0.111650 0.688701
USER    NEWDPF axisangle0 0.964788 -0.213238 -0.153990 92.945267
USER    NEWDPF quat0 0.964788 -0.213238 -0.153990 92.945267
USER  keepresnum = 1 
USER  
REMARK  0 active torsions:
REMARK  status: ('A' for Active; 'I' for Inactive)
REMARK       I    between atoms: C2_2  and  C3_3 
REMARK       I    between atoms: C3_3  and  C5_5 
REMARK       I    between atoms: C5_5  and  C6_6 
REMARK       I    between atoms: C5_5  and  N3_87 
REMARK       I    between atoms: C6_6  and  C7_7 
REMARK       I    between atoms: C6_6  and  O5_74 
REMARK       I    between atoms: C7_7  and  C8_8 
REMARK       I    between atoms: C8_8  and  N1_85 
REMARK       I    between atoms: C12_12  and  C13_13 
REMARK       I    between atoms: C13_13  and  C14_14 
REMARK       I    between atoms: C13_13  and  O4_73 
REMARK       I    between atoms: C14_14  and  C16_16 
REMARK       I    between atoms: C16_16  and  N2_86 
REMARK       I    between atoms: C17_17  and  C19_19 
REMARK       I    between atoms: C17_17  and  N2_86 
REMARK       I    between atoms: C19_19  and  C20_20 
REMARK       I    between atoms: C19_19  and  O3_72 
REMARK       I    between atoms: C29_29  and  C30_30 
REMARK       I    between atoms: C29_29  and  N3_87 
REMARK       I    between atoms: C30_30  and  C31_31 
REMARK       I    between atoms: C30_30  and  N4_88 
REMARK       I    between atoms: C34_34  and  C35_35 
REMARK       I    between atoms: C34_34  and  N4_88 
REMARK       I    between atoms: C35_35  and  C36_36 
REMARK       I    between atoms: C35_35  and  N5_89 
REMARK       I    between atoms: C40_40  and  O9_78 
REMARK       I    between atoms: C40_40  and  N5_89 
REMARK       I    between atoms: C41_41  and  C42_42 
REMARK       I    between atoms: C41_41  and  O9_78 
REMARK       I    between atoms: C45_45  and  N6_90 
REMARK       I    between atoms: C48_48  and  C49_49 
REMARK       I    between atoms: C48_48  and  N6_90 
REMARK       I    between atoms: C49_49  and  C50_50 
REMARK       I    between atoms: C49_49  and  N9_93 
REMARK       I    between atoms: C50_50  and  C51_51 
REMARK       I    between atoms: C51_51  and  C52_52 
REMARK       I    between atoms: C52_52  and  N7_91 
REMARK       I    between atoms: C53_53  and  N7_91 
REMARK       I    between atoms: C53_53  and  N8_92 
REMARK       I    between atoms: C54_54  and  C55_55 
REMARK       I    between atoms: C54_54  and  N9_93 
REMARK       I    between atoms: C55_55  and  C56_56 
REMARK       I    between atoms: C55_55  and  N10_94 
REMARK       I    between atoms: C59_59  and  N10_94 
REMARK       I    between atoms: C59_59  and  N11_95 
REMARK       I    between atoms: C60_60  and  C61_61 
REMARK       I    between atoms: C60_60  and  N11_95 
REMARK       I    between atoms: C61_61  and  O14_83 
REMARK       I    between atoms: C62_62  and  C63_63 
REMARK       I    between atoms: C62_62  and  O14_83 
REMARK       I    between atoms: C63_63  and  O15_84 
REMARK       I    between atoms: C64_64  and  C65_65 
REMARK       I    between atoms: C64_64  and  O15_84 
REMARK       I    between atoms: C65_65  and  C66_66 
USER                              x       y       z     vdW  Elec       q    Type
USER                           _______ _______ _______ _____ _____    ______ ____
ROOT
ATOM      1  C1  UNL     1       5.173   9.913   0.588+99.99 +0.00    +0.005 C 
ATOM      2  C2  UNL     1       5.380   9.284   1.960+32.43 +0.00    +0.002 C 
ATOM      3  C3  UNL     1       6.855   8.944   2.263 +4.74 +0.00    +0.006 C 
ATOM      4  C4  UNL     1       7.035   8.691   3.766+99.99 +0.00    +0.012 C 
ATOM      5  C5  UNL     1       7.483   7.856   1.318 -0.28 +0.00    +0.119 C 
ATOM      6  C6  UNL     1       6.595   6.626   0.895 -0.29 +0.00    +0.152 C 
ATOM      7  C7  UNL     1       6.004   5.775   2.027 -0.19 +0.00    +0.137 C 
ATOM      8  C8  UNL     1       4.743   5.047   1.587 -0.13 +0.00    +0.222 C 
ATOM      9  C9  UNL     1       3.119   3.267   1.932 -0.08 +0.00    +0.126 C 
ATOM     10  C10 UNL     1       2.802   2.281   3.040 -0.11 +0.00    +0.022 C 
ATOM     11  C11 UNL     1       4.144   2.090   3.726 -0.25 +0.00    +0.029 C 
ATOM     12  C12 UNL     1       4.855   3.452   3.608 -0.15 +0.00    +0.117 C 
ATOM     13  C13 UNL     1       4.785   4.270   4.941 -0.19 +0.00    +0.156 C 
ATOM     14  C14 UNL     1       3.446   4.986   5.242 -0.16 +0.00    +0.105 C 
ATOM     15  C15 UNL     1       3.205   6.303   4.505 -0.20 +0.00    +0.022 C 
ATOM     16  C16 UNL     1       3.333   5.245   6.743 -0.22 +0.00    +0.224 C 
ATOM     17  C17 UNL     1       4.367   6.397   8.689+93.03 +0.00    +0.113 C 
ATOM     18  C18 UNL     1       5.807   6.513   9.189+99.99 +0.00    +0.035 C 
ATOM     19  C19 UNL     1       3.507   7.675   8.934+95.03 +0.00    +0.173 C 
ATOM     20  C20 UNL     1       4.025   8.915   8.225 -0.07 -0.00    -0.028 A 
ATOM     21  C21 UNL     1       4.976   9.760   8.816 +0.05 +0.00    +0.010 A 
ATOM     22  C22 UNL     1       5.464  10.876   8.132 +6.86 +0.00    +0.001 A 
ATOM     23  C23 UNL     1       5.003  11.165   6.850+43.08 +0.00    +0.000 A 
ATOM     24  C24 UNL     1       4.048  10.344   6.254 +1.22 +0.00    +0.001 A 
ATOM     25  C25 UNL     1       3.561   9.230   6.938 -0.22 +0.00    +0.010 A 
ATOM     26  C26 UNL     1       7.072   4.703   5.511 -0.26 +0.00    +0.202 C 
ATOM     27  C27 UNL     1       7.453   6.143  -1.291+11.42 +0.00    +0.202 C 
ATOM     28  C28 UNL     1       9.150   6.380   2.530 -0.23 +0.00    +0.153 C 
ATOM     29  C29 UNL     1       9.889   8.424   1.256+18.86 +0.00    +0.243 C 
ATOM     30  C30 UNL     1      11.387   8.049   1.403+17.24 +0.00    +0.180 C 
ATOM     31  C31 UNL     1      11.947   7.245   0.201 +1.19 +0.00    +0.009 C 
ATOM     32  C32 UNL     1      11.455   5.798   0.176 -0.37 +0.00    +0.012 C 
ATOM     33  C33 UNL     1      11.669   7.905  -1.155+14.38 +0.00    +0.012 C 
ATOM     34  C34 UNL     1      13.355   9.427   2.106+99.99 +0.00    +0.241 C 
ATOM     35  C35 UNL     1      13.934  10.871   2.080+26.05 +0.00    +0.184 C 
ATOM     36  C36 UNL     1      15.450  10.930   2.420 -0.19 +0.00    +0.010 C 
ATOM     37  C37 UNL     1      16.106  12.262   2.032 +1.78 +0.00    +0.012 C 
ATOM     38  C38 UNL     1      15.685  10.710   3.922+23.22 +0.00    +0.012 C 
ATOM     39  C39 UNL     1      12.789  12.769   0.899+99.99 +0.00    +0.156 C 
ATOM     40  C40 UNL     1      14.056  11.146  -0.421+14.04 +0.00    +0.363 C 
ATOM     41  C41 UNL     1      15.399   9.548  -1.540+99.99 +0.00    +0.219 C 
ATOM     42  C42 UNL     1      16.848   9.949  -1.481+36.63 -0.00    -0.034 A 
ATOM     43  C43 UNL     1      17.760   9.213  -0.717 -0.23 +0.00    +0.011 A 
ATOM     44  C44 UNL     1      19.098   9.610  -0.636 +6.43 +0.00    +0.030 A 
ATOM     45  C45 UNL     1      19.548  10.751  -1.312+99.99 +0.00    +0.034 A 
ATOM     46  C46 UNL     1      18.637  11.492  -2.064+44.02 +0.00    +0.030 A 
ATOM     47  C47 UNL     1      17.297  11.098  -2.144+99.99 +0.00    +0.011 A 
ATOM     48  C48 UNL     1      21.608  12.107  -1.774+24.00 +0.00    +0.245 C 
ATOM     49  C49 UNL     1      23.106  12.161  -1.380 +1.37 +0.00    +0.177 C 
ATOM     50  C50 UNL     1      23.290  12.554   0.098+90.79 +0.00    +0.036 C 
ATOM     51  C51 UNL     1      24.446  13.540   0.335+99.99 +0.00    +0.022 C 
ATOM     52  C52 UNL     1      25.825  13.029  -0.070+18.33 +0.00    +0.124 C 
ATOM     53  C53 UNL     1      27.055  10.928   0.207+98.43 +0.00    +0.313 C 
ATOM     54  C54 UNL     1      23.700   9.710  -1.224 +3.32 +0.00    +0.241 C 
ATOM     55  C55 UNL     1      24.458   8.576  -1.955+17.20 +0.00    +0.181 C 
ATOM     56  C56 UNL     1      23.592   7.911  -3.056+30.40 +0.00    +0.009 C 
ATOM     57  C57 UNL     1      22.371   7.202  -2.462+10.46 +0.00    +0.012 C 
ATOM     58  C58 UNL     1      23.149   8.870  -4.164+99.99 +0.00    +0.012 C 
ATOM     59  C59 UNL     1      26.728   8.287  -2.879+99.99 +0.00    +0.316 C 
ATOM     60  C60 UNL     1      29.111   8.297  -3.458 +0.59 +0.00    +0.150 C 
ATOM     61  C61 UNL     1      29.719   7.502  -2.297 -0.21 +0.00    +0.187 C 
ATOM     62  C62 UNL     1      31.062   5.827  -3.354 -0.05 +0.00    +0.193 C 
ATOM     63  C63 UNL     1      31.024   4.609  -2.428 -0.02 +0.00    +0.193 C 
ATOM     64  C64 UNL     1      32.369   3.002  -3.563 -0.00 +0.00    +0.168 C 
ATOM     65  C65 UNL     1      32.325   1.632  -4.247 -0.03 +0.00    +0.034 C 
ATOM     66  C66 UNL     1      32.102   0.394  -3.334 -0.11 -0.00    -0.050 C 
ATOM     67  C67 UNL     1      32.088  -0.860  -4.233 -0.09 +0.00    +0.014 C 
ATOM     68  C68 UNL     1      30.763   0.461  -2.582 -0.15 +0.00    +0.014 C 
ATOM     69  C69 UNL     1      33.244   0.245  -2.314+99.99+99.99    +0.014 C 
ATOM     70  O1  UNL     1       4.145   5.357   0.554 -0.33 -0.00    -0.273 OA
ATOM     71  O2  UNL     1       2.375   4.848   7.401 -0.18 -0.00    -0.273 OA
ATOM     72  O3  UNL     1       3.407   7.935  10.338+99.99 -0.00    -0.389 OA
ATOM     73  O4  UNL     1       5.855   5.239   4.996 -0.09 -0.00    -0.388 OA
ATOM     74  O5  UNL     1       7.354   5.717   0.062 -0.07 -0.00    -0.388 OA
ATOM     75  O6  UNL     1       9.599   9.498   0.710+99.99 -0.00    -0.271 OA
ATOM     76  O7  UNL     1      13.884   8.483   2.688 +1.25 -0.00    -0.271 OA
ATOM     77  O8  UNL     1      13.884  11.773  -1.459+23.63 -0.00    -0.238 OA
ATOM     78  O9  UNL     1      14.754   9.987  -0.341 +5.54 -0.00    -0.299 OA
ATOM     79  O10 UNL     1      21.140  12.967  -2.517+47.20 -0.00    -0.271 OA
ATOM     80  O11 UNL     1      27.391  10.837  -0.968+99.99 -0.00    -0.248 OA
ATOM     81  O12 UNL     1      22.921   9.497  -0.295 -0.36 -0.00    -0.271 OA
ATOM     82  O13 UNL     1      26.614   7.082  -3.049+33.09 -0.00    -0.247 OA
ATOM     83  O14 UNL     1      31.038   7.048  -2.609 -0.03 -0.00    -0.387 OA
ATOM     84  O15 UNL     1      31.060   3.378  -3.148 +0.01 -0.00    -0.389 OA
ATOM     85  N1  UNL     1       4.239   4.060   2.420 -0.03 -0.00    -0.345 N 
ATOM     86  N2  UNL     1       4.364   5.966   7.295 -0.18 -0.00    -0.354 N 
ATOM     87  N3  UNL     1       8.897   7.539   1.683 -0.13 -0.00    -0.347 N 
ATOM     88  N4  UNL     1      12.103   9.319   1.542+99.99 -0.00    -0.346 N 
ATOM     89  N5  UNL     1      13.544  11.532   0.810 +7.59 -0.00    -0.319 N 
ATOM     90  N6  UNL     1      20.910  11.075  -1.177+20.64 -0.00    -0.325 N 
ATOM     91  N7  UNL     1      26.235  11.885   0.714+28.21 -0.00    -0.343 N 
ATOM     92  N8  UNL     1      27.419   9.998   1.121+15.27 -0.00    -0.352 N 
ATOM     93  N9  UNL     1      23.839  10.960  -1.790+16.31 -0.00    -0.346 N 
ATOM     94  N10 UNL     1      25.719   9.120  -2.469+99.99 -0.00    -0.330 N 
ATOM     95  N11 UNL     1      27.889   8.983  -3.093+60.66 -0.00    -0.341 N 
ATOM     96  HA6 UNL     1       2.804   7.262  10.699+99.99 +0.00    +0.210 HD
ATOM     97  HA7 UNL     1       5.030   6.397   6.657 +0.07 +0.00    +0.163 HD
ATOM     98  HA8 UNL     1      11.744  10.104   1.004+99.99 +0.00    +0.163 HD
ATOM     99  HA9 UNL     1      21.465  10.436  -0.604 +0.15 +0.00    +0.169 HD
ATOM    100  HB0 UNL     1      26.156  11.945   1.718 +1.85 +0.00    +0.164 HD
ATOM    101  HB1 UNL     1      28.093   9.317   0.795 +0.10 +0.00    +0.160 HD
ATOM    102  HB2 UNL     1      27.514  10.266   2.088 +4.59 +0.00    +0.160 HD
ATOM    103  HB3 UNL     1      24.318  10.992  -2.686 +0.23 +0.00    +0.163 HD
ATOM    104  HB4 UNL     1      26.086   9.921  -1.962+99.99 +0.00    +0.165 HD
ATOM    105  HB5 UNL     1      27.980   9.856  -2.578+99.99 +0.00    +0.164 HD
ENDROOT
TORSDOF 43
TER
