USER    Run = 1
USER    DPF = ligand_320_receptor.dpf
USER  
USER    Estimated Free Energy of Binding    =  +2.00e+006 kcal/mol  [=(1)+(2)+(3)-(4)]
USER    
USER    (1) Final Intermolecular Energy     =  +2.00e+006 kcal/mol
USER        vdW + Hbond + desolv Energy     =  +1.12e+006 kcal/mol
USER        Electrostatic Energy            =  +8.81e+005 kcal/mol
USER    (2) Final Total Internal Energy     =   +0.00 kcal/mol
USER    (3) Torsional Free Energy           =   +1.19 kcal/mol
USER    (4) Unbound System's Energy  [=(2)] =   +0.00 kcal/mol
USER    
USER    
USER    NEWDPF move ligand_320.pdbqt
USER    NEWDPF about 0.000000 0.000000 0.000000
USER    NEWDPF tran0 16.730882 7.123104 2.875261
USER    NEWDPF quaternion0 -0.142639 0.514169 -0.814681 0.227112
USER    NEWDPF axisangle0 -0.146466 0.527965 -0.836541 153.745842
USER    NEWDPF quat0 -0.146466 0.527965 -0.836541 153.745842
USER  keepresnum = 1 
USER  
REMARK  0 active torsions:
REMARK  status: ('A' for Active; 'I' for Inactive)
REMARK       I    between atoms: C3_3  and  C4_4 
REMARK       I    between atoms: C3_3  and  N1_65 
REMARK       I    between atoms: C4_4  and  N2_66 
REMARK       I    between atoms: C5_5  and  C6_6 
REMARK       I    between atoms: C5_5  and  N2_66 
REMARK       I    between atoms: C7_7  and  O12_88 
REMARK       I    between atoms: C9_9  and  O11_87 
REMARK       I    between atoms: C10_10  and  C12_12 
REMARK       I    between atoms: C12_12  and  N3_67 
REMARK       I    between atoms: C13_13  and  N3_67 
REMARK       I    between atoms: C16_16  and  N4_68 
REMARK       I    between atoms: C19_19  and  C20_20 
REMARK       I    between atoms: C19_19  and  N4_68 
REMARK       I    between atoms: C22_22  and  C26_26 
REMARK       I    between atoms: C23_23  and  O5_81 
REMARK       I    between atoms: C25_25  and  O4_80 
REMARK       I    between atoms: C26_26  and  N5_69 
REMARK       I    between atoms: C27_27  and  N5_69 
REMARK       I    between atoms: C30_30  and  N6_70 
REMARK       I    between atoms: C33_33  and  C34_34 
REMARK       I    between atoms: C33_33  and  N6_70 
REMARK       I    between atoms: C36_36  and  C50_50 
REMARK       I    between atoms: C37_37  and  O9_85 
REMARK       I    between atoms: C39_39  and  O8_84 
REMARK       I    between atoms: C40_40  and  C41_41 
REMARK       I    between atoms: C40_40  and  O8_84 
REMARK       I    between atoms: C41_41  and  C42_42 
REMARK       I    between atoms: C42_42  and  C43_43 
REMARK       I    between atoms: C43_43  and  C44_44 
REMARK       I    between atoms: C44_44  and  N7_71 
REMARK       I    between atoms: C45_45  and  C46_46 
REMARK       I    between atoms: C45_45  and  O9_85 
REMARK       I    between atoms: C46_46  and  C47_47 
REMARK       I    between atoms: C47_47  and  C48_48 
REMARK       I    between atoms: C48_48  and  C49_49 
REMARK       I    between atoms: C49_49  and  N8_72 
REMARK       I    between atoms: C50_50  and  N9_73 
REMARK       I    between atoms: C51_51  and  C52_52 
REMARK       I    between atoms: C51_51  and  N9_73 
REMARK       I    between atoms: C52_52  and  N10_74 
REMARK       I    between atoms: C55_55  and  C56_56 
REMARK       I    between atoms: C55_55  and  O11_87 
REMARK       I    between atoms: C56_56  and  C57_57 
REMARK       I    between atoms: C57_57  and  C58_58 
REMARK       I    between atoms: C58_58  and  C59_59 
REMARK       I    between atoms: C59_59  and  N11_75 
REMARK       I    between atoms: C60_60  and  C61_61 
REMARK       I    between atoms: C60_60  and  O12_88 
REMARK       I    between atoms: C61_61  and  C62_62 
REMARK       I    between atoms: C62_62  and  C63_63 
REMARK       I    between atoms: C63_63  and  C64_64 
REMARK       I    between atoms: C64_64  and  N12_76 
USER                              x       y       z     vdW  Elec       q    Type
USER                           _______ _______ _______ _____ _____    ______ ____
ROOT
ATOM      1  C1  UNL     1      31.514   3.522  -3.093 +0.01 +0.00    +0.309 C 
ATOM      2  C2  UNL     1      32.845   2.094  -4.477+99.99+99.99    +0.309 C 
ATOM      3  C3  UNL     1      31.665   1.128  -2.617 -0.09 +0.00    +0.291 C 
ATOM      4  C4  UNL     1      31.258   1.163  -1.128 -0.16 +0.00    +0.153 C 
ATOM      5  C5  UNL     1      28.788   1.307  -1.188+20.41 +0.00    +0.254 C 
ATOM      6  C6  UNL     1      27.558   2.138  -0.946+17.42 +0.00    +0.066 A 
ATOM      7  C7  UNL     1      27.558   3.469  -0.490 +0.38 +0.00    +0.087 A 
ATOM      8  C8  UNL     1      26.328   4.122  -0.314 -0.03 +0.00    +0.075 A 
ATOM      9  C9  UNL     1      25.099   3.501  -0.603 +1.34 +0.00    +0.087 A 
ATOM     10  C10 UNL     1      25.098   2.167  -1.046+42.92 +0.00    +0.066 A 
ATOM     11  C11 UNL     1      26.329   1.507  -1.212+99.99 +0.00    +0.040 A 
ATOM     12  C12 UNL     1      23.871   1.349  -1.337+99.99 +0.00    +0.254 C 
ATOM     13  C13 UNL     1      21.410   1.154  -1.189+99.99 +0.00    +0.084 C 
ATOM     14  C14 UNL     1      20.197   2.017  -1.536+99.99 +0.00    +0.027 C 
ATOM     15  C15 UNL     1      19.775   2.989  -0.431+99.99 +0.00    +0.027 C 
ATOM     16  C16 UNL     1      20.378   2.677   0.943+51.78 +0.00    +0.084 C 
ATOM     17  C17 UNL     1      20.402   1.171   1.194+99.99 +0.00    +0.027 C 
ATOM     18  C18 UNL     1      21.206   0.404   0.140+99.99 +0.00    +0.027 C 
ATOM     19  C19 UNL     1      20.262   3.890   3.099+99.99 +0.00    +0.254 C 
ATOM     20  C20 UNL     1      19.404   4.459   4.176+99.99 +0.00    +0.066 A 
ATOM     21  C21 UNL     1      18.087   4.868   3.930+99.99 +0.00    +0.039 A 
ATOM     22  C22 UNL     1      17.283   5.390   4.964+99.99 +0.00    +0.066 A 
ATOM     23  C23 UNL     1      17.830   5.515   6.251+99.99 +0.00    +0.084 A 
ATOM     24  C24 UNL     1      19.149   5.131   6.500+99.99 +0.00    +0.075 A 
ATOM     25  C25 UNL     1      19.929   4.616   5.467+99.99 +0.00    +0.084 A 
ATOM     26  C26 UNL     1      15.885   5.781   4.591+99.99 +0.00    +0.254 C 
ATOM     27  C27 UNL     1      13.732   6.741   5.364 -0.47 +0.00    +0.084 C 
ATOM     28  C28 UNL     1      13.813   8.211   4.934 -0.47 +0.00    +0.027 C 
ATOM     29  C29 UNL     1      12.427   8.822   4.743 +1.42 +0.00    +0.027 C 
ATOM     30  C30 UNL     1      11.566   8.665   5.999 +0.82 +0.00    +0.084 C 
ATOM     31  C31 UNL     1      11.477   7.193   6.423 -0.40 +0.00    +0.027 C 
ATOM     32  C32 UNL     1      12.861   6.581   6.614 -0.47 +0.00    +0.027 C 
ATOM     33  C33 UNL     1       9.447   9.661   6.810+59.81 +0.00    +0.254 C 
ATOM     34  C34 UNL     1       8.034   9.958   6.467+99.99 +0.00    +0.066 A 
ATOM     35  C35 UNL     1       7.049   9.536   7.367+99.99 +0.00    +0.040 A 
ATOM     36  C36 UNL     1       5.686   9.743   7.094+99.99 +0.00    +0.066 A 
ATOM     37  C37 UNL     1       5.304  10.399   5.902+99.99 +0.00    +0.087 A 
ATOM     38  C38 UNL     1       6.300  10.834   5.017+99.99 +0.00    +0.075 A 
ATOM     39  C39 UNL     1       7.658  10.643   5.311+99.99 +0.00    +0.087 A 
ATOM     40  C40 UNL     1       8.526  12.526   4.249+99.99 +0.00    +0.175 C 
ATOM     41  C41 UNL     1       9.917  13.110   4.004+99.99 +0.00    +0.027 C 
ATOM     42  C42 UNL     1      10.923  12.879   5.137+99.99 +0.00    +0.004 C 
ATOM     43  C43 UNL     1      10.459  13.417   6.495+99.99 +0.00    +0.030 C 
ATOM     44  C44 UNL     1      11.556  13.400   7.564+99.99 +0.00    +0.267 C 
ATOM     45  C45 UNL     1       3.502  11.338   4.569 +0.45 +0.00    +0.175 C 
ATOM     46  C46 UNL     1       3.567  12.852   4.787+99.99 +0.00    +0.027 C 
ATOM     47  C47 UNL     1       2.699  13.363   5.945 +1.33 +0.00    +0.004 C 
ATOM     48  C48 UNL     1       3.370  13.242   7.316 -0.17 +0.00    +0.030 C 
ATOM     49  C49 UNL     1       2.505  13.862   8.414 +0.00 +0.00    +0.267 C 
ATOM     50  C50 UNL     1       4.723   9.242   8.130 -0.18 +0.00    +0.254 C 
ATOM     51  C51 UNL     1       2.373   8.730   8.708 -0.01 +0.00    +0.153 C 
ATOM     52  C52 UNL     1       1.958   9.928   9.583+99.99+99.99    +0.291 C 
ATOM     53  C53 UNL     1       0.339  10.933  11.054+99.99+99.99    +0.309 C 
ATOM     54  C54 UNL     1       1.034   8.677  11.451+99.99+99.99    +0.309 C 
ATOM     55  C55 UNL     1      23.864   5.481   0.010 -0.45 +0.00    +0.175 C 
ATOM     56  C56 UNL     1      22.459   6.050  -0.156 +1.36 +0.00    +0.027 C 
ATOM     57  C57 UNL     1      21.940   6.075  -1.600+15.02 +0.00    +0.004 C 
ATOM     58  C58 UNL     1      22.694   7.026  -2.537 +5.59 +0.00    +0.030 C 
ATOM     59  C59 UNL     1      23.779   6.330  -3.362 +4.65 +0.00    +0.267 C 
ATOM     60  C60 UNL     1      28.900   5.419   0.150 -0.18 +0.00    +0.175 C 
ATOM     61  C61 UNL     1      29.272   6.325  -1.025 -0.21 +0.00    +0.027 C 
ATOM     62  C62 UNL     1      28.167   6.460  -2.072 -0.22 +0.00    +0.004 C 
ATOM     63  C63 UNL     1      28.448   7.503  -3.163+18.62 +0.00    +0.030 C 
ATOM     64  C64 UNL     1      29.549   7.126  -4.155 +1.60 +0.00    +0.267 C 
ATOM     65  N1  UNL     1      32.370   2.334  -3.111 -0.04 +0.00    +0.081 N 
ATOM     66  N2  UNL     1      30.009   1.854  -0.870 -0.09 -0.00    -0.355 N 
ATOM     67  N3  UNL     1      22.637   1.942  -1.174+99.99 -0.00    -0.352 N 
ATOM     68  N4  UNL     1      19.634   3.370   1.986+99.99 -0.00    -0.352 N 
ATOM     69  N5  UNL     1      15.059   6.203   5.605 +0.87 -0.00    -0.352 N 
ATOM     70  N6  UNL     1      10.239   9.213   5.775 +0.79 -0.00    -0.352 N 
ATOM     71  N7  UNL     1      12.034  12.064   7.890+99.99 +0.00    +0.078 N 
ATOM     72  N8  UNL     1       3.192  13.786   9.696+99.99 +0.00    +0.078 N 
ATOM     73  N9  UNL     1       3.409   9.088   7.756 -0.18 -0.00    -0.355 N 
ATOM     74  N10 UNL     1       0.766   9.684  10.419+99.99+99.99    +0.081 N 
ATOM     75  N11 UNL     1      24.442   7.281  -4.250+99.99 +0.00    +0.078 N 
ATOM     76  N12 UNL     1      30.884   7.283  -3.590 -0.14 +0.00    +0.078 N 
ATOM     77  O1  UNL     1      28.689   0.178  -1.660+99.99 -0.00    -0.268 OA
ATOM     78  O2  UNL     1      23.984   0.175  -1.681+52.58 -0.00    -0.268 OA
ATOM     79  O3  UNL     1      21.480   3.883   3.258 +2.05 -0.00    -0.268 OA
ATOM     80  O4  UNL     1      21.216   4.283   5.800+28.49 -0.00    -0.360 OA
ATOM     81  O5  UNL     1      17.090   6.027   7.286+33.90 -0.00    -0.360 OA
ATOM     82  O6  UNL     1      15.524   5.712   3.420+99.99 -0.00    -0.268 OA
ATOM     83  O7  UNL     1       9.836   9.777   7.966 +4.17 -0.00    -0.268 OA
ATOM     84  O8  UNL     1       8.624  11.110   4.455+99.99 -0.00    -0.350 OA
ATOM     85  O9  UNL     1       3.964  10.586   5.688 +0.07 -0.00    -0.350 OA
ATOM     86  O10 UNL     1       5.119   8.978   9.262+10.09 -0.00    -0.268 OA
ATOM     87  O11 UNL     1      23.889   4.143  -0.491 +0.18 -0.00    -0.350 OA
ATOM     88  O12 UNL     1      28.773   4.057  -0.262 -0.14 -0.00    -0.350 OA
ATOM     89  H87 UNL     1      30.038   2.813  -0.542 +0.07 +0.00    +0.162 HD
ATOM     90  H88 UNL     1      22.632   2.886  -0.802+99.99 +0.00    +0.163 HD
ATOM     91  H89 UNL     1      18.634   3.211   2.013 +1.63 +0.00    +0.163 HD
ATOM     92  H90 UNL     1      15.485   6.337   6.520 +0.07 +0.00    +0.163 HD
ATOM     93  H91 UNL     1       9.812   9.106   4.861 +0.01 +0.00    +0.163 HD
ATOM     94  H92 UNL     1      12.393  11.607   7.054+12.90 +0.00    +0.312 HD
ATOM     95  H93 UNL     1      11.246  11.473   8.186+15.26 +0.00    +0.312 HD
ATOM     96  H94 UNL     1       3.418  12.816   9.919 +3.06 +0.00    +0.312 HD
ATOM     97  H95 UNL     1       2.575  14.115  10.438 +0.16 +0.00    +0.312 HD
ATOM     98  H96 UNL     1       3.129   9.444   6.848 +0.07 +0.00    +0.162 HD
ATOM     99  H97 UNL     1      24.785   8.076  -3.714 +2.29 +0.00    +0.312 HD
ATOM    100  H98 UNL     1      23.763   7.660  -4.909+99.99+99.99    +0.312 HD
ATOM    101  H99 UNL     1      31.578   7.053  -4.301 +0.07 +0.00    +0.312 HD
ATOM    102  HA0 UNL     1      31.040   8.261  -3.351 +0.11 +0.00    +0.312 HD
ATOM    103  HA1 UNL     1      21.693   4.043   4.972 +1.51 +0.00    +0.217 HD
ATOM    104  HA2 UNL     1      17.635   6.032   8.094+81.36 +0.00    +0.217 HD
ENDROOT
TORSDOF 46
TER
