USER    Run = 1
USER    DPF = ligand_286_receptor.dpf
USER  
USER    Estimated Free Energy of Binding    =  +1.45e+005 kcal/mol  [=(1)+(2)+(3)-(4)]
USER    
USER    (1) Final Intermolecular Energy     =  +1.45e+005 kcal/mol
USER        vdW + Hbond + desolv Energy     =  +1.45e+005 kcal/mol
USER        Electrostatic Energy            =   +0.00 kcal/mol
USER    (2) Final Total Internal Energy     =   +0.00 kcal/mol
USER    (3) Torsional Free Energy           =   +1.19 kcal/mol
USER    (4) Unbound System's Energy  [=(2)] =   +0.00 kcal/mol
USER    
USER    
USER    NEWDPF move ligand_286.pdbqt
USER    NEWDPF about 0.000000 0.000000 0.000000
USER    NEWDPF tran0 14.546718 7.802351 2.484675
USER    NEWDPF quaternion0 0.064654 0.114415 -0.739107 0.660643
USER    NEWDPF axisangle0 0.086125 0.152411 -0.984558 97.302086
USER    NEWDPF quat0 0.086125 0.152411 -0.984558 97.302086
USER  keepresnum = 1 
USER  
REMARK  0 active torsions:
REMARK  status: ('A' for Active; 'I' for Inactive)
REMARK       I    between atoms: C2_2  and  C3_3 
REMARK       I    between atoms: C2_2  and  N8_82 
REMARK       I    between atoms: C3_3  and  N1_74 
REMARK       I    between atoms: C4_4  and  N1_74 
REMARK       I    between atoms: C6_6  and  C11_11 
REMARK       I    between atoms: C7_7  and  O2_62 
REMARK       I    between atoms: C11_11  and  N2_75 
REMARK       I    between atoms: C12_12  and  C13_13 
REMARK       I    between atoms: C12_12  and  C17_17 
REMARK       I    between atoms: C12_12  and  N2_75 
REMARK       I    between atoms: C13_13  and  C14_14 
REMARK       I    between atoms: C14_14  and  C15_15 
REMARK       I    between atoms: C15_15  and  N3_76 
REMARK       I    between atoms: C16_16  and  N3_76 
REMARK       I    between atoms: C16_16  and  N4_77 
REMARK       I    between atoms: C16_16  and  N5_79 
REMARK       I    between atoms: C17_17  and  N6_80 
REMARK       I    between atoms: C18_18  and  N6_80 
REMARK       I    between atoms: C20_20  and  C25_25 
REMARK       I    between atoms: C21_21  and  O5_65 
REMARK       I    between atoms: C25_25  and  N7_81 
REMARK       I    between atoms: C26_26  and  C27_27 
REMARK       I    between atoms: C26_26  and  N8_82 
REMARK       I    between atoms: C27_27  and  C28_28 
REMARK       I    between atoms: C27_27  and  N12_87 
REMARK       I    between atoms: C28_28  and  C29_29 
REMARK       I    between atoms: C29_29  and  C30_30 
REMARK       I    between atoms: C30_30  and  N9_83 
REMARK       I    between atoms: C31_31  and  N9_83 
REMARK       I    between atoms: C31_31  and  N10_84 
REMARK       I    between atoms: C31_31  and  N11_86 
REMARK       I    between atoms: C32_32  and  C33_33 
REMARK       I    between atoms: C32_32  and  N12_87 
REMARK       I    between atoms: C34_34  and  O13_73 
REMARK       I    between atoms: C37_37  and  N13_88 
REMARK       I    between atoms: C39_39  and  C40_40 
REMARK       I    between atoms: C39_39  and  N13_88 
REMARK       I    between atoms: C40_40  and  C41_41 
REMARK       I    between atoms: C40_40  and  N17_93 
REMARK       I    between atoms: C41_41  and  C42_42 
REMARK       I    between atoms: C42_42  and  C43_43 
REMARK       I    between atoms: C43_43  and  N14_89 
REMARK       I    between atoms: C44_44  and  N14_89 
REMARK       I    between atoms: C44_44  and  N15_90 
REMARK       I    between atoms: C44_44  and  N16_92 
REMARK       I    between atoms: C45_45  and  C46_46 
REMARK       I    between atoms: C45_45  and  N17_93 
REMARK       I    between atoms: C47_47  and  O12_72 
REMARK       I    between atoms: C50_50  and  N18_94 
REMARK       I    between atoms: C52_52  and  C53_53 
REMARK       I    between atoms: C52_52  and  N18_94 
REMARK       I    between atoms: C53_53  and  C54_54 
REMARK       I    between atoms: C53_53  and  N22_99 
REMARK       I    between atoms: C54_54  and  C55_55 
REMARK       I    between atoms: C55_55  and  C56_56 
REMARK       I    between atoms: C56_56  and  C57_57 
REMARK       I    between atoms: C57_57  and  N19_95 
REMARK       I    between atoms: C58_58  and  N19_95 
REMARK       I    between atoms: C58_58  and  N20_96 
REMARK       I    between atoms: C58_58  and  N21_98 
USER                              x       y       z     vdW  Elec       q    Type
USER                           _______ _______ _______ _____ _____    ______ ____
ROOT
ATOM      1  C1  UNL     1      20.531   7.227  -3.396+71.32 +0.00    +0.042 C 
ATOM      2  C2  UNL     1      20.287   8.570  -2.721+99.99 +0.00    +0.172 C 
ATOM      3  C3  UNL     1      18.930   8.580  -1.962+97.42 +0.00    +0.244 C 
ATOM      4  C4  UNL     1      17.655  10.055  -0.385 -0.28 +0.00    +0.035 A 
ATOM      5  C5  UNL     1      16.715   9.116   0.043 -0.46 +0.00    +0.049 A 
ATOM      6  C6  UNL     1      15.679   9.505   0.905 +1.04 +0.00    +0.067 A 
ATOM      7  C7  UNL     1      15.587  10.824   1.356 -0.18 +0.00    +0.084 A 
ATOM      8  C8  UNL     1      16.526  11.763   0.933 -0.48 +0.00    +0.040 A 
ATOM      9  C9  UNL     1      17.560  11.376   0.076 +1.00 +0.00    +0.032 A 
ATOM     10  C10 UNL     1      14.832  11.328   3.471+99.99 +0.00    +0.210 C 
ATOM     11  C11 UNL     1      14.644   8.517   1.268+68.32 +0.00    +0.255 C 
ATOM     12  C12 UNL     1      12.698   7.254   0.359 +1.92 +0.00    +0.177 C 
ATOM     13  C13 UNL     1      12.290   6.679  -1.009 -0.43 +0.00    +0.036 C 
ATOM     14  C14 UNL     1      11.006   5.841  -0.945 -0.34 +0.00    +0.023 C 
ATOM     15  C15 UNL     1      10.098   6.081  -2.151 -0.21 +0.00    +0.138 C 
ATOM     16  C16 UNL     1       7.786   6.661  -1.459 +9.21 +0.00    +0.665 C 
ATOM     17  C17 UNL     1      11.567   8.147   0.938+57.80 +0.00    +0.245 C 
ATOM     18  C18 UNL     1      10.830   9.013   3.177 +5.83 +0.00    +0.035 A 
ATOM     19  C19 UNL     1       9.592   9.535   2.797+38.57 +0.00    +0.049 A 
ATOM     20  C20 UNL     1       8.773  10.191   3.730+99.99 +0.00    +0.067 A 
ATOM     21  C21 UNL     1       9.189  10.276   5.066+41.54 +0.00    +0.084 A 
ATOM     22  C22 UNL     1      10.434   9.773   5.448+31.98 +0.00    +0.040 A 
ATOM     23  C23 UNL     1      11.247   9.142   4.506 +4.24 +0.00    +0.032 A 
ATOM     24  C24 UNL     1       7.647   9.910   6.733+99.99 +0.00    +0.210 C 
ATOM     25  C25 UNL     1       7.471  10.722   3.240+99.99 +0.00    +0.252 C 
ATOM     26  C26 UNL     1      21.741  10.168  -1.480+99.99 +0.00    +0.241 C 
ATOM     27  C27 UNL     1      22.724  10.264  -0.294 -0.21 +0.00    +0.177 C 
ATOM     28  C28 UNL     1      23.524  11.568  -0.363 +9.82 +0.00    +0.036 C 
ATOM     29  C29 UNL     1      24.622  11.626   0.703+39.33 +0.00    +0.022 C 
ATOM     30  C30 UNL     1      25.396  12.946   0.690 +5.32 +0.00    +0.122 C 
ATOM     31  C31 UNL     1      27.268  12.465  -0.823+58.79 +0.00    +0.143 C 
ATOM     32  C32 UNL     1      21.329   9.035   1.334 +1.71 +0.00    +0.255 C 
ATOM     33  C33 UNL     1      20.213   9.109   2.336 +0.67 +0.00    +0.067 A 
ATOM     34  C34 UNL     1      19.708  10.309   2.880 +0.15 +0.00    +0.084 A 
ATOM     35  C35 UNL     1      18.618  10.247   3.754 +2.96 +0.00    +0.040 A 
ATOM     36  C36 UNL     1      18.041   9.019   4.091 -0.36 +0.00    +0.032 A 
ATOM     37  C37 UNL     1      18.549   7.826   3.580 -0.38 +0.00    +0.035 A 
ATOM     38  C38 UNL     1      19.632   7.877   2.705+25.12 +0.00    +0.049 A 
ATOM     39  C39 UNL     1      18.274   5.329   3.720+99.99 +0.00    +0.245 C 
ATOM     40  C40 UNL     1      17.523   4.325   4.633+99.99 +0.00    +0.177 C 
ATOM     41  C41 UNL     1      17.449   2.919   4.016+99.99 +0.00    +0.036 C 
ATOM     42  C42 UNL     1      16.620   1.893   4.800+99.99 +0.00    +0.022 C 
ATOM     43  C43 UNL     1      17.057   1.715   6.254+97.20 +0.00    +0.122 C 
ATOM     44  C44 UNL     1      16.040   0.694   8.271+99.99 +0.00    +0.143 C 
ATOM     45  C45 UNL     1      15.106   4.905   4.375+99.99 +0.00    +0.255 C 
ATOM     46  C46 UNL     1      13.805   5.119   5.095 +3.37 +0.00    +0.067 A 
ATOM     47  C47 UNL     1      13.683   5.287   6.487 -0.43 +0.00    +0.084 A 
ATOM     48  C48 UNL     1      12.417   5.497   7.047 -0.42 +0.00    +0.040 A 
ATOM     49  C49 UNL     1      11.274   5.461   6.245 -0.33 +0.00    +0.032 A 
ATOM     50  C50 UNL     1      11.372   5.227   4.871 -0.28 +0.00    +0.035 A 
ATOM     51  C51 UNL     1      12.639   5.085   4.303+13.29 +0.00    +0.049 A 
ATOM     52  C52 UNL     1       9.997   4.790   2.818 +0.34 +0.00    +0.255 C 
ATOM     53  C53 UNL     1       8.508   4.576   2.427 -0.07 +0.00    +0.309 C 
ATOM     54  C54 UNL     1       7.725   5.896   2.494 -0.22 +0.00    +0.045 C 
ATOM     55  C55 UNL     1       6.243   5.746   2.123 -0.24 +0.00    +0.004 C 
ATOM     56  C56 UNL     1       5.488   7.079   2.121 -0.25 +0.00    +0.020 C 
ATOM     57  C57 UNL     1       5.256   7.644   3.522+34.11 +0.00    +0.122 C 
ATOM     58  C58 UNL     1       4.218   9.663   4.500+41.88 +0.00    +0.143 C 
ATOM     59  C59 UNL     1      14.677   4.557   8.496 +1.57 +0.00    +0.210 C 
ATOM     60  C60 UNL     1      19.947  12.666   3.225+35.66 +0.00    +0.210 C 
ATOM     61  O1  UNL     1      18.106   7.676  -2.083 +0.41 -0.00    -0.271 OA
ATOM     62  O2  UNL     1      14.510  11.251   2.084 +0.40 -0.00    -0.355 OA
ATOM     63  O3  UNL     1      14.447   8.192   2.434 +0.09 -0.00    -0.268 OA
ATOM     64  O4  UNL     1      10.690   8.632   0.222+31.49 -0.00    -0.271 OA
ATOM     65  O5  UNL     1       8.423  10.885   6.028+99.99 -0.00    -0.355 OA
ATOM     66  O6  UNL     1       6.915  10.250   2.253+99.99 -0.00    -0.268 OA
ATOM     67  O7  UNL     1      21.170  11.143  -1.968+99.99 -0.00    -0.271 OA
ATOM     68  O8  UNL     1      21.676   7.961   0.846+14.32 -0.00    -0.268 OA
ATOM     69  O9  UNL     1      19.190   4.967   2.986+99.99 -0.00    -0.271 OA
ATOM     70  O10 UNL     1      15.139   4.765   3.159+99.99 -0.00    -0.268 OA
ATOM     71  O11 UNL     1      10.907   4.623   2.009+41.04 -0.00    -0.271 OA
ATOM     72  O12 UNL     1      14.810   5.288   7.272 -0.21 -0.00    -0.355 OA
ATOM     73  O13 UNL     1      20.288  11.492   2.493 -0.18 -0.00    -0.355 OA
ATOM     74  N1  UNL     1      18.717   9.755  -1.257+24.23 -0.00    -0.325 N 
ATOM     75  N2  UNL     1      13.889   8.089   0.200+21.06 -0.00    -0.344 N 
ATOM     76  N3  UNL     1       8.724   5.755  -1.812 -0.08 -0.00    -0.227 N 
ATOM     77  N4  UNL     1       6.575   6.493  -1.854+99.99 -0.00    -0.235 N 
ATOM     78  H4  UNL     1       6.245   5.745  -2.465+99.99 +0.00    +0.174 HD
ATOM     79  N5  UNL     1       8.152   7.665  -0.649 -0.31 -0.00    -0.235 N 
ATOM     80  N6  UNL     1      11.700   8.341   2.303 +5.15 -0.00    -0.325 N 
ATOM     81  N7  UNL     1       6.891  11.734   3.949+99.99 -0.00    -0.366 N 
ATOM     82  N8  UNL     1      21.395   8.875  -1.815+99.99 -0.00    -0.346 N 
ATOM     83  N9  UNL     1      26.133  13.144  -0.548+21.92 -0.00    -0.367 N 
ATOM     84  N10 UNL     1      27.892  11.706  -0.003+44.00 -0.00    -0.376 N 
ATOM     85  H10 UNL     1      27.614  11.537   0.964+99.99 +0.00    +0.158 HD
ATOM     86  N11 UNL     1      27.685  12.693  -2.085+29.03 -0.00    -0.274 NA
ATOM     87  N12 UNL     1      21.888  10.218   0.902 -0.13 -0.00    -0.344 N 
ATOM     88  N13 UNL     1      17.933   6.641   4.011+15.13 -0.00    -0.325 N 
ATOM     89  N14 UNL     1      16.119   0.842   6.933 +3.27 -0.00    -0.367 N 
ATOM     90  N15 UNL     1      16.597   1.391   9.191+99.99 -0.00    -0.376 N 
ATOM     91  H15 UNL     1      16.466   1.253  10.192+99.99 +0.00    +0.158 HD
ATOM     92  N16 UNL     1      15.229  -0.325   8.609+11.13 -0.00    -0.274 NA
ATOM     93  N17 UNL     1      16.249   4.839   5.141+99.99 -0.00    -0.344 N 
ATOM     94  N18 UNL     1      10.160   5.117   4.156 -0.09 -0.00    -0.325 N 
ATOM     95  N19 UNL     1       4.626   8.950   3.428+14.28 -0.00    -0.367 N 
ATOM     96  N20 UNL     1       4.054   9.268   5.708+16.56 -0.00    -0.376 N 
ATOM     97  H20 UNL     1       3.766   9.855   6.490 +0.07 +0.00    +0.158 HD
ATOM     98  N21 UNL     1       3.947  10.944   4.179 -0.04 -0.00    -0.274 NA
ATOM     99  N22 UNL     1       8.423   3.948   1.096 -0.12 +0.00    +0.092 N 
ATOM    100  H59 UNL     1      19.377  10.506  -1.455 +9.88 +0.00    +0.169 HD
ATOM    101  H60 UNL     1      14.003   8.579  -0.680 -0.33 +0.00    +0.163 HD
ATOM    102  H61 UNL     1       8.308   5.080  -2.448 -0.12 +0.00    +0.177 HD
ATOM    103  H62 UNL     1       5.997   7.234  -1.452 +2.52 +0.00    +0.174 HD
ATOM    104  H63 UNL     1       7.531   8.455  -0.539 -0.12 +0.00    +0.174 HD
ATOM    105  H64 UNL     1       9.132   7.933  -0.576 +0.10 +0.00    +0.174 HD
ATOM    106  H65 UNL     1      12.596   8.032   2.689 -0.14 +0.00    +0.169 HD
ATOM    107  H66 UNL     1       5.890  11.848   3.812+53.24 +0.00    +0.159 HD
ATOM    108  H67 UNL     1       7.232  11.951   4.879+99.99 +0.00    +0.159 HD
ATOM    109  H68 UNL     1      21.589   8.178  -1.090 +0.12 +0.00    +0.163 HD
ATOM    110  H69 UNL     1      25.542  13.294  -1.356 +2.07 +0.00    +0.162 HD
ATOM    111  H70 UNL     1      28.707  11.296  -0.457 +3.27 +0.00    +0.158 HD
ATOM    112  H71 UNL     1      27.545  13.655  -2.370+11.05 +0.00    +0.127 HD
ATOM    113  H72 UNL     1      28.638  12.407  -2.268 +0.93 +0.00    +0.127 HD
ATOM    114  H73 UNL     1      21.414  11.070   1.185 +0.15 +0.00    +0.163 HD
ATOM    115  H74 UNL     1      17.098   6.732   4.580 +0.28 +0.00    +0.169 HD
ATOM    116  H75 UNL     1      15.969  -0.036   6.444 +0.08 +0.00    +0.162 HD
ATOM    117  H76 UNL     1      17.191   2.103   8.769+99.99 +0.00    +0.158 HD
ATOM    118  H77 UNL     1      15.076  -0.322   9.613 +0.02 +0.00    +0.127 HD
ATOM    119  H78 UNL     1      14.347  -0.312   8.113 +0.13 +0.00    +0.127 HD
ATOM    120  H79 UNL     1      16.124   4.878   6.149+99.99 +0.00    +0.163 HD
ATOM    121  H80 UNL     1       9.313   5.203   4.702 +0.10 +0.00    +0.169 HD
ATOM    122  H81 UNL     1       5.134   9.541   2.761 -0.11 +0.00    +0.162 HD
ATOM    123  H82 UNL     1       4.260   8.270   5.760 +0.59 +0.00    +0.158 HD
ATOM    124  H83 UNL     1       3.428  11.369   4.942 +0.03 +0.00    +0.127 HD
ATOM    125  H84 UNL     1       3.412  11.002   3.318 -0.07 +0.00    +0.127 HD
ATOM    126  H85 UNL     1       9.276   3.402   0.946 -0.09 +0.00    +0.313 HD
ATOM    127  H86 UNL     1       8.478   4.677   0.373 +0.14 +0.00    +0.313 HD
ENDROOT
TORSDOF 39
TER
