USER    Run = 1
USER    DPF = ligand_467_receptor.dpf
USER  
USER    Estimated Free Energy of Binding    = +245.91 kcal/mol  [=(1)+(2)+(3)-(4)]
USER    
USER    (1) Final Intermolecular Energy     = +244.72 kcal/mol
USER        vdW + Hbond + desolv Energy     = +244.72 kcal/mol
USER        Electrostatic Energy            =   +0.00 kcal/mol
USER    (2) Final Total Internal Energy     =   -3.26 kcal/mol
USER    (3) Torsional Free Energy           =   +1.19 kcal/mol
USER    (4) Unbound System's Energy  [=(2)] =   -3.26 kcal/mol
USER    
USER    
USER    NEWDPF move ligand_467.pdbqt
USER    NEWDPF about 0.000000 0.000000 0.000000
USER    NEWDPF tran0 12.243561 9.982771 5.337026
USER    NEWDPF quaternion0 0.597195 0.583612 -0.052991 0.547674
USER    NEWDPF axisangle0 0.713757 0.697524 -0.063334 113.584785
USER    NEWDPF quat0 0.713757 0.697524 -0.063334 113.584785
USER    NEWDPF dihe0 180.00 -34.29 5.85 -45.41 167.76 -180.00 -56.74 66.19 56.01 145.09 107.00 -14.73 -61.86 173.91 169.17 -73.28 -68.04 180.00 130.50 -33.20 -145.70 -96.13 -128.94 5.73 -5.52 99.60 98.06 -7.94 155.44 -8.28 61.05 
USER  keepresnum = 1 
USER  
REMARK  31 active torsions:
REMARK  status: ('A' for Active; 'I' for Inactive)
REMARK    1  A    between atoms: C2_2  and  C3_3 
REMARK    2  A    between atoms: C12_12  and  C14_14 
REMARK    3  A    between atoms: C12_12  and  O11_84 
REMARK    4  A    between atoms: C13_13  and  O1_74 
REMARK       I    between atoms: C14_14  and  N2_68 
REMARK    5  A    between atoms: C15_15  and  C16_16 
REMARK    6  A    between atoms: C15_15  and  N2_68 
REMARK    7  A    between atoms: C16_16  and  C17_17 
REMARK    8  A    between atoms: C17_17  and  O3_76 
REMARK    9  A    between atoms: C18_18  and  C19_19 
REMARK   10  A    between atoms: C18_18  and  O3_76 
REMARK   11  A    between atoms: C19_19  and  N3_69 
REMARK   12  A    between atoms: C21_21  and  C22_22 
REMARK       I    between atoms: C21_21  and  N3_69 
REMARK   13  A    between atoms: C22_22  and  C23_23 
REMARK   14  A    between atoms: C23_23  and  N4_70 
REMARK       I    between atoms: C24_24  and  N4_70 
REMARK   15  A    between atoms: C24_24  and  O7_80 
REMARK   16  A    between atoms: C25_25  and  C26_26 
REMARK   17  A    between atoms: C25_25  and  O7_80 
REMARK   18  A    between atoms: C26_26  and  O8_81 
REMARK   19  A    between atoms: C26_26  and  O10_83 
REMARK   20  A    between atoms: C27_27  and  C28_28 
REMARK   21  A    between atoms: C27_27  and  C33_33 
REMARK   22  A    between atoms: C27_27  and  O8_81 
REMARK   23  A    between atoms: C28_28  and  C29_29 
REMARK   24  A    between atoms: C33_33  and  O9_82 
REMARK   25  A    between atoms: C34_34  and  O10_83 
REMARK   26  A    between atoms: C40_40  and  O15_88 
REMARK   27  A    between atoms: C41_41  and  C44_44 
REMARK   28  A    between atoms: C44_44  and  C63_63 
REMARK   29  A    between atoms: C48_48  and  C61_61 
REMARK   30  A    between atoms: C48_48  and  O12_85 
REMARK   31  A    between atoms: C63_63  and  O14_87 
USER                              x       y       z     vdW  Elec       q    Type
USER                           _______ _______ _______ _____ _____    ______ ____
ROOT
ATOM      1  C3  UNL     1      13.098   6.255   5.893 -0.47 +0.00    +0.038 C 
ATOM      2  C4  UNL     1      13.242   4.833   6.471 -0.59 -0.00    -0.015 C 
ATOM      3  C5  UNL     1      12.192   4.226   7.073 -0.57 -0.00    -0.000 C 
ATOM      4  C6  UNL     1      10.812   4.864   7.210 -0.25 +0.00    +0.300 C 
ATOM      5  C7  UNL     1      11.597   6.354   5.503 -0.23 +0.00    +0.252 C 
ATOM      6  C8  UNL     1      11.111   7.625   4.810 -0.43 +0.00    +0.042 C 
ATOM      7  C9  UNL     1      10.101   8.205   5.831 +5.15 +0.00    +0.049 C 
ATOM      8  C10 UNL     1       9.603   6.972   6.602 +4.89 +0.00    +0.274 C 
ATOM      9  C11 UNL     1      12.226   8.602   4.341 +0.14 +0.00    +0.124 C 
ATOM     10  C12 UNL     1      13.607   7.922   3.977 -0.40 +0.00    +0.182 C 
ATOM     11  C13 UNL     1      13.878   6.512   4.584 -0.18 +0.00    +0.178 C 
ATOM     12  C38 UNL     1      10.698   8.445   2.617 +6.06 +0.00    +0.020 A 
ATOM     13  C39 UNL     1      10.094   8.517   1.372+31.77 +0.00    +0.061 A 
ATOM     14  C40 UNL     1       9.141   7.550   1.014 -0.08 +0.00    +0.077 A 
ATOM     15  C41 UNL     1       8.788   6.505   1.904 -0.27 +0.00    +0.000 A 
ATOM     16  C42 UNL     1       9.445   6.454   3.154 -0.28 +0.00    +0.021 A 
ATOM     17  C43 UNL     1      10.377   7.423   3.500 -0.37 -0.00    -0.023 A 
ATOM     18  C66 UNL     1      11.317  10.686   3.233+38.66 +0.00    +0.117 C 
ATOM     19  N1  UNL     1      10.845   6.252   6.763 -0.26 +0.00    +0.098 N 
ATOM     20  N5  UNL     1      11.736   9.291   3.080 +7.29 -0.00    -0.278 NA
ENDROOT
BRANCH  10  21
ATOM     21  C14 UNL     1      14.764   8.885   4.344 -0.13 +0.00    +0.256 C 
ATOM     22  N2  UNL     1      15.166   9.687   3.291 +0.02 -0.00    -0.358 N 
ATOM     23  H90 UNL     1      14.533   9.710   2.494 -0.45 +0.00    +0.162 HD
ATOM     24  O2  UNL     1      15.308   8.916   5.444 +3.39 -0.00    -0.270 OA
BRANCH  22  25
ATOM     25  C15 UNL     1      16.171  10.720   3.426 +0.73 +0.00    +0.125 C 
BRANCH  25  26
ATOM     26  C16 UNL     1      15.569  12.123   3.530+30.46 +0.00    +0.046 C 
BRANCH  26  27
ATOM     27  C17 UNL     1      16.297  13.172   2.695+17.06 +0.00    +0.180 C 
BRANCH  27  28
ATOM     28  O3  UNL     1      16.412  12.703   1.347 +0.40 -0.00    -0.320 OA
BRANCH  28  29
ATOM     29  C18 UNL     1      17.176  11.583   1.196 -0.40 +0.00    +0.281 C 
ATOM     30  O4  UNL     1      16.745  10.436   1.123 -0.32 -0.00    -0.263 OA
BRANCH  29  31
ATOM     31  C19 UNL     1      18.661  11.960   1.108 -0.58 +0.00    +0.180 C 
ATOM     32  C20 UNL     1      19.019  12.304  -0.329 +1.59 +0.00    +0.043 C 
BRANCH  31  33
ATOM     33  N3  UNL     1      19.464  10.831   1.583 -0.21 -0.00    -0.348 N 
ATOM     34  C21 UNL     1      20.724  10.613   1.058 -0.38 +0.00    +0.219 C 
ATOM     35  O5  UNL     1      21.136  11.178   0.051 -0.42 -0.00    -0.274 OA
ATOM     36  H91 UNL     1      19.329  10.568   2.552 +0.13 +0.00    +0.163 HD
BRANCH  34  37
ATOM     37  C22 UNL     1      21.529   9.603   1.849 -0.39 +0.00    +0.122 C 
BRANCH  37  38
ATOM     38  C23 UNL     1      21.357   8.185   1.317+50.00 +0.00    +0.134 C 
BRANCH  38  39
ATOM     39  N4  UNL     1      22.580   7.413   1.353 +1.41 -0.00    -0.336 N 
ATOM     40  C24 UNL     1      23.234   7.022   0.225 -0.18 +0.00    +0.360 C 
ATOM     41  O6  UNL     1      22.813   7.176  -0.911 -0.45 -0.00    -0.239 OA
ATOM     42  H92 UNL     1      23.112   7.384   2.214 +0.12 +0.00    +0.164 HD
BRANCH  40  43
ATOM     43  O7  UNL     1      24.422   6.471   0.574 -0.25 -0.00    -0.299 OA
BRANCH  43  44
ATOM     44  C25 UNL     1      25.165   7.162   1.600 -0.29 +0.00    +0.241 C 
BRANCH  44  45
ATOM     45  C26 UNL     1      26.100   8.208   0.961 -0.26 +0.00    +0.285 C 
BRANCH  45  46
ATOM     46  O8  UNL     1      27.327   8.124   1.683 -0.26 -0.00    -0.352 OA
BRANCH  46  47
ATOM     47  C27 UNL     1      28.339   7.256   1.149 -0.29 +0.00    +0.149 C 
BRANCH  47  48
ATOM     48  C28 UNL     1      29.232   8.070   0.188 -0.32 +0.00    +0.042 C 
BRANCH  48  49
ATOM     49  C29 UNL     1      30.748   8.224   0.493 -0.25 -0.00    -0.049 C 
ATOM     50  C30 UNL     1      31.608   7.314  -0.395 -0.12 +0.00    +0.014 C 
ATOM     51  C31 UNL     1      31.217   9.682   0.354 -0.03 +0.00    +0.014 C 
ATOM     52  C32 UNL     1      30.970   7.810   1.967 -0.36 +0.00    +0.014 C 
ENDBRANCH  48  49
ENDBRANCH  47  48
BRANCH  47  53
ATOM     53  C33 UNL     1      27.534   6.134   0.482 -0.18 +0.00    +0.196 C 
BRANCH  53  54
ATOM     54  O9  UNL     1      27.798   6.099  -0.922 -0.10 -0.00    -0.398 OA
ATOM     55  H95 UNL     1      28.067   5.170  -1.097 +0.10 +0.00    +0.209 HD
ENDBRANCH  53  54
ENDBRANCH  47  53
ENDBRANCH  46  47
ENDBRANCH  45  46
BRANCH  45  56
ATOM     56  O10 UNL     1      25.548   9.512   1.110 +0.04 -0.00    -0.349 OA
BRANCH  56  57
ATOM     57  C34 UNL     1      25.492  10.077   2.428 -0.49 +0.00    +0.053 C 
ATOM     58  C35 UNL     1      25.248  11.591   2.410 +3.06 +0.00    +0.045 C 
ATOM     59  C36 UNL     1      26.751   9.742   3.237 +0.61 +0.00    +0.045 C 
ATOM     60  C37 UNL     1      24.288   9.397   3.100 -0.62 +0.00    +0.045 C 
ENDBRANCH  56  57
ENDBRANCH  45  56
ENDBRANCH  44  45
ENDBRANCH  43  44
ENDBRANCH  40  43
ENDBRANCH  38  39
ENDBRANCH  37  38
ENDBRANCH  34  37
ENDBRANCH  31  33
ENDBRANCH  29  31
ENDBRANCH  28  29
ENDBRANCH  27  28
ENDBRANCH  26  27
ENDBRANCH  25  26
ENDBRANCH  22  25
ENDBRANCH  10  21
BRANCH  10  61
ATOM     61  O11 UNL     1      13.723   7.761   2.517 -0.06 -0.00    -0.376 OA
ATOM     62  H96 UNL     1      12.814   7.986   2.208 -0.17 +0.00    +0.211 HD
ENDBRANCH  10  61
BRANCH  11  63
ATOM     63  O1  UNL     1      13.518   5.512   3.601+15.82 -0.00    -0.391 OA
ATOM     64  H94 UNL     1      13.699   5.927   2.730 -0.29 +0.00    +0.210 HD
ENDBRANCH  11  63
BRANCH   1  65
ATOM     65  C2  UNL     1      13.533   7.235   7.037 -0.47 +0.00    +0.014 C 
ATOM     66  C1  UNL     1      14.414   6.622   8.125 -0.54 +0.00    +0.006 C 
ENDBRANCH   1  65
BRANCH  15  67
ATOM     67  C44 UNL     1       7.765   5.387   1.505 -0.14 +0.00    +0.121 C 
ATOM     68  C45 UNL     1       8.554   4.309   0.692 -0.15 +0.00    +0.037 C 
ATOM     69  C46 UNL     1       9.895   3.750   1.254+13.68 +0.00    +0.008 C 
ATOM     70  C47 UNL     1      10.633   2.936   0.156+13.46 +0.00    +0.045 C 
ATOM     71  C50 UNL     1       9.779   2.942   2.551 +4.35 +0.00    +0.121 C 
ATOM     72  C48 UNL     1      10.579   1.403   0.338 +0.09 +0.00    +0.073 C 
ATOM     73  C49 UNL     1       9.287   0.998   1.094 -0.28 +0.00    +0.154 C 
ATOM     74  N6  UNL     1       9.156   1.637   2.404 +2.50 -0.00    -0.409 N 
ATOM     75  C51 UNL     1       7.877   1.441   3.075 +8.50 +0.00    +0.121 C 
ATOM     76  C52 UNL     1       6.681   2.249   2.553 -0.28 +0.00    +0.061 C 
ATOM     77  C53 UNL     1       6.533   3.607   3.175 -0.21 -0.00    -0.020 C 
ATOM     78  C54 UNL     1       6.962   4.855   2.721 -0.16 +0.00    +0.040 C 
ATOM     79  C60 UNL     1       5.858   3.822   4.431 -0.23 -0.00    -0.001 A 
ATOM     80  N7  UNL     1       6.399   5.788   3.583 -0.06 -0.00    -0.357 N 
ATOM     81  C55 UNL     1       5.801   5.190   4.657 -0.20 +0.00    +0.043 A 
ATOM     82  H93 UNL     1       6.461   6.790   3.452 +0.08 +0.00    +0.166 HD
ATOM     83  C56 UNL     1       5.200   5.757   5.786 -0.23 +0.00    +0.030 A 
ATOM     84  C57 UNL     1       4.640   4.889   6.725 -0.39 +0.00    +0.002 A 
ATOM     85  C58 UNL     1       4.672   3.511   6.532 -0.30 +0.00    +0.001 A 
ATOM     86  C59 UNL     1       5.271   2.966   5.390 +0.19 +0.00    +0.014 A 
BRANCH  72  87
ATOM     87  C61 UNL     1      10.636   0.662  -1.018 -0.38 +0.00    +0.035 C 
ATOM     88  C62 UNL     1       9.589  -0.434  -1.185 -0.33 +0.00    +0.008 C 
ENDBRANCH  72  87
BRANCH  72  89
ATOM     89  O12 UNL     1      11.706   0.959   1.111 +0.70 -0.00    -0.388 OA
ATOM     90  H97 UNL     1      11.413   0.267   1.725 +0.11 +0.00    +0.210 HD
ENDBRANCH  72  89
BRANCH  67  91
ATOM     91  C63 UNL     1       6.617   6.008   0.619 -0.16 +0.00    +0.278 C 
ATOM     92  O13 UNL     1       5.886   6.930   0.982 -0.25 -0.00    -0.264 OA
BRANCH  91  93
ATOM     93  O14 UNL     1       6.462   5.343  -0.566 -0.02 -0.00    -0.325 OA
ATOM     94  C64 UNL     1       5.163   4.785  -0.756 -0.04 +0.00    +0.213 C 
ENDBRANCH  91  93
ENDBRANCH  67  91
ENDBRANCH  15  67
BRANCH  14  95
ATOM     95  O15 UNL     1       8.596   7.522  -0.246 -0.24 -0.00    -0.355 OA
ATOM     96  C65 UNL     1       9.392   8.152  -1.249 -0.16 +0.00    +0.210 C 
ENDBRANCH  14  95
TORSDOF 31
TER
