USER    Run = 1
USER    DPF = ligand_131_receptor.dpf
USER  
USER    Estimated Free Energy of Binding    = +348.78 kcal/mol  [=(1)+(2)+(3)-(4)]
USER    
USER    (1) Final Intermolecular Energy     = +347.59 kcal/mol
USER        vdW + Hbond + desolv Energy     = +347.59 kcal/mol
USER        Electrostatic Energy            =   +0.00 kcal/mol
USER    (2) Final Total Internal Energy     =   +5.56 kcal/mol
USER    (3) Torsional Free Energy           =   +1.19 kcal/mol
USER    (4) Unbound System's Energy  [=(2)] =   +5.56 kcal/mol
USER    
USER    
USER    NEWDPF move ligand_131.pdbqt
USER    NEWDPF about 0.000000 0.000000 0.000000
USER    NEWDPF tran0 19.045959 8.580289 2.586626
USER    NEWDPF quaternion0 0.203080 -0.894534 0.134999 -0.374623
USER    NEWDPF axisangle0 0.219030 -0.964793 0.145602 -135.997923
USER    NEWDPF quat0 0.219030 -0.964793 0.145602 -135.997923
USER    NEWDPF dihe0 -180.00 126.44 173.17 133.97 -180.00 47.57 -78.42 112.05 136.81 67.17 8.93 -21.92 176.60 169.10 -55.15 -174.45 134.92 -43.38 -180.00 -158.02 -158.41 -29.18 54.01 
USER  keepresnum = 1 
USER  
REMARK  23 active torsions:
REMARK  status: ('A' for Active; 'I' for Inactive)
REMARK       I    between atoms: C2_2  and  N1_58 
REMARK    1  A    between atoms: C3_3  and  N1_58 
REMARK    2  A    between atoms: C5_5  and  C6_6 
REMARK       I    between atoms: C6_6  and  N4_62 
REMARK    3  A    between atoms: C7_7  and  N4_62 
REMARK    4  A    between atoms: C9_9  and  C11_11 
REMARK       I    between atoms: C11_11  and  N6_64 
REMARK    5  A    between atoms: C12_12  and  N6_64 
REMARK    6  A    between atoms: C14_14  and  C16_16 
REMARK       I    between atoms: C16_16  and  N8_66 
REMARK    7  A    between atoms: C17_17  and  C18_18 
REMARK    8  A    between atoms: C17_17  and  N8_66 
REMARK    9  A    between atoms: C18_18  and  C19_19 
REMARK   10  A    between atoms: C19_19  and  C20_20 
REMARK       I    between atoms: C20_20  and  N9_67 
REMARK   11  A    between atoms: C21_21  and  N9_67 
REMARK   12  A    between atoms: C23_23  and  C25_25 
REMARK       I    between atoms: C25_25  and  N11_69 
REMARK   13  A    between atoms: C26_26  and  N11_69 
REMARK   14  A    between atoms: C28_28  and  C30_30 
REMARK       I    between atoms: C30_30  and  N13_71 
REMARK   15  A    between atoms: C31_31  and  N13_71 
REMARK   16  A    between atoms: C33_33  and  C35_35 
REMARK       I    between atoms: C35_35  and  N15_73 
REMARK   17  A    between atoms: C36_36  and  C37_37 
REMARK   18  A    between atoms: C36_36  and  N15_73 
REMARK   19  A    between atoms: C37_37  and  O9_57 
REMARK   20  A    between atoms: C38_38  and  C39_39 
REMARK   21  A    between atoms: C38_38  and  N16_74 
REMARK   22  A    between atoms: C39_39  and  C40_40 
REMARK   23  A    between atoms: C40_40  and  N17_75 
USER                              x       y       z     vdW  Elec       q    Type
USER                           _______ _______ _______ _____ _____    ______ ____
ROOT
ATOM      1  C20 UNL     1      20.652  11.707   1.690 +0.77 +0.00    +0.222 C 
ATOM      2  O5  UNL     1      19.488  12.011   1.929 -0.44 -0.00    -0.273 OA
ATOM      3  N9  UNL     1      21.403  10.755   2.360 +0.25 -0.00    -0.326 N 
ATOM      4  H58 UNL     1      22.361  10.596   2.077 +0.21 +0.00    +0.169 HD
ENDROOT
BRANCH   3   5
ATOM      5  C21 UNL     1      20.947   9.999   3.422 +1.63 +0.00    +0.052 A 
ATOM      6  C22 UNL     1      21.593   9.944   4.632+22.48 +0.00    +0.120 A 
ATOM      7  N10 UNL     1      20.886   9.106   5.461+22.82 -0.00    -0.354 N 
ATOM      8  C23 UNL     1      19.768   8.614   4.806 +5.02 +0.00    +0.105 A 
ATOM      9  C45 UNL     1      21.270   8.812   6.827 +9.51 +0.00    +0.156 C 
ATOM     10  C24 UNL     1      19.812   9.164   3.527 +0.25 +0.00    +0.066 A 
BRANCH   8  11
ATOM     11  C25 UNL     1      18.796   7.697   5.402+55.95 +0.00    +0.273 C 
ATOM     12  O6  UNL     1      19.139   6.649   5.943+32.38 -0.00    -0.266 OA
ATOM     13  N11 UNL     1      17.482   8.121   5.301 +5.57 -0.00    -0.320 N 
ATOM     14  H59 UNL     1      17.296   9.010   4.862 +0.11 +0.00    +0.169 HD
BRANCH  13  15
ATOM     15  C26 UNL     1      16.381   7.440   5.783+13.55 +0.00    +0.053 A 
ATOM     16  C27 UNL     1      16.492   6.285   6.525+46.33 +0.00    +0.120 A 
ATOM     17  N12 UNL     1      15.228   5.848   6.831 +1.47 -0.00    -0.354 N 
ATOM     18  C28 UNL     1      14.292   6.739   6.345 -0.28 +0.00    +0.105 A 
ATOM     19  C44 UNL     1      14.949   4.591   7.493 +2.71 +0.00    +0.156 C 
ATOM     20  C29 UNL     1      15.001   7.709   5.650 +3.65 +0.00    +0.066 A 
BRANCH  18  21
ATOM     21  C30 UNL     1      12.851   6.653   6.486 -0.28 +0.00    +0.273 C 
ATOM     22  O7  UNL     1      12.316   6.295   7.529 -0.25 -0.00    -0.266 OA
ATOM     23  N13 UNL     1      12.178   6.976   5.322 -0.14 -0.00    -0.320 N 
ATOM     24  H60 UNL     1      12.725   7.123   4.484 +0.11 +0.00    +0.169 HD
BRANCH  23  25
ATOM     25  C31 UNL     1      10.805   6.973   5.178 -0.30 +0.00    +0.053 A 
ATOM     26  C32 UNL     1      10.151   7.624   4.160 -0.31 +0.00    +0.120 A 
ATOM     27  N14 UNL     1       8.802   7.410   4.308 +0.51 -0.00    -0.354 N 
ATOM     28  C33 UNL     1       8.563   6.610   5.412 +5.84 +0.00    +0.104 A 
ATOM     29  C43 UNL     1       7.800   7.933   3.403 +2.06 +0.00    +0.156 C 
ATOM     30  C34 UNL     1       9.811   6.357   5.970 -0.01 +0.00    +0.066 A 
BRANCH  28  31
ATOM     31  C35 UNL     1       7.258   6.167   5.855 +2.20 +0.00    +0.268 C 
ATOM     32  O8  UNL     1       6.433   5.597   5.143 -0.16 -0.00    -0.266 OA
ATOM     33  N15 UNL     1       6.958   6.435   7.175 +1.87 -0.00    -0.348 N 
ATOM     34  H61 UNL     1       7.716   6.753   7.769 +0.17 +0.00    +0.163 HD
BRANCH  33  35
ATOM     35  C36 UNL     1       5.786   5.877   7.814 +0.76 +0.00    +0.206 C 
BRANCH  35  36
ATOM     36  C37 UNL     1       5.588   4.467   7.334 -0.26 +0.00    +0.129 C 
ATOM     37  N16 UNL     1       6.517   3.684   6.922 -0.16 -0.00    -0.373 N 
ATOM     38  H62 UNL     1       6.225   2.774   6.566 -0.26 +0.00    +0.161 HD
BRANCH  36  39
ATOM     39  O9  UNL     1       4.329   4.005   7.306 -0.66 -0.00    -0.348 OA
ATOM     40  H53 UNL     1       3.605   4.546   7.663 +0.09 +0.00    +0.219 HD
ENDBRANCH  36  39
BRANCH  37  41
ATOM     41  C38 UNL     1       7.985   3.901   6.824 -0.42 +0.00    +0.123 C 
BRANCH  41  42
ATOM     42  C39 UNL     1       8.705   2.561   6.679 +3.58 +0.00    +0.050 C 
BRANCH  42  43
ATOM     43  C40 UNL     1      10.134   2.596   7.245 +0.81 +0.00    +0.273 C 
BRANCH  43  44
ATOM     44  N17 UNL     1      10.640   3.900   7.658 -0.43 +0.00    +0.080 N 
ATOM     45  C41 UNL     1      12.054   3.913   8.021 -0.27 +0.00    +0.309 C 
ATOM     46  C42 UNL     1       9.828   4.541   8.693 +0.27 +0.00    +0.309 C 
ENDBRANCH  43  44
ENDBRANCH  42  43
ENDBRANCH  41  42
ENDBRANCH  37  41
ENDBRANCH  35  36
ENDBRANCH  33  35
ENDBRANCH  28  31
ENDBRANCH  23  25
ENDBRANCH  18  21
ENDBRANCH  13  15
ENDBRANCH   8  11
ENDBRANCH   3   5
BRANCH   1  47
ATOM     47  C19 UNL     1      21.447  12.354   0.567+14.98 +0.00    +0.105 C 
BRANCH  47  48
ATOM     48  C18 UNL     1      20.542  12.905  -0.536 +9.73 +0.00    +0.029 C 
BRANCH  48  49
ATOM     49  C17 UNL     1      19.113  13.129  -0.058+14.19 +0.00    +0.123 C 
BRANCH  49  50
ATOM     50  N8  UNL     1      18.307  11.929  -0.140 +0.64 -0.00    -0.356 N 
ATOM     51  C16 UNL     1      18.814  10.798  -0.749 +3.19 +0.00    +0.268 C 
ATOM     52  O4  UNL     1      19.911  10.782  -1.297+37.06 -0.00    -0.266 OA
ATOM     53  H57 UNL     1      17.605  11.762   0.567 +0.13 +0.00    +0.162 HD
BRANCH  51  54
ATOM     54  C14 UNL     1      17.975   9.625  -0.611 +0.01 +0.00    +0.104 A 
ATOM     55  C15 UNL     1      16.812   9.530   0.140 -0.40 +0.00    +0.066 A 
ATOM     56  C12 UNL     1      16.275   8.229  -0.016 -0.49 +0.00    +0.053 A 
ATOM     57  C13 UNL     1      17.143   7.542  -0.828 +6.28 +0.00    +0.120 A 
ATOM     58  N7  UNL     1      18.191   8.370  -1.144 +2.85 -0.00    -0.354 N 
ATOM     59  C46 UNL     1      19.373   7.926  -1.853+20.42 +0.00    +0.156 C 
BRANCH  56  60
ATOM     60  N6  UNL     1      15.101   7.784   0.563 +1.01 -0.00    -0.320 N 
ATOM     61  C11 UNL     1      14.028   7.217  -0.101 +0.97 +0.00    +0.273 C 
ATOM     62  O3  UNL     1      13.988   7.018  -1.312 +0.43 -0.00    -0.266 OA
ATOM     63  H56 UNL     1      15.057   7.859   1.568 -0.41 +0.00    +0.169 HD
BRANCH  61  64
ATOM     64  C9  UNL     1      12.916   6.847   0.775 +0.21 +0.00    +0.105 A 
ATOM     65  C10 UNL     1      11.771   6.103   0.502 -0.34 +0.00    +0.066 A 
ATOM     66  C7  UNL     1      10.989   6.014   1.676 -0.18 +0.00    +0.053 A 
ATOM     67  C8  UNL     1      11.666   6.694   2.658 -0.29 +0.00    +0.120 A 
ATOM     68  N5  UNL     1      12.826   7.188   2.116 -0.09 -0.00    -0.354 N 
ATOM     69  C47 UNL     1      13.793   7.969   2.861 +0.28 +0.00    +0.156 C 
BRANCH  66  70
ATOM     70  N4  UNL     1       9.780   5.389   1.895 -0.05 -0.00    -0.319 N 
ATOM     71  C6  UNL     1       9.126   4.552   1.011 -0.02 +0.00    +0.290 C 
ATOM     72  O2  UNL     1       9.532   4.242  -0.105 -0.10 -0.00    -0.264 OA
ATOM     73  H55 UNL     1       9.309   5.549   2.781 +0.08 +0.00    +0.169 HD
BRANCH  71  74
ATOM     74  C5  UNL     1       7.867   4.066   1.566 -0.06 +0.00    +0.178 A 
ATOM     75  N2  UNL     1       7.651   3.613   2.846 -0.06 -0.00    -0.339 N 
ATOM     76  C4  UNL     1       6.336   3.257   2.950 -0.13 +0.00    +0.140 A 
ATOM     77  C48 UNL     1       8.630   3.524   3.902 -0.26 +0.00    +0.157 C 
ATOM     78  C3  UNL     1       5.798   3.509   1.715 -0.06 +0.00    +0.125 A 
ATOM     79  N3  UNL     1       6.742   4.009   0.861 -0.00 -0.00    -0.323 N 
ATOM     80  H3  UNL     1       6.610   4.280  -0.113 +0.05 +0.00    +0.169 HD
BRANCH  78  81
ATOM     81  N1  UNL     1       4.521   3.335   1.257 -0.03 -0.00    -0.312 N 
ATOM     82  C2  UNL     1       4.084   3.623  -0.016 -0.10 +0.00    +0.219 C 
ATOM     83  C1  UNL     1       2.617   3.332  -0.213 -0.04 +0.00    +0.117 C 
ATOM     84  O1  UNL     1       4.758   4.089  -0.930 -0.14 -0.00    -0.274 OA
ATOM     85  H54 UNL     1       3.883   2.965   1.948 +0.05 +0.00    +0.170 HD
ENDBRANCH  78  81
ENDBRANCH  71  74
ENDBRANCH  66  70
ENDBRANCH  61  64
ENDBRANCH  56  60
ENDBRANCH  51  54
ENDBRANCH  49  50
ENDBRANCH  48  49
ENDBRANCH  47  48
ENDBRANCH   1  47
TORSDOF 23
TER
