USER    Run = 1
USER    DPF = ligand_203_receptor.dpf
USER  
USER    Estimated Free Energy of Binding    =  +11.33 kcal/mol  [=(1)+(2)+(3)-(4)]
USER    
USER    (1) Final Intermolecular Energy     =  +10.14 kcal/mol
USER        vdW + Hbond + desolv Energy     =  +10.14 kcal/mol
USER        Electrostatic Energy            =   +0.00 kcal/mol
USER    (2) Final Total Internal Energy     =  -12.61 kcal/mol
USER    (3) Torsional Free Energy           =   +1.19 kcal/mol
USER    (4) Unbound System's Energy  [=(2)] =  -12.61 kcal/mol
USER    
USER    
USER    NEWDPF move ligand_203.pdbqt
USER    NEWDPF about 0.000000 0.000000 0.000000
USER    NEWDPF tran0 16.626140 5.878188 3.711388
USER    NEWDPF quaternion0 -0.752565 -0.236282 0.252157 0.560566
USER    NEWDPF axisangle0 -0.908774 -0.285327 0.304497 111.810121
USER    NEWDPF quat0 -0.908774 -0.285327 0.304497 111.810121
USER    NEWDPF dihe0 -54.20 1.11 173.92 -171.66 -179.93 136.04 61.32 -5.37 61.47 13.05 -180.00 100.56 180.00 4.97 148.03 124.60 -129.48 -73.58 -29.25 54.89 180.00 19.82 -56.20 -137.67 -40.47 -2.53 -50.09 180.00 -72.19 -176.47 
USER  keepresnum = 1 
USER  
REMARK  30 active torsions:
REMARK  status: ('A' for Active; 'I' for Inactive)
REMARK    1  A    between atoms: C2_2  and  C39_39 
REMARK    2  A    between atoms: C2_2  and  O22_66 
REMARK    3  A    between atoms: C3_3  and  O16_60 
REMARK    4  A    between atoms: C4_4  and  O3_47 
REMARK    5  A    between atoms: C4_4  and  S1_67 
REMARK    6  A    between atoms: C5_5  and  C6_6 
REMARK    7  A    between atoms: C6_6  and  O2_46 
REMARK    8  A    between atoms: C7_7  and  S1_67 
REMARK    9  A    between atoms: C10_10  and  N1_69 
REMARK   10  A    between atoms: C13_13  and  C14_14 
REMARK       I    between atoms: C13_13  and  N1_69 
REMARK   11  A    between atoms: C17_17  and  C20_20 
REMARK       I    between atoms: C20_20  and  N2_70 
REMARK   12  A    between atoms: C21_21  and  N2_70 
REMARK   13  A    between atoms: C24_24  and  S2_68 
REMARK   14  A    between atoms: C27_27  and  O15_59 
REMARK   15  A    between atoms: C27_27  and  S2_68 
REMARK   16  A    between atoms: C28_28  and  C38_38 
REMARK   17  A    between atoms: C30_30  and  C32_32 
REMARK   18  A    between atoms: C30_30  and  O13_57 
REMARK   19  A    between atoms: C31_31  and  O7_51 
REMARK   20  A    between atoms: C33_33  and  O12_56 
REMARK   21  A    between atoms: C34_34  and  O11_55 
REMARK   22  A    between atoms: C35_35  and  O10_54 
REMARK   23  A    between atoms: C36_36  and  C37_37 
REMARK   24  A    between atoms: C37_37  and  O9_53 
REMARK   25  A    between atoms: C38_38  and  O14_58 
REMARK   26  A    between atoms: C40_40  and  O21_65 
REMARK   27  A    between atoms: C41_41  and  O20_64 
REMARK   28  A    between atoms: C42_42  and  O19_63 
REMARK   29  A    between atoms: C43_43  and  C44_44 
REMARK   30  A    between atoms: C44_44  and  O18_62 
USER                              x       y       z     vdW  Elec       q    Type
USER                           _______ _______ _______ _____ _____    ______ ____
ROOT
ATOM      1  C14 UNL     1      14.859   7.619   4.388 -0.47 +0.00    +0.032 A 
ATOM      2  C15 UNL     1      15.299   7.020   3.200 +5.14 +0.00    +0.018 A 
ATOM      3  C16 UNL     1      16.536   7.378   2.651 +1.24 +0.00    +0.018 A 
ATOM      4  C17 UNL     1      17.328   8.347   3.283 -0.55 +0.00    +0.032 A 
ATOM      5  C18 UNL     1      16.888   8.942   4.471 -0.20 +0.00    +0.018 A 
ATOM      6  C19 UNL     1      15.650   8.589   5.015 +2.24 +0.00    +0.018 A 
ENDROOT
BRANCH   1   7
ATOM      7  C13 UNL     1      13.546   7.270   4.996 -0.34 +0.00    +0.256 C 
ATOM      8  O4  UNL     1      13.457   7.273   6.217 -0.27 -0.00    -0.267 OA
ATOM      9  N1  UNL     1      12.558   6.937   4.087 -0.20 -0.00    -0.323 N 
ATOM     10  H55 UNL     1      12.838   6.842   3.119 +0.07 +0.00    +0.169 HD
BRANCH   9  11
ATOM     11  C10 UNL     1      11.215   6.615   4.368 -0.31 +0.00    +0.035 A 
ATOM     12  C9  UNL     1      10.232   7.207   3.566 -0.35 +0.00    +0.031 A 
ATOM     13  C8  UNL     1       8.876   6.941   3.782 -0.24 +0.00    +0.021 A 
ATOM     14  C7  UNL     1       8.482   6.072   4.800 -0.05 +0.00    +0.003 A 
ATOM     15  C12 UNL     1       9.457   5.499   5.617 -0.28 +0.00    +0.021 A 
ATOM     16  C11 UNL     1      10.815   5.763   5.398 -0.28 +0.00    +0.031 A 
BRANCH  14  17
ATOM     17  S1  UNL     1       6.758   5.734   5.108 -0.19 -0.00    -0.087 SA
BRANCH  17  18
ATOM     18  C4  UNL     1       6.043   5.846   3.401 -0.15 +0.00    +0.167 C 
ATOM     19  C3  UNL     1       7.166   5.963   2.307 -0.15 +0.00    +0.205 C 
ATOM     20  C2  UNL     1       7.373   4.647   1.519 -0.10 +0.00    +0.137 C 
ATOM     21  C1  UNL     1       6.003   4.192   0.942 -0.08 +0.00    +0.211 C 
ATOM     22  O1  UNL     1       4.853   4.531   1.738 -0.08 -0.00    -0.377 OA
ATOM     23  C5  UNL     1       5.150   4.600   3.149 -0.11 +0.00    +0.193 C 
BRANCH  19  24
ATOM     24  O16 UNL     1       6.852   7.041   1.397 -0.20 -0.00    -0.388 OA
ATOM     25  H49 UNL     1       6.071   7.486   1.787 +0.10 +0.00    +0.210 HD
ENDBRANCH  19  24
BRANCH  20  26
ATOM     26  C39 UNL     1       8.407   4.776   0.348 -0.09 +0.00    +0.192 C 
ATOM     27  C40 UNL     1       7.774   4.878  -1.054 +0.02 +0.00    +0.181 C 
ATOM     28  C41 UNL     1       8.885   4.929  -2.103 -0.12 +0.00    +0.180 C 
ATOM     29  C42 UNL     1       9.835   6.095  -1.828 -0.18 +0.00    +0.180 C 
ATOM     30  C43 UNL     1      10.322   6.040  -0.369 -0.23 +0.00    +0.177 C 
ATOM     31  O17 UNL     1       9.219   5.959   0.546 -0.07 -0.00    -0.370 OA
BRANCH  27  32
ATOM     32  O21 UNL     1       6.892   3.797  -1.344 -0.04 -0.00    -0.390 OA
ATOM     33  H53 UNL     1       6.807   3.794  -2.322 -0.00 +0.00    +0.210 HD
ENDBRANCH  27  32
BRANCH  28  34
ATOM     34  O20 UNL     1       8.290   5.068  -3.404 -0.06 -0.00    -0.390 OA
ATOM     35  H52 UNL     1       7.352   4.816  -3.276 -0.18 +0.00    +0.210 HD
ENDBRANCH  28  34
BRANCH  29  36
ATOM     36  O19 UNL     1      10.910   6.014  -2.772 -0.10 -0.00    -0.390 OA
ATOM     37  H51 UNL     1      10.559   5.517  -3.545 +0.11 +0.00    +0.210 HD
ENDBRANCH  29  36
BRANCH  30  38
ATOM     38  C44 UNL     1      11.143   7.287  -0.010 +0.37 +0.00    +0.198 C 
BRANCH  38  39
ATOM     39  O18 UNL     1      11.491   7.288   1.373 -0.08 -0.00    -0.398 OA
ATOM     40  H50 UNL     1      11.197   6.431   1.733 +0.09 +0.00    +0.209 HD
ENDBRANCH  38  39
ENDBRANCH  30  38
ENDBRANCH  20  26
BRANCH  20  41
ATOM     41  O22 UNL     1       7.822   3.624   2.436 -0.06 -0.00    -0.382 OA
ATOM     42  H54 UNL     1       7.039   3.272   2.903 +0.09 +0.00    +0.210 HD
ENDBRANCH  20  41
BRANCH  23  43
ATOM     43  C6  UNL     1       3.794   4.660   3.871 -0.11 +0.00    +0.200 C 
BRANCH  43  44
ATOM     44  O2  UNL     1       2.759   4.931   2.918 -0.21 -0.00    -0.398 OA
ATOM     45  H39 UNL     1       3.167   4.778   2.044 +0.03 +0.00    +0.209 HD
ENDBRANCH  43  44
ENDBRANCH  23  43
BRANCH  18  46
ATOM     46  O3  UNL     1       5.220   7.029   3.289 +0.25 -0.00    -0.373 OA
ATOM     47  H40 UNL     1       4.966   7.058   2.343 +0.07 +0.00    +0.212 HD
ENDBRANCH  18  46
ENDBRANCH  17  18
ENDBRANCH  14  17
ENDBRANCH   9  11
ENDBRANCH   1   7
BRANCH   4  48
ATOM     48  C20 UNL     1      18.654   8.748   2.736 -0.13 +0.00    +0.256 C 
ATOM     49  O5  UNL     1      18.753   8.905   1.527 +0.51 -0.00    -0.267 OA
ATOM     50  N2  UNL     1      19.656   8.872   3.681 -0.09 -0.00    -0.323 N 
ATOM     51  H56 UNL     1      19.435   8.585   4.626 +0.12 +0.00    +0.169 HD
BRANCH  50  52
ATOM     52  C21 UNL     1      20.991   9.268   3.463 -0.01 +0.00    +0.035 A 
ATOM     53  C22 UNL     1      21.967   9.310   4.460 +1.76 +0.00    +0.031 A 
ATOM     54  C23 UNL     1      23.276   9.707   4.159 -0.58 +0.00    +0.021 A 
ATOM     55  C24 UNL     1      23.633  10.044   2.853 -0.28 +0.00    +0.003 A 
ATOM     56  C25 UNL     1      22.653  10.031   1.860 +0.18 +0.00    +0.021 A 
ATOM     57  C26 UNL     1      21.346   9.637   2.161 -0.42 +0.00    +0.031 A 
BRANCH  55  58
ATOM     58  S2  UNL     1      25.289  10.567   2.468 -0.41 -0.00    -0.087 SA
BRANCH  58  59
ATOM     59  C27 UNL     1      26.199   8.945   2.154 -0.46 +0.00    +0.167 C 
ATOM     60  C28 UNL     1      26.727   8.293   3.465 +0.96 +0.00    +0.193 C 
ATOM     61  O6  UNL     1      27.684   7.224   3.247 +2.33 -0.00    -0.377 OA
ATOM     62  C29 UNL     1      28.797   7.634   2.459 -0.16 +0.00    +0.211 C 
ATOM     63  C30 UNL     1      28.377   7.989   1.026 -0.34 +0.00    +0.137 C 
ATOM     64  C31 UNL     1      27.352   9.153   1.136 +0.67 +0.00    +0.205 C 
BRANCH  60  65
ATOM     65  C38 UNL     1      25.605   7.685   4.314 -0.09 +0.00    +0.200 C 
BRANCH  65  66
ATOM     66  O14 UNL     1      26.150   6.649   5.142 -0.25 -0.00    -0.398 OA
ATOM     67  H47 UNL     1      27.116   6.719   5.013 -0.16 +0.00    +0.209 HD
ENDBRANCH  65  66
ENDBRANCH  60  65
BRANCH  63  68
ATOM     68  C32 UNL     1      27.876   6.750   0.206 -0.24 +0.00    +0.192 C 
ATOM     69  C33 UNL     1      28.753   5.495   0.398 -0.15 +0.00    +0.181 C 
ATOM     70  C34 UNL     1      28.263   4.399  -0.550 -0.21 +0.00    +0.180 C 
ATOM     71  C35 UNL     1      26.781   4.094  -0.311 -0.08 +0.00    +0.180 C 
ATOM     72  C36 UNL     1      25.957   5.394  -0.327 -0.36 +0.00    +0.177 C 
ATOM     73  O8  UNL     1      26.536   6.391   0.529 -0.14 -0.00    -0.370 OA
BRANCH  69  74
ATOM     74  O12 UNL     1      30.136   5.761   0.137 -0.04 -0.00    -0.390 OA
ATOM     75  H45 UNL     1      30.499   4.898  -0.160 +0.08 +0.00    +0.210 HD
ENDBRANCH  69  74
BRANCH  70  76
ATOM     76  O11 UNL     1      29.064   3.223  -0.354 -0.13 -0.00    -0.390 OA
ATOM     77  H44 UNL     1      29.899   3.532   0.053 +0.10 +0.00    +0.210 HD
ENDBRANCH  70  76
BRANCH  71  78
ATOM     78  O10 UNL     1      26.348   3.162  -1.314 -0.20 -0.00    -0.390 OA
ATOM     79  H43 UNL     1      27.097   2.589  -1.552 +0.07 +0.00    +0.210 HD
ENDBRANCH  71  78
BRANCH  72  80
ATOM     80  C37 UNL     1      24.509   5.161   0.130 -0.47 +0.00    +0.198 C 
BRANCH  80  81
ATOM     81  O9  UNL     1      24.270   5.744   1.411 -0.18 -0.00    -0.398 OA
ATOM     82  H42 UNL     1      25.140   5.895   1.820 +0.16 +0.00    +0.209 HD
ENDBRANCH  80  81
ENDBRANCH  72  80
ENDBRANCH  63  68
BRANCH  63  83
ATOM     83  O13 UNL     1      29.509   8.578   0.331 -0.14 -0.00    -0.382 OA
ATOM     84  H46 UNL     1      30.028   7.842  -0.066 +0.10 +0.00    +0.210 HD
ENDBRANCH  63  83
BRANCH  64  85
ATOM     85  O7  UNL     1      26.829   9.468  -0.176 +4.97 -0.00    -0.388 OA
ATOM     86  H41 UNL     1      26.038   8.900  -0.270 +0.16 +0.00    +0.210 HD
ENDBRANCH  64  85
BRANCH  59  87
ATOM     87  O15 UNL     1      25.207   8.114   1.534 -0.17 -0.00    -0.373 OA
ATOM     88  H48 UNL     1      25.591   7.216   1.601 +0.16 +0.00    +0.212 HD
ENDBRANCH  59  87
ENDBRANCH  58  59
ENDBRANCH  55  58
ENDBRANCH  50  52
ENDBRANCH   4  48
TORSDOF 30
TER
