USER    Run = 1
USER    DPF = ligand_470_receptor.dpf
USER  
USER    Estimated Free Energy of Binding    =  +64.64 kcal/mol  [=(1)+(2)+(3)-(4)]
USER    
USER    (1) Final Intermolecular Energy     =  +63.44 kcal/mol
USER        vdW + Hbond + desolv Energy     =  +63.44 kcal/mol
USER        Electrostatic Energy            =   +0.00 kcal/mol
USER    (2) Final Total Internal Energy     =   +3.13 kcal/mol
USER    (3) Torsional Free Energy           =   +1.19 kcal/mol
USER    (4) Unbound System's Energy  [=(2)] =   +3.13 kcal/mol
USER    
USER    
USER    NEWDPF move ligand_470.pdbqt
USER    NEWDPF about 0.000000 0.000000 0.000000
USER    NEWDPF tran0 20.241884 6.848934 4.122137
USER    NEWDPF quaternion0 -0.004031 -0.621624 0.731356 0.280508
USER    NEWDPF axisangle0 -0.004200 -0.647626 0.761947 147.418950
USER    NEWDPF quat0 -0.004200 -0.647626 0.761947 147.418950
USER    NEWDPF dihe0 49.11 82.99 119.92 134.72 100.34 103.31 -14.79 66.93 -129.43 142.49 -92.72 82.31 92.66 28.33 52.41 -179.96 -36.44 4.62 -109.65 180.00 147.96 -127.57 -163.34 -45.75 172.60 82.90 
USER  keepresnum = 1 
USER  
REMARK  26 active torsions:
REMARK  status: ('A' for Active; 'I' for Inactive)
REMARK    1  A    between atoms: C4_4  and  C5_5 
REMARK       I    between atoms: C5_5  and  N3_53 
REMARK    2  A    between atoms: C6_6  and  N3_53 
REMARK    3  A    between atoms: C8_8  and  C10_10 
REMARK       I    between atoms: C10_10  and  N5_55 
REMARK    4  A    between atoms: C11_11  and  C12_12 
REMARK    5  A    between atoms: C11_11  and  N5_55 
REMARK    6  A    between atoms: C12_12  and  C13_13 
REMARK    7  A    between atoms: C13_13  and  C14_14 
REMARK       I    between atoms: C14_14  and  N6_56 
REMARK    8  A    between atoms: C15_15  and  N6_56 
REMARK    9  A    between atoms: C17_17  and  C19_19 
REMARK       I    between atoms: C19_19  and  N8_58 
REMARK   10  A    between atoms: C20_20  and  N8_58 
REMARK   11  A    between atoms: C22_22  and  C24_24 
REMARK       I    between atoms: C24_24  and  N10_60 
REMARK   12  A    between atoms: C25_25  and  N10_60 
REMARK   13  A    between atoms: C27_27  and  C29_29 
REMARK       I    between atoms: C29_29  and  N12_62 
REMARK   14  A    between atoms: C30_30  and  N12_62 
REMARK   15  A    between atoms: C32_32  and  C34_34 
REMARK       I    between atoms: C34_34  and  N14_64 
REMARK   16  A    between atoms: C35_35  and  C36_36 
REMARK   17  A    between atoms: C35_35  and  N14_64 
REMARK   18  A    between atoms: C36_36  and  C37_37 
REMARK       I    between atoms: C37_37  and  N15_65 
REMARK   19  A    between atoms: C38_38  and  C39_39 
REMARK   20  A    between atoms: C38_38  and  N15_65 
REMARK   21  A    between atoms: C39_39  and  C40_40 
REMARK   22  A    between atoms: C40_40  and  N16_66 
REMARK   23  A    between atoms: C42_42  and  C43_43 
REMARK   24  A    between atoms: C42_42  and  N16_66 
REMARK   25  A    between atoms: C43_43  and  C44_44 
REMARK   26  A    between atoms: C44_44  and  N17_67 
USER                              x       y       z     vdW  Elec       q    Type
USER                           _______ _______ _______ _____ _____    ______ ____
ROOT
ATOM      1  C20 UNL     1      16.861   8.790   1.440 -0.47 +0.00    +0.053 A 
ATOM      2  C21 UNL     1      16.631   9.015   2.779 -0.42 +0.00    +0.120 A 
ATOM      3  C22 UNL     1      18.770   9.595   2.378 -0.34 +0.00    +0.105 A 
ATOM      4  C23 UNL     1      18.195   9.181   1.184 +0.04 +0.00    +0.066 A 
ATOM      5  C47 UNL     1      17.872  10.008   4.696 +1.75 +0.00    +0.156 C 
ATOM      6  N9  UNL     1      17.775   9.532   3.332 -0.21 -0.00    -0.354 N 
ENDROOT
BRANCH   3   7
ATOM      7  C24 UNL     1      20.131  10.060   2.577 -0.20 +0.00    +0.273 C 
ATOM      8  N10 UNL     1      21.056   9.264   1.929 -0.06 -0.00    -0.320 N 
ATOM      9  H60 UNL     1      20.704   8.548   1.308 +0.67 +0.00    +0.169 HD
ATOM     10  O5  UNL     1      20.384  11.063   3.234 +1.97 -0.00    -0.266 OA
BRANCH   8  11
ATOM     11  C25 UNL     1      22.428   9.424   1.960 -0.40 +0.00    +0.053 A 
ATOM     12  C26 UNL     1      23.152  10.585   1.853+15.30 +0.00    +0.120 A 
ATOM     13  N11 UNL     1      24.487  10.271   1.897 -0.03 -0.00    -0.354 N 
ATOM     14  C27 UNL     1      24.642   8.920   2.130 -0.41 +0.00    +0.105 A 
ATOM     15  C46 UNL     1      25.540  11.230   1.634 +3.30 +0.00    +0.156 C 
ATOM     16  C28 UNL     1      23.366   8.375   2.113 -0.37 +0.00    +0.066 A 
BRANCH  14  17
ATOM     17  C29 UNL     1      25.888   8.189   2.294 -0.37 +0.00    +0.273 C 
ATOM     18  N12 UNL     1      26.500   7.882   1.093 -0.19 -0.00    -0.320 N 
ATOM     19  H61 UNL     1      26.117   8.282   0.248 +0.12 +0.00    +0.169 HD
ATOM     20  O6  UNL     1      26.347   7.937   3.403 -0.46 -0.00    -0.266 OA
BRANCH  18  21
ATOM     21  C30 UNL     1      27.665   7.157   0.956 -0.31 +0.00    +0.053 A 
ATOM     22  C31 UNL     1      28.323   6.593   2.022 +7.41 +0.00    +0.120 A 
ATOM     23  N13 UNL     1      29.439   5.948   1.546 +0.19 -0.00    -0.354 N 
ATOM     24  C32 UNL     1      29.529   6.092   0.170 -0.15 +0.00    +0.104 A 
ATOM     25  C45 UNL     1      30.377   5.237   2.390 +2.64 +0.00    +0.156 C 
ATOM     26  C33 UNL     1      28.418   6.845  -0.199 -0.24 +0.00    +0.066 A 
BRANCH  24  27
ATOM     27  C34 UNL     1      30.598   5.542  -0.649 -0.03 +0.00    +0.268 C 
ATOM     28  N14 UNL     1      31.335   6.461  -1.359 +0.01 -0.00    -0.355 N 
ATOM     29  H62 UNL     1      31.045   7.429  -1.319 +0.06 +0.00    +0.162 HD
ATOM     30  O7  UNL     1      30.874   4.344  -0.675 -0.03 -0.00    -0.266 OA
BRANCH  28  31
ATOM     31  C35 UNL     1      32.354   6.138  -2.346 -0.01 +0.00    +0.132 C 
BRANCH  31  32
ATOM     32  C36 UNL     1      32.045   5.023  -3.339 -0.01 +0.00    +0.122 C 
BRANCH  32  33
ATOM     33  C37 UNL     1      30.568   4.930  -3.637 -0.06 +0.00    +0.219 C 
ATOM     34  N15 UNL     1      29.831   5.948  -3.069 -0.06 -0.00    -0.361 N 
ATOM     35  H63 UNL     1      30.300   6.453  -2.317 +0.05 +0.00    +0.162 HD
ATOM     36  O8  UNL     1      30.086   4.018  -4.299 -0.07 -0.00    -0.274 OA
BRANCH  34  37
ATOM     37  C38 UNL     1      28.386   5.884  -3.033 +2.55 +0.00    +0.124 C 
BRANCH  37  38
ATOM     38  C39 UNL     1      27.897   4.624  -2.327 -0.18 +0.00    +0.050 C 
BRANCH  38  39
ATOM     39  C40 UNL     1      26.706   4.911  -1.403 -0.24 +0.00    +0.273 C 
BRANCH  39  40
ATOM     40  N16 UNL     1      26.100   3.650  -0.929 -0.02 +0.00    +0.084 N 
ATOM     41  C41 UNL     1      25.836   2.770  -2.075 +0.30 +0.00    +0.309 C 
BRANCH  40  42
ATOM     42  C42 UNL     1      24.848   3.918  -0.187 -0.20 +0.00    +0.273 C 
BRANCH  42  43
ATOM     43  C43 UNL     1      24.782   5.327   0.425 -0.54 +0.00    +0.060 C 
BRANCH  43  44
ATOM     44  C44 UNL     1      23.574   5.554   1.340 +0.07 +0.00    +0.268 C 
BRANCH  44  45
ATOM     45  N17 UNL     1      22.924   4.314   1.750 -0.23 +0.00    +0.078 N 
ATOM     46  H64 UNL     1      23.303   4.065   2.675 +0.37 +0.00    +0.312 HD
ATOM     47  H65 UNL     1      23.251   3.556   1.151 +0.27 +0.00    +0.312 HD
ENDBRANCH  44  45
ENDBRANCH  43  44
ENDBRANCH  42  43
ENDBRANCH  40  42
ENDBRANCH  39  40
ENDBRANCH  38  39
ENDBRANCH  37  38
ENDBRANCH  34  37
ENDBRANCH  32  33
ENDBRANCH  31  32
ENDBRANCH  28  31
ENDBRANCH  24  27
ENDBRANCH  18  21
ENDBRANCH  14  17
ENDBRANCH   8  11
ENDBRANCH   3   7
BRANCH   1  48
ATOM     48  N8  UNL     1      15.891   8.286   0.595 -0.25 -0.00    -0.320 N 
ATOM     49  C19 UNL     1      14.640   7.845   0.984 +8.76 +0.00    +0.273 C 
ATOM     50  O4  UNL     1      14.228   7.876   2.140 +0.66 -0.00    -0.266 OA
ATOM     51  H59 UNL     1      16.125   8.271  -0.386 +0.07 +0.00    +0.169 HD
BRANCH  49  52
ATOM     52  C17 UNL     1      13.815   7.340  -0.115 +0.74 +0.00    +0.105 A 
ATOM     53  C18 UNL     1      12.430   7.269  -0.235 +1.19 +0.00    +0.066 A 
ATOM     54  C15 UNL     1      12.103   6.698  -1.485 -0.31 +0.00    +0.052 A 
ATOM     55  C16 UNL     1      13.290   6.432  -2.123 +2.10 +0.00    +0.120 A 
ATOM     56  N7  UNL     1      14.317   6.825  -1.299 +1.17 -0.00    -0.354 N 
ATOM     57  C48 UNL     1      15.719   6.694  -1.642+17.52 +0.00    +0.156 C 
BRANCH  54  58
ATOM     58  N6  UNL     1      10.871   6.421  -2.044 -0.12 -0.00    -0.326 N 
ATOM     59  C14 UNL     1      10.595   6.462  -3.399 -0.20 +0.00    +0.222 C 
ATOM     60  O3  UNL     1      11.387   6.732  -4.297 -0.29 -0.00    -0.273 OA
ATOM     61  H58 UNL     1      10.138   6.167  -1.395 +0.09 +0.00    +0.169 HD
BRANCH  59  62
ATOM     62  C13 UNL     1       9.142   6.154  -3.713 -0.22 +0.00    +0.105 C 
BRANCH  62  63
ATOM     63  C12 UNL     1       8.392   5.637  -2.490 +0.83 +0.00    +0.029 C 
BRANCH  63  64
ATOM     64  C11 UNL     1       8.890   4.270  -2.024 -0.14 +0.00    +0.123 C 
BRANCH  64  65
ATOM     65  N5  UNL     1       8.698   4.093  -0.601 -0.00 -0.00    -0.356 N 
ATOM     66  C10 UNL     1       7.592   3.452  -0.085 -0.03 +0.00    +0.268 C 
ATOM     67  O2  UNL     1       6.687   3.050  -0.812 -0.05 -0.00    -0.266 OA
ATOM     68  H57 UNL     1       9.468   4.301   0.017 +0.03 +0.00    +0.162 HD
BRANCH  66  69
ATOM     69  C8  UNL     1       7.594   3.281   1.361 -0.11 +0.00    +0.104 A 
ATOM     70  C9  UNL     1       8.072   4.125   2.359 -0.14 +0.00    +0.066 A 
ATOM     71  C6  UNL     1       7.851   3.519   3.618 -0.24 +0.00    +0.053 A 
ATOM     72  C7  UNL     1       7.233   2.316   3.376 -0.17 +0.00    +0.120 A 
ATOM     73  N4  UNL     1       7.075   2.179   2.020 -0.10 -0.00    -0.354 N 
ATOM     74  C49 UNL     1       6.457   1.028   1.392 +0.10 +0.00    +0.156 C 
BRANCH  71  75
ATOM     75  N3  UNL     1       8.152   3.964   4.885 -0.14 -0.00    -0.319 N 
ATOM     76  C5  UNL     1       7.372   3.800   6.014 +0.02 +0.00    +0.290 C 
ATOM     77  O1  UNL     1       6.283   3.232   6.051 +0.70 -0.00    -0.264 OA
ATOM     78  H56 UNL     1       9.026   4.464   5.027 +0.10 +0.00    +0.169 HD
BRANCH  76  79
ATOM     79  C4  UNL     1       8.002   4.395   7.187 -0.38 +0.00    +0.176 A 
ATOM     80  N1  UNL     1       9.014   3.855   7.946 -0.29 -0.00    -0.342 N 
ATOM     81  C1  UNL     1       9.660   2.582   7.730 +0.23 +0.00    +0.157 C 
ATOM     82  C2  UNL     1       9.309   4.737   8.949 +0.80 +0.00    +0.109 A 
ATOM     83  C3  UNL     1       8.454   5.796   8.759 +0.91 +0.00    +0.107 A 
ATOM     84  N2  UNL     1       7.649   5.581   7.670 -0.22 -0.00    -0.346 N 
ATOM     85  H2  UNL     1       6.927   6.203   7.306 +0.08 +0.00    +0.167 HD
ENDBRANCH  76  79
ENDBRANCH  71  75
ENDBRANCH  66  69
ENDBRANCH  64  65
ENDBRANCH  63  64
ENDBRANCH  62  63
ENDBRANCH  59  62
ENDBRANCH  54  58
ENDBRANCH  49  52
ENDBRANCH   1  48
TORSDOF 26
TER
