USER    Run = 1
USER    DPF = ligand_193_receptor.dpf
USER  
USER    Estimated Free Energy of Binding    =   -5.02 kcal/mol  [=(1)+(2)+(3)-(4)]
USER    Estimated Inhibition Constant, Ki   =  208.10 uM (micromolar)  [Temperature = 298.15 K]
USER    
USER    (1) Final Intermolecular Energy     =   -6.22 kcal/mol
USER        vdW + Hbond + desolv Energy     =   -6.22 kcal/mol
USER        Electrostatic Energy            =   +0.00 kcal/mol
USER    (2) Final Total Internal Energy     =   -2.62 kcal/mol
USER    (3) Torsional Free Energy           =   +1.19 kcal/mol
USER    (4) Unbound System's Energy  [=(2)] =   -2.62 kcal/mol
USER    
USER    
USER    NEWDPF move ligand_193.pdbqt
USER    NEWDPF about 0.000000 0.000000 0.000000
USER    NEWDPF tran0 17.338920 8.666522 3.290240
USER    NEWDPF quaternion0 0.143633 -0.986658 0.046453 -0.060970
USER    NEWDPF axisangle0 0.143901 -0.988497 0.046540 -173.009059
USER    NEWDPF quat0 0.143901 -0.988497 0.046540 -173.009059
USER    NEWDPF dihe0 -83.05 82.69 -178.97 171.80 31.25 -29.96 179.95 65.96 24.19 -91.37 -91.37 -91.37 41.25 -64.96 42.65 140.79 58.36 124.28 
USER  keepresnum = 1 
USER  
REMARK  18 active torsions:
REMARK  status: ('A' for Active; 'I' for Inactive)
REMARK    1  A    between atoms: C3_3  and  N8_43 
REMARK    2  A    between atoms: C5_5  and  C6_6 
REMARK       I    between atoms: C6_6  and  N2_35 
REMARK    3  A    between atoms: C7_7  and  N2_35 
REMARK    4  A    between atoms: C8_8  and  C10_10 
REMARK       I    between atoms: C10_10  and  N5_39 
REMARK    5  A    between atoms: C11_11  and  C12_12 
REMARK    6  A    between atoms: C11_11  and  N5_39 
REMARK    7  A    between atoms: C12_12  and  C13_13 
REMARK    8  A    between atoms: C13_13  and  N7_42 
REMARK    9  A    between atoms: C15_15  and  C16_16 
REMARK       I    between atoms: C15_15  and  N8_43 
REMARK   10  A    between atoms: C18_18  and  N11_47 
REMARK   11  A    between atoms: C20_20  and  C21_21 
REMARK       I    between atoms: C20_20  and  N11_47 
REMARK   12  A    between atoms: C22_22  and  N15_53 
REMARK   13  A    between atoms: C23_23  and  C24_24 
REMARK       I    between atoms: C23_23  and  N15_53 
REMARK   14  A    between atoms: C27_27  and  N16_54 
REMARK   15  A    between atoms: C30_30  and  C31_31 
REMARK   16  A    between atoms: C30_30  and  N16_54 
REMARK   17  A    between atoms: C32_32  and  C33_33 
REMARK   18  A    between atoms: C32_32  and  N16_54 
USER                              x       y       z     vdW  Elec       q    Type
USER                           _______ _______ _______ _____ _____    ______ ____
ROOT
ATOM      1  C16 UNL     1      17.102   8.709   3.134 -0.45 +0.00    +0.122 A 
ATOM      2  C17 UNL     1      18.191   8.155   2.478 +0.14 +0.00    +0.086 A 
ATOM      3  C18 UNL     1      19.296   8.979   2.776 -0.11 +0.00    +0.125 A 
ATOM      4  C19 UNL     1      16.920  10.763   4.608 +1.22 +0.00    +0.178 C 
ATOM      5  N9  UNL     1      18.942   9.989   3.566 +0.50 -0.00    -0.283 N 
ATOM      6  H9  UNL     1      19.537  10.731   3.933 +1.06 +0.00    +0.189 HD
ATOM      7  N10 UNL     1      17.622   9.812   3.773 -0.25 -0.00    -0.290 N 
ENDROOT
BRANCH   1   8
ATOM      8  C15 UNL     1      15.708   8.304   3.200 -0.35 +0.00    +0.274 C 
ATOM      9  N8  UNL     1      15.231   8.113   4.485 -0.25 -0.00    -0.320 N 
ATOM     10  H35 UNL     1      15.853   8.260   5.265 +0.19 +0.00    +0.169 HD
ATOM     11  O3  UNL     1      15.031   8.149   2.188 -0.13 -0.00    -0.266 OA
BRANCH   9  12
ATOM     12  C3  UNL     1      13.945   7.727   4.811 -0.44 +0.00    +0.053 A 
ATOM     13  C2  UNL     1      13.125   8.481   5.613 -0.15 +0.00    +0.120 A 
ATOM     14  N1  UNL     1      11.925   7.827   5.741 -0.15 -0.00    -0.354 N 
ATOM     15  C1  UNL     1      10.813   8.333   6.521 +0.08 +0.00    +0.156 C 
ATOM     16  C5  UNL     1      11.944   6.639   5.026 -0.28 +0.00    +0.105 A 
ATOM     17  C4  UNL     1      13.209   6.577   4.444 -0.32 +0.00    +0.066 A 
BRANCH  16  18
ATOM     18  C6  UNL     1      10.825   5.701   4.950 -0.18 +0.00    +0.274 C 
ATOM     19  N2  UNL     1      10.306   5.535   3.687 -0.10 -0.00    -0.306 N 
ATOM     20  H30 UNL     1      10.690   6.031   2.899 +0.06 +0.00    +0.170 HD
ATOM     21  O1  UNL     1      10.397   5.119   5.943 -0.18 -0.00    -0.266 OA
BRANCH  19  22
ATOM     22  C7  UNL     1       9.261   4.714   3.349 -0.16 +0.00    +0.125 A 
ATOM     23  C9  UNL     1       8.044   4.468   4.014 -0.20 +0.00    +0.086 A 
ATOM     24  C8  UNL     1       7.343   3.583   3.214 -0.17 +0.00    +0.121 A 
ATOM     25  N4  UNL     1       8.206   3.289   2.190 -0.09 -0.00    -0.290 N 
ATOM     26  C14 UNL     1       8.049   2.287   1.161 -0.17 +0.00    +0.178 C 
ATOM     27  N3  UNL     1       9.344   4.008   2.219 +0.10 -0.00    -0.283 N 
ATOM     28  H3  UNL     1      10.099   4.012   1.533 -0.44 +0.00    +0.189 HD
BRANCH  24  29
ATOM     29  C10 UNL     1       6.033   3.035   3.437 -0.14 +0.00    +0.269 C 
ATOM     30  N5  UNL     1       5.087   3.955   3.834 -0.03 -0.00    -0.355 N 
ATOM     31  H31 UNL     1       5.407   4.866   4.135 +0.07 +0.00    +0.162 HD
ATOM     32  O2  UNL     1       5.775   1.839   3.336 -0.24 -0.00    -0.266 OA
BRANCH  30  33
ATOM     33  C11 UNL     1       3.730   3.568   4.183 -0.13 +0.00    +0.130 C 
BRANCH  33  34
ATOM     34  C12 UNL     1       3.378   3.857   5.638 -0.22 +0.00    +0.089 C 
BRANCH  34  35
ATOM     35  C13 UNL     1       4.526   4.235   6.558 -0.41 +0.00    +0.049 C 
ATOM     36  N6  UNL     1       4.451   5.298   7.295 -0.16 -0.00    -0.393 N 
ATOM     37  H32 UNL     1       3.565   5.789   7.139 +0.06 +0.00    +0.157 HD
ATOM     38  H6  UNL     1       5.176   5.605   7.943 +0.07 +0.00    +0.157 HD
BRANCH  35  39
ATOM     39  N7  UNL     1       5.632   3.457   6.692 -0.57 -0.00    -0.293 NA
ATOM     40  H33 UNL     1       5.501   2.571   6.211 -0.52 +0.00    +0.125 HD
ATOM     41  H34 UNL     1       5.923   3.275   7.659 -0.04 +0.00    +0.125 HD
ENDBRANCH  35  39
ENDBRANCH  34  35
ENDBRANCH  33  34
ENDBRANCH  30  33
ENDBRANCH  24  29
ENDBRANCH  19  22
ENDBRANCH  16  18
ENDBRANCH   9  12
ENDBRANCH   1   8
BRANCH   3  42
ATOM     42  N11 UNL     1      20.601   8.870   2.375 +0.46 -0.00    -0.305 N 
ATOM     43  C20 UNL     1      21.428   9.906   2.020 -0.25 +0.00    +0.293 C 
ATOM     44  O4  UNL     1      21.124  11.096   2.005 +0.05 -0.00    -0.264 OA
ATOM     45  H36 UNL     1      20.970   7.924   2.347 +0.88 +0.00    +0.170 HD
BRANCH  43  46
ATOM     46  C21 UNL     1      22.747   9.457   1.649 -0.25 +0.00    +0.204 A 
ATOM     47  N12 UNL     1      23.026   8.408   0.902 -0.33 -0.00    -0.168 N 
ATOM     48  C22 UNL     1      24.387   8.413   0.840 +0.13 +0.00    +0.701 A 
ATOM     49  H12 UNL     1      22.377   7.749   0.473 +0.14 +0.00    +0.186 HD
ATOM     50  N13 UNL     1      24.974   9.405   1.517 -0.34 -0.00    -0.130 N 
ATOM     51  N14 UNL     1      23.910  10.057   2.018 -0.06 -0.00    -0.266 N 
ATOM     52  H13 UNL     1      25.967   9.612   1.624 +0.15 +0.00    +0.205 HD
ATOM     53  H37 UNL     1      24.037  10.884   2.593 +0.27 +0.00    +0.189 HD
BRANCH  48  54
ATOM     54  N15 UNL     1      25.133   7.493   0.164 -0.29 -0.00    -0.154 N 
ATOM     55  C23 UNL     1      25.578   6.306   0.692 -0.26 +0.00    +0.269 C 
ATOM     56  O5  UNL     1      25.344   5.864   1.812 -0.27 -0.00    -0.267 OA
ATOM     57  H38 UNL     1      25.280   7.732  -0.803 +0.13 +0.00    +0.187 HD
BRANCH  55  58
ATOM     58  C24 UNL     1      26.396   5.473  -0.236 -0.36 +0.00    +0.033 A 
ATOM     59  C25 UNL     1      25.906   5.033  -1.470 -0.43 +0.00    +0.019 A 
ATOM     60  C26 UNL     1      26.718   4.259  -2.305 -0.13 +0.00    +0.024 A 
ATOM     61  C27 UNL     1      28.026   3.920  -1.932 -0.24 +0.00    +0.010 A 
ATOM     62  C28 UNL     1      28.512   4.379  -0.702 -0.22 +0.00    +0.024 A 
ATOM     63  C29 UNL     1      27.707   5.153   0.138 -0.26 +0.00    +0.019 A 
BRANCH  61  64
ATOM     64  N16 UNL     1      28.791   3.142  -2.826 -0.07 -0.00    -0.281 NA
BRANCH  64  65
ATOM     65  C30 UNL     1      28.297   1.744  -2.930 -0.05 +0.00    +0.110 C 
BRANCH  65  66
ATOM     66  C31 UNL     1      27.498   1.469  -4.209 -0.24 +0.00    +0.129 C 
ATOM     67 CL1  UNL     1      26.209   0.263  -3.941 -0.45 -0.00    -0.129 Cl
ENDBRANCH  65  66
ENDBRANCH  64  65
BRANCH  64  68
ATOM     68  C32 UNL     1      29.001   3.795  -4.143 -0.11 +0.00    +0.110 C 
BRANCH  68  69
ATOM     69  C33 UNL     1      30.355   4.505  -4.225 -0.09 +0.00    +0.129 C 
ATOM     70 CL2  UNL     1      30.154   6.262  -3.996 -0.24 -0.00    -0.129 Cl
ENDBRANCH  68  69
ENDBRANCH  64  68
ENDBRANCH  61  64
ENDBRANCH  55  58
ENDBRANCH  48  54
ENDBRANCH  43  46
ENDBRANCH   3  42
TORSDOF 18
TER
