USER    Run = 1
USER    DPF = ligand_29_receptor.dpf
USER  
USER    Estimated Free Energy of Binding    =  +8.44e+004 kcal/mol  [=(1)+(2)+(3)-(4)]
USER    
USER    (1) Final Intermolecular Energy     =  +8.44e+004 kcal/mol
USER        vdW + Hbond + desolv Energy     =  +8.44e+004 kcal/mol
USER        Electrostatic Energy            =   +0.00 kcal/mol
USER    (2) Final Total Internal Energy     =   +0.00 kcal/mol
USER    (3) Torsional Free Energy           =   +1.19 kcal/mol
USER    (4) Unbound System's Energy  [=(2)] =   +0.00 kcal/mol
USER    
USER    
USER    NEWDPF move ligand_29.pdbqt
USER    NEWDPF about 0.000000 0.000000 0.000000
USER    NEWDPF tran0 21.993312 7.541941 2.432414
USER    NEWDPF quaternion0 -0.447243 0.002382 -0.218118 -0.867406
USER    NEWDPF axisangle0 -0.898798 0.004787 -0.438338 -59.682942
USER    NEWDPF quat0 -0.898798 0.004787 -0.438338 -59.682942
USER  keepresnum = 1 
USER  
REMARK  0 active torsions:
REMARK  status: ('A' for Active; 'I' for Inactive)
REMARK       I    between atoms: C2_2  and  C3_3 
REMARK       I    between atoms: C3_3  and  C5_5 
REMARK       I    between atoms: C5_5  and  C6_6 
REMARK       I    between atoms: C5_5  and  N2_86 
REMARK       I    between atoms: C6_6  and  N1_85 
REMARK       I    between atoms: C7_7  and  C8_8 
REMARK       I    between atoms: C7_7  and  N2_86 
REMARK       I    between atoms: C8_8  and  N3_87 
REMARK       I    between atoms: C9_9  and  C10_10 
REMARK       I    between atoms: C9_9  and  N3_87 
REMARK       I    between atoms: C10_10  and  C11_11 
REMARK       I    between atoms: C10_10  and  N4_88 
REMARK       I    between atoms: C11_11  and  O4_70 
REMARK       I    between atoms: C12_12  and  C13_13 
REMARK       I    between atoms: C12_12  and  N4_88 
REMARK       I    between atoms: C13_13  and  C14_14 
REMARK       I    between atoms: C13_13  and  N8_93 
REMARK       I    between atoms: C14_14  and  C15_15 
REMARK       I    between atoms: C15_15  and  C16_16 
REMARK       I    between atoms: C16_16  and  N5_89 
REMARK       I    between atoms: C17_17  and  N6_91 
REMARK       I    between atoms: C17_17  and  N7_92 
REMARK       I    between atoms: C18_18  and  C19_19 
REMARK       I    between atoms: C18_18  and  N8_93 
REMARK       I    between atoms: C19_19  and  C20_20 
REMARK       I    between atoms: C19_19  and  N9_94 
REMARK       I    between atoms: C20_20  and  O7_73 
REMARK       I    between atoms: C22_22  and  C23_23 
REMARK       I    between atoms: C22_22  and  N9_94 
REMARK       I    between atoms: C23_23  and  N10_95 
REMARK       I    between atoms: C24_24  and  C25_25 
REMARK       I    between atoms: C24_24  and  N10_95 
REMARK       I    between atoms: C25_25  and  C26_26 
REMARK       I    between atoms: C25_25  and  N12_97 
REMARK       I    between atoms: C26_26  and  C27_27 
REMARK       I    between atoms: C35_35  and  C36_36 
REMARK       I    between atoms: C35_35  and  N12_97 
REMARK       I    between atoms: C36_36  and  C37_37 
REMARK       I    between atoms: C36_36  and  N13_98 
REMARK       I    between atoms: C37_37  and  C38_38 
REMARK       I    between atoms: C41_41  and  C42_42 
REMARK       I    between atoms: C41_41  and  N13_98 
REMARK       I    between atoms: C42_42  and  C43_43 
REMARK       I    between atoms: C42_42  and  N14_99 
REMARK       I    between atoms: C43_43  and  C44_44 
REMARK       I    between atoms: C44_44  and  O13_79 
REMARK       I    between atoms: C45_45  and  C46_46 
REMARK       I    between atoms: C45_45  and  N14_99 
REMARK       I    between atoms: C46_46  and  C47_47 
REMARK       I    between atoms: C46_46  and  N15_100 
REMARK       I    between atoms: C50_50  and  C51_51 
REMARK       I    between atoms: C50_50  and  N15_100 
REMARK       I    between atoms: C51_51  and  C52_52 
REMARK       I    between atoms: C51_51  and  N17_102 
REMARK       I    between atoms: C52_52  and  C53_53 
REMARK       I    between atoms: C53_53  and  C54_54 
REMARK       I    between atoms: C54_54  and  C55_55 
REMARK       I    between atoms: C55_55  and  N16_101 
REMARK       I    between atoms: C56_56  and  C57_57 
REMARK       I    between atoms: C56_56  and  N17_102 
REMARK       I    between atoms: C57_57  and  C58_58 
REMARK       I    between atoms: C57_57  and  N18_103 
REMARK       I    between atoms: C58_58  and  C59_59 
REMARK       I    between atoms: C62_62  and  C63_63 
REMARK       I    between atoms: C62_62  and  N18_103 
REMARK       I    between atoms: C63_63  and  C64_64 
REMARK       I    between atoms: C63_63  and  N20_105 
REMARK       I    between atoms: C64_64  and  C65_65 
REMARK       I    between atoms: C65_65  and  C66_66 
REMARK       I    between atoms: C66_66  and  N19_104 
USER                              x       y       z     vdW  Elec       q    Type
USER                           _______ _______ _______ _____ _____    ______ ____
ROOT
ATOM      1  C1  UNL     1      29.162   4.542   7.990+99.99 +0.00    +0.005 C 
ATOM      2  C2  UNL     1      27.811   3.953   7.601+99.99 +0.00    +0.002 C 
ATOM      3  C3  UNL     1      27.868   2.429   7.353+99.99 +0.00    +0.013 C 
ATOM      4  C4  UNL     1      28.635   2.106   6.062 +1.11 +0.00    +0.012 C 
ATOM      5  C5  UNL     1      26.462   1.775   7.315+99.99 +0.00    +0.180 C 
ATOM      6  C6  UNL     1      25.785   1.760   8.710+99.99 +0.00    +0.238 C 
ATOM      7  C7  UNL     1      24.606   1.682   5.657+99.99 +0.00    +0.236 C 
ATOM      8  C8  UNL     1      23.762   2.510   4.688+99.99 +0.00    +0.225 C 
ATOM      9  C9  UNL     1      23.801   4.703   3.555+99.99 +0.00    +0.242 C 
ATOM     10  C10 UNL     1      24.720   5.824   3.047+99.99 +0.00    +0.200 C 
ATOM     11  C11 UNL     1      25.050   6.743   4.241+36.98 +0.00    +0.199 C 
ATOM     12  C12 UNL     1      26.914   5.992   1.903+24.53 +0.00    +0.241 C 
ATOM     13  C13 UNL     1      28.045   5.220   1.170 +5.79 +0.00    +0.176 C 
ATOM     14  C14 UNL     1      28.738   4.130   2.011+53.70 +0.00    +0.036 C 
ATOM     15  C15 UNL     1      30.030   4.500   2.761+48.44 +0.00    +0.022 C 
ATOM     16  C16 UNL     1      29.842   5.419   3.962+99.99 +0.00    +0.121 C 
ATOM     17  C17 UNL     1      28.946   7.542   4.387+99.99 +0.00    +0.121 C 
ATOM     18  C18 UNL     1      28.665   6.804  -0.586 -0.18 +0.00    +0.243 C 
ATOM     19  C19 UNL     1      29.586   7.955  -1.077 -0.17 +0.00    +0.205 C 
ATOM     20  C20 UNL     1      29.975   8.999  -0.013 -0.08 +0.00    +0.146 C 
ATOM     21  C21 UNL     1      28.825   9.872   0.470+19.42 +0.00    +0.042 C 
ATOM     22  C22 UNL     1      29.027   8.068  -3.473 +1.22 +0.00    +0.236 C 
ATOM     23  C23 UNL     1      27.735   8.058  -4.301+99.99 +0.00    +0.225 C 
ATOM     24  C24 UNL     1      25.557   8.437  -3.148+99.99 +0.00    +0.241 C 
ATOM     25  C25 UNL     1      24.673   7.924  -1.988 +6.33 +0.00    +0.181 C 
ATOM     26  C26 UNL     1      23.794   6.765  -2.471 -0.15 +0.00    +0.075 C 
ATOM     27  C27 UNL     1      23.391   5.837  -1.362 +0.80 -0.00    -0.028 A 
ATOM     28  C28 UNL     1      22.305   5.986  -0.522 +2.11 +0.00    +0.096 A 
ATOM     29  C29 UNL     1      23.300   4.053   0.057 +7.31 +0.00    +0.042 A 
ATOM     30  C30 UNL     1      23.626   2.824   0.644+12.59 +0.00    +0.030 A 
ATOM     31  C31 UNL     1      24.764   2.163   0.177+99.99 +0.00    +0.002 A 
ATOM     32  C32 UNL     1      25.540   2.709  -0.841+99.99 +0.00    +0.001 A 
ATOM     33  C33 UNL     1      25.190   3.932  -1.428 -0.34 +0.00    +0.014 A 
ATOM     34  C34 UNL     1      24.044   4.620  -0.978 +0.86 -0.00    -0.002 A 
ATOM     35  C35 UNL     1      24.464   9.941  -0.604+99.99 +0.00    +0.241 C 
ATOM     36  C36 UNL     1      23.792  11.328  -0.529+50.04 +0.00    +0.177 C 
ATOM     37  C37 UNL     1      24.367  12.251  -1.621+96.52 +0.00    +0.038 C 
ATOM     38  C38 UNL     1      25.889  12.500  -1.549+99.99 -0.00    -0.020 C 
ATOM     39  C39 UNL     1      26.313  13.139  -0.227+24.01 +0.00    +0.009 C 
ATOM     40  C40 UNL     1      26.322  13.390  -2.718+99.99 +0.00    +0.009 C 
ATOM     41  C41 UNL     1      21.468  12.200  -0.386 +0.50 +0.00    +0.241 C 
ATOM     42  C42 UNL     1      19.983  11.801  -0.476 -0.19 +0.00    +0.186 C 
ATOM     43  C43 UNL     1      19.125  13.047  -0.689+99.99 +0.00    +0.144 C 
ATOM     44  C44 UNL     1      17.748  12.686  -1.165+99.99 +0.00    +0.141 C 
ATOM     45  C45 UNL     1      19.943   9.765   0.937 +0.22 +0.00    +0.241 C 
ATOM     46  C46 UNL     1      19.397   9.144   2.237 +0.48 +0.00    +0.180 C 
ATOM     47  C47 UNL     1      20.265   7.966   2.726+36.87 +0.00    +0.009 C 
ATOM     48  C48 UNL     1      21.677   8.445   3.082 +0.34 +0.00    +0.012 C 
ATOM     49  C49 UNL     1      19.651   7.273   3.947 +2.01 +0.00    +0.012 C 
ATOM     50  C50 UNL     1      16.949   8.941   2.663 -0.39 +0.00    +0.241 C 
ATOM     51  C51 UNL     1      15.611   8.498   2.031 -0.12 +0.00    +0.176 C 
ATOM     52  C52 UNL     1      15.126   9.570   1.045+20.94 +0.00    +0.035 C 
ATOM     53  C53 UNL     1      14.532  10.824   1.706+15.35 +0.00    +0.004 C 
ATOM     54  C54 UNL     1      14.652  12.085   0.844 +3.39 +0.00    +0.030 C 
ATOM     55  C55 UNL     1      14.055  11.952  -0.556 +3.38 +0.00    +0.267 C 
ATOM     56  C56 UNL     1      14.550   6.957   3.636 +0.56 +0.00    +0.241 C 
ATOM     57  C57 UNL     1      13.790   6.923   4.985 -0.40 +0.00    +0.177 C 
ATOM     58  C58 UNL     1      13.140   5.553   5.244 -0.21 +0.00    +0.038 C 
ATOM     59  C59 UNL     1      14.103   4.477   5.788 +6.72 -0.00    -0.020 C 
ATOM     60  C60 UNL     1      14.565   4.787   7.214 +0.21 +0.00    +0.009 C 
ATOM     61  C61 UNL     1      13.417   3.109   5.760+18.36 +0.00    +0.009 C 
ATOM     62  C62 UNL     1      12.253   8.496   6.153 +0.01 +0.00    +0.251 C 
ATOM     63  C63 UNL     1      11.096   9.495   5.893+46.32 +0.00    +0.309 C 
ATOM     64  C64 UNL     1      10.230   9.720   7.138+11.31 +0.00    +0.054 C 
ATOM     65  C65 UNL     1      10.932  10.570   8.203+83.42 +0.00    +0.105 C 
ATOM     66  C66 UNL     1      10.848   9.924   9.567+99.99 +0.00    +0.215 C 
ATOM     67  O1  UNL     1      26.372   1.974   9.766+93.21 -0.00    -0.271 OA
ATOM     68  O2  UNL     1      24.357   0.508   5.916+99.99 -0.00    -0.272 OA
ATOM     69  O3  UNL     1      22.577   4.748   3.470+99.99 -0.00    -0.271 OA
ATOM     70  O4  UNL     1      25.290   8.093   3.839 -0.42 -0.00    -0.398 OA
ATOM     71  O5  UNL     1      26.872   7.220   1.976 -0.21 -0.00    -0.271 OA
ATOM     72  O6  UNL     1      27.720   6.402  -1.279 -0.21 -0.00    -0.271 OA
ATOM     73  O7  UNL     1      30.981   9.869  -0.554 -0.32 -0.00    -0.393 OA
ATOM     74  O8  UNL     1      30.108   7.689  -3.913 -0.50 -0.00    -0.272 OA
ATOM     75  O9  UNL     1      25.312   9.472  -3.765+99.99 -0.00    -0.271 OA
ATOM     76  O10 UNL     1      25.514   9.686  -0.017+49.89 -0.00    -0.271 OA
ATOM     77  O11 UNL     1      21.837  13.305   0.000+73.80 -0.00    -0.271 OA
ATOM     78  O12 UNL     1      17.340  11.576  -1.461+99.99 -0.00    -0.650 OA
ATOM     79  O13 UNL     1      16.950  13.773  -1.209+99.99 -0.00    -0.776 OA
ATOM     80  O14 UNL     1      20.508   9.113   0.059 +2.28 -0.00    -0.271 OA
ATOM     81  O15 UNL     1      17.011   9.507   3.752 -0.34 -0.00    -0.271 OA
ATOM     82  O16 UNL     1      15.112   5.983   3.145+51.50 -0.00    -0.271 OA
ATOM     83  O17 UNL     1      12.683   8.218   7.270 -0.33 -0.00    -0.271 OA
ATOM     84  O18 UNL     1      10.046  10.271  10.426+99.99 -0.00    -0.274 OA
ATOM     85  N1  UNL     1      24.477   1.361   8.726 +1.33 -0.00    -0.368 N 
ATOM     86  N2  UNL     1      25.603   2.390   6.297+10.70 -0.00    -0.346 N 
ATOM     87  N3  UNL     1      24.468   3.695   4.226 +9.57 -0.00    -0.350 N 
ATOM     88  N4  UNL     1      25.914   5.201   2.438 +8.97 -0.00    -0.344 N 
ATOM     89  N5  UNL     1      29.335   6.702   3.503+34.29 -0.00    -0.372 N 
ATOM     90  H5  UNL     1      29.291   6.926   2.508 +0.07 +0.00    +0.161 HD
ATOM     91  N6  UNL     1      29.005   7.467   5.734+99.99 -0.00    -0.279 NA
ATOM     92  N7  UNL     1      28.343   8.690   4.012+99.99 -0.00    -0.279 NA
ATOM     93  N8  UNL     1      28.985   6.180   0.597 -0.08 -0.00    -0.346 N 
ATOM     94  N9  UNL     1      28.874   8.592  -2.200 +2.06 -0.00    -0.344 N 
ATOM     95  N10 UNL     1      26.636   7.636  -3.435+99.99 -0.00    -0.351 N 
ATOM     96  N11 UNL     1      22.262   4.916   0.330 +2.92 -0.00    -0.365 N 
ATOM     97  N12 UNL     1      23.890   9.068  -1.512 +1.26 -0.00    -0.346 N 
ATOM     98  N13 UNL     1      22.341  11.176  -0.703 +0.10 -0.00    -0.346 N 
ATOM     99  N14 UNL     1      19.630  11.097   0.761 -0.27 -0.00    -0.345 N 
ATOM    100  N15 UNL     1      18.050   8.713   1.871 -0.03 -0.00    -0.346 N 
ATOM    101  N16 UNL     1      14.307  13.179  -1.325 +0.90 +0.00    +0.078 N 
ATOM    102  N17 UNL     1      14.647   8.225   3.086 -0.20 -0.00    -0.346 N 
ATOM    103  N18 UNL     1      12.783   7.986   4.988 -0.16 -0.00    -0.346 N 
ATOM    104  N19 UNL     1      11.720   8.900   9.771+99.99 -0.00    -0.370 N 
ATOM    105  N20 UNL     1      10.271   8.971   4.773 -0.31 +0.00    +0.092 N 
ATOM    106  H83 UNL     1      25.825   8.045   3.014 +0.14 +0.00    +0.209 HD
ATOM    107  H84 UNL     1      30.683  10.120  -1.450 +0.08 +0.00    +0.210 HD
ATOM    108  H85 UNL     1      16.025  13.452  -1.397+35.69 +0.00    +0.167 HD
ATOM    109  H86 UNL     1      24.140   0.781   7.959 +0.13 +0.00    +0.159 HD
ATOM    110  H87 UNL     1      24.085   1.172   9.640 +0.17 +0.00    +0.159 HD
ATOM    111  H88 UNL     1      25.444   3.389   6.370 +4.04 +0.00    +0.163 HD
ATOM    112  H89 UNL     1      25.466   3.618   4.052+15.74 +0.00    +0.163 HD
ATOM    113  H90 UNL     1      25.716   4.382   1.868 +0.23 +0.00    +0.163 HD
ATOM    114  H91 UNL     1      29.712   6.833   6.082+99.99 +0.00    +0.126 HD
ATOM    115  H92 UNL     1      29.118   8.385   6.154+99.99 +0.00    +0.126 HD
ATOM    116  H93 UNL     1      28.076   8.623   3.030 -0.31 +0.00    +0.126 HD
ATOM    117  H94 UNL     1      27.489   8.865   4.538+99.99 +0.00    +0.126 HD
ATOM    118  H95 UNL     1      29.464   6.728   1.310 +0.08 +0.00    +0.163 HD
ATOM    119  H96 UNL     1      27.916   8.847  -1.978 +0.54 +0.00    +0.163 HD
ATOM    120  H97 UNL     1      26.863   6.895  -2.765 +0.16 +0.00    +0.163 HD
ATOM    121  H98 UNL     1      21.582   4.781   1.068 +4.12 +0.00    +0.165 HD
ATOM    122  H99 UNL     1      23.313   9.518  -2.218 +2.69 +0.00    +0.163 HD
ATOM    123  HA0 UNL     1      21.957  10.230  -0.624 +0.13 +0.00    +0.163 HD
ATOM    124  HA1 UNL     1      19.389  11.645   1.580 +0.14 +0.00    +0.163 HD
ATOM    125  HA2 UNL     1      17.943   8.209   0.996 +0.14 +0.00    +0.163 HD
ATOM    126  HA3 UNL     1      13.844  13.076  -2.234 +0.59 +0.00    +0.312 HD
ATOM    127  HA4 UNL     1      13.805  13.949  -0.870 +1.88 +0.00    +0.312 HD
ATOM    128  HA5 UNL     1      14.495   8.974   3.756 +0.05 +0.00    +0.163 HD
ATOM    129  HA6 UNL     1      12.183   8.097   4.171 +0.10 +0.00    +0.163 HD
ATOM    130  HA7 UNL     1      12.265   8.501   9.005 +0.17 +0.00    +0.159 HD
ATOM    131  HA8 UNL     1      11.663   8.384  10.638+99.99 +0.00    +0.159 HD
ATOM    132  HA9 UNL     1       9.778   8.136   5.100 +0.22 +0.00    +0.313 HD
ATOM    133  HB0 UNL     1       9.533   9.647   4.573 -0.27 +0.00    +0.313 HD
ENDROOT
TORSDOF 54
TER
