USER    Run = 1
USER    DPF = ligand_94_receptor.dpf
USER  
USER    Estimated Free Energy of Binding    =  +6.47e+003 kcal/mol  [=(1)+(2)+(3)-(4)]
USER    
USER    (1) Final Intermolecular Energy     =  +6.47e+003 kcal/mol
USER        vdW + Hbond + desolv Energy     =  +6.47e+003 kcal/mol
USER        Electrostatic Energy            =   +0.00 kcal/mol
USER    (2) Final Total Internal Energy     =   +0.00 kcal/mol
USER    (3) Torsional Free Energy           =   +1.19 kcal/mol
USER    (4) Unbound System's Energy  [=(2)] =   +0.00 kcal/mol
USER    
USER    
USER    NEWDPF move ligand_94.pdbqt
USER    NEWDPF about 0.000000 0.000000 0.000000
USER    NEWDPF tran0 13.301047 6.419236 1.658875
USER    NEWDPF quaternion0 -0.037188 -0.200720 0.002790 0.978939
USER    NEWDPF axisangle0 -0.182157 -0.983174 0.013665 23.560057
USER    NEWDPF quat0 -0.182157 -0.983174 0.013665 23.560057
USER  keepresnum = 1 
USER  
REMARK  0 active torsions:
REMARK  status: ('A' for Active; 'I' for Inactive)
REMARK       I    between atoms: C2_2  and  C3_3 
REMARK       I    between atoms: C2_2  and  N6_91 
REMARK       I    between atoms: C3_3  and  N1_86 
REMARK       I    between atoms: C4_4  and  C5_5 
REMARK       I    between atoms: C4_4  and  C8_8 
REMARK       I    between atoms: C4_4  and  N1_86 
REMARK       I    between atoms: C8_8  and  N2_87 
REMARK       I    between atoms: C9_9  and  C10_10 
REMARK       I    between atoms: C9_9  and  C13_13 
REMARK       I    between atoms: C9_9  and  N2_87 
REMARK       I    between atoms: C13_13  and  N3_88 
REMARK       I    between atoms: C14_14  and  C15_15 
REMARK       I    between atoms: C14_14  and  C18_18 
REMARK       I    between atoms: C14_14  and  N3_88 
REMARK       I    between atoms: C18_18  and  N4_89 
REMARK       I    between atoms: C19_19  and  C21_21 
REMARK       I    between atoms: C19_19  and  N4_89 
REMARK       I    between atoms: C21_21  and  N5_90 
REMARK       I    between atoms: C22_22  and  C23_23 
REMARK       I    between atoms: C22_22  and  C30_30 
REMARK       I    between atoms: C22_22  and  N5_90 
REMARK       I    between atoms: C23_23  and  C24_24 
REMARK       I    between atoms: C24_24  and  C25_25 
REMARK       I    between atoms: C25_25  and  O7_68 
REMARK       I    between atoms: C26_26  and  O7_68 
REMARK       I    between atoms: C30_30  and  O9_70 
REMARK       I    between atoms: C31_31  and  C32_32 
REMARK       I    between atoms: C31_31  and  N6_91 
REMARK       I    between atoms: C32_32  and  N7_92 
REMARK       I    between atoms: C34_34  and  C35_35 
REMARK       I    between atoms: C34_34  and  N7_92 
REMARK       I    between atoms: C39_39  and  C40_40 
REMARK       I    between atoms: C39_39  and  N8_93 
REMARK       I    between atoms: C40_40  and  C41_41 
REMARK       I    between atoms: C40_40  and  N9_94 
REMARK       I    between atoms: C44_44  and  C45_45 
REMARK       I    between atoms: C44_44  and  N9_94 
REMARK       I    between atoms: C45_45  and  C46_46 
REMARK       I    between atoms: C45_45  and  N11_96 
REMARK       I    between atoms: C46_46  and  O14_75 
REMARK       I    between atoms: C48_48  and  O14_75 
REMARK       I    between atoms: C49_49  and  N10_95 
REMARK       I    between atoms: C50_50  and  O18_79 
REMARK       I    between atoms: C51_51  and  O17_78 
REMARK       I    between atoms: C52_52  and  C53_53 
REMARK       I    between atoms: C53_53  and  O16_77 
REMARK       I    between atoms: C54_54  and  O18_79 
REMARK       I    between atoms: C55_55  and  O23_84 
REMARK       I    between atoms: C56_56  and  O22_83 
REMARK       I    between atoms: C57_57  and  O21_82 
REMARK       I    between atoms: C58_58  and  C59_59 
REMARK       I    between atoms: C59_59  and  O20_81 
REMARK       I    between atoms: C60_60  and  N10_95 
USER                              x       y       z     vdW  Elec       q    Type
USER                           _______ _______ _______ _____ _____    ______ ____
ROOT
ATOM      1  C1  UNL     1      12.991   6.621   1.335 +0.79 +0.00    +0.042 C 
ATOM      2  C2  UNL     1      12.133   7.189   2.456 -0.27 +0.00    +0.172 C 
ATOM      3  C3  UNL     1      12.701   8.549   2.904 +2.63 +0.00    +0.240 C 
ATOM      4  C4  UNL     1      14.462   9.675   4.259+10.08 +0.00    +0.180 C 
ATOM      5  C5  UNL     1      15.142   9.442   5.630+19.43 +0.00    +0.009 C 
ATOM      6  C6  UNL     1      16.040   8.200   5.694+95.18 +0.00    +0.012 C 
ATOM      7  C7  UNL     1      14.094   9.365   6.745 +8.78 +0.00    +0.012 C 
ATOM      8  C8  UNL     1      15.458  10.170   3.179 +0.54 +0.00    +0.241 C 
ATOM      9  C9  UNL     1      15.583  10.909   0.810 -0.10 +0.00    +0.180 C 
ATOM     10  C10 UNL     1      14.879  11.965  -0.071 +1.62 +0.00    +0.009 C 
ATOM     11  C11 UNL     1      15.730  12.310  -1.300+99.99 +0.00    +0.012 C 
ATOM     12  C12 UNL     1      14.597  13.255   0.710+99.99 +0.00    +0.012 C 
ATOM     13  C13 UNL     1      15.695   9.529   0.107 +0.82 +0.00    +0.241 C 
ATOM     14  C14 UNL     1      17.000   7.420   0.105 +3.85 +0.00    +0.180 C 
ATOM     15  C15 UNL     1      17.280   6.337   1.171+20.54 +0.00    +0.009 C 
ATOM     16  C16 UNL     1      18.550   6.589   1.989+89.62 +0.00    +0.012 C 
ATOM     17  C17 UNL     1      17.311   4.930   0.573+99.99 +0.00    +0.012 C 
ATOM     18  C18 UNL     1      18.225   7.765  -0.776+99.99 +0.00    +0.241 C 
ATOM     19  C19 UNL     1      19.568   7.038  -2.743+11.26 +0.00    +0.172 C 
ATOM     20  C20 UNL     1      19.849   8.441  -3.271+99.99 +0.00    +0.042 C 
ATOM     21  C21 UNL     1      20.743   6.341  -2.011 +9.94 +0.00    +0.240 C 
ATOM     22  C22 UNL     1      23.209   6.137  -1.773 +2.10 +0.00    +0.182 C 
ATOM     23  C23 UNL     1      23.564   4.782  -2.402+99.99 +0.00    +0.046 C 
ATOM     24  C24 UNL     1      24.779   4.090  -1.777 +0.60 +0.00    +0.113 C 
ATOM     25  C25 UNL     1      26.084   4.480  -2.437 +0.21 +0.00    +0.259 C 
ATOM     26  C26 UNL     1      28.492   4.306  -2.063 -0.20 +0.00    +0.060 C 
ATOM     27  C27 UNL     1      28.839   3.631  -3.393 -0.17 +0.00    +0.045 C 
ATOM     28  C28 UNL     1      28.774   5.813  -2.094 -0.22 +0.00    +0.045 C 
ATOM     29  C29 UNL     1      29.342   3.671  -0.953 -0.20 +0.00    +0.045 C 
ATOM     30  C30 UNL     1      24.343   7.163  -1.883 -0.35 +0.00    +0.163 C 
ATOM     31  C31 UNL     1       9.733   7.414   2.923 -0.27 +0.00    +0.240 C 
ATOM     32  C32 UNL     1       8.419   8.019   2.391 +0.03 +0.00    +0.172 C 
ATOM     33  C33 UNL     1       7.220   7.426   3.124 +0.52 +0.00    +0.042 C 
ATOM     34  C34 UNL     1       7.424   8.630   0.215 +2.65 +0.00    +0.241 C 
ATOM     35  C35 UNL     1       7.213   8.173  -1.248 +0.95 +0.00    +0.179 C 
ATOM     36  C36 UNL     1       6.184   9.046  -1.968+28.86 +0.00    +0.037 C 
ATOM     37  C37 UNL     1       4.858   8.409  -1.561+13.40 +0.00    +0.022 C 
ATOM     38  C38 UNL     1       5.176   6.919  -1.556+99.99 +0.00    +0.127 C 
ATOM     39  C39 UNL     1       7.371   5.689  -1.195 +5.41 +0.00    +0.243 C 
ATOM     40  C40 UNL     1       6.686   4.321  -1.453 +0.28 +0.00    +0.180 C 
ATOM     41  C41 UNL     1       6.513   4.053  -2.971 +0.64 +0.00    +0.009 C 
ATOM     42  C42 UNL     1       5.615   2.836  -3.211 -0.13 +0.00    +0.012 C 
ATOM     43  C43 UNL     1       7.840   3.876  -3.720 -0.18 +0.00    +0.012 C 
ATOM     44  C44 UNL     1       7.340   2.946   0.523 -0.05 +0.00    +0.254 C 
ATOM     45  C45 UNL     1       8.314   1.829   0.980 -0.12 +0.00    +0.337 C 
ATOM     46  C46 UNL     1       9.442   2.393   1.876 +0.58 +0.00    +0.163 C 
ATOM     47  C47 UNL     1      10.384   3.344   1.139+99.99 +0.00    +0.042 C 
ATOM     48  C48 UNL     1       8.452   2.342   4.073 +6.86 +0.00    +0.286 C 
ATOM     49  C49 UNL     1       7.577   3.238   4.973 +0.44 +0.00    +0.171 C 
ATOM     50  C50 UNL     1       8.421   4.401   5.549 -0.28 +0.00    +0.183 C 
ATOM     51  C51 UNL     1       9.941   4.125   5.469 -0.33 +0.00    +0.180 C 
ATOM     52  C52 UNL     1      10.262   2.629   5.655 +0.55 +0.00    +0.179 C 
ATOM     53  C53 UNL     1      10.085   2.141   7.107 +9.45 +0.00    +0.198 C 
ATOM     54  C54 UNL     1       7.661   5.935   7.222 +0.56 +0.00    +0.292 C 
ATOM     55  C55 UNL     1       7.283   5.966   8.713+10.44 +0.00    +0.204 C 
ATOM     56  C56 UNL     1       6.849   7.372   9.136+47.34 +0.00    +0.183 C 
ATOM     57  C57 UNL     1       7.430   8.466   8.224+94.37 +0.00    +0.180 C 
ATOM     58  C58 UNL     1       8.798   8.040   7.678+99.99 +0.00    +0.179 C 
ATOM     59  C59 UNL     1       9.402   9.133   6.782+99.99 +0.00    +0.198 C 
ATOM     60  C60 UNL     1       5.290   4.252   4.824 -0.17 +0.00    +0.214 C 
ATOM     61  C61 UNL     1       4.245   4.736   3.856 -0.14 +0.00    +0.117 C 
ATOM     62  O1  UNL     1      12.279   9.620   2.465+41.55 -0.00    -0.271 OA
ATOM     63  O2  UNL     1      16.680  10.093   3.278 -0.31 -0.00    -0.271 OA
ATOM     64  O3  UNL     1      15.044   9.207  -0.884 +3.82 -0.00    -0.271 OA
ATOM     65  O4  UNL     1      19.007   8.670  -0.486 +4.94 -0.00    -0.271 OA
ATOM     66  O5  UNL     1      20.552   5.452  -1.178+39.72 -0.00    -0.271 OA
ATOM     67  O6  UNL     1      26.172   5.076  -3.501+99.99 -0.00    -0.265 OA
ATOM     68  O7  UNL     1      27.120   4.036  -1.677 -0.28 -0.00    -0.311 OA
ATOM     69  O8  UNL     1      25.416   7.115  -1.304 +0.00 -0.00    -0.648 OA
ATOM     70  O9  UNL     1      24.076   8.178  -2.740 +2.32 -0.00    -0.775 OA
ATOM     71  O10 UNL     1       9.895   7.091   4.099 -0.22 -0.00    -0.271 OA
ATOM     72  O11 UNL     1       6.899   9.636   0.686+99.99 -0.00    -0.271 OA
ATOM     73  O12 UNL     1       8.571   5.764  -0.912 -0.11 -0.00    -0.271 OA
ATOM     74  O13 UNL     1       6.543   3.492   1.285 -0.04 -0.00    -0.271 OA
ATOM     75  O14 UNL     1       8.920   3.135   2.981 -0.16 -0.00    -0.352 OA
ATOM     76  O15 UNL     1       9.538   1.752   4.778+71.31 -0.00    -0.349 OA
ATOM     77  O16 UNL     1      10.916   2.832   8.034 +0.01 -0.00    -0.398 OA
ATOM     78  O17 UNL     1      10.688   4.920   6.402 -0.12 -0.00    -0.390 OA
ATOM     79  O18 UNL     1       8.064   4.594   6.931 -0.25 -0.00    -0.348 OA
ATOM     80  O19 UNL     1       8.731   6.828   6.902+13.36 -0.00    -0.348 OA
ATOM     81  O20 UNL     1      10.639   8.694   6.219 -0.16 -0.00    -0.398 OA
ATOM     82  O21 UNL     1       7.496   9.703   8.934+61.44 -0.00    -0.390 OA
ATOM     83  O22 UNL     1       7.256   7.633  10.496+99.99 -0.00    -0.390 OA
ATOM     84  O23 UNL     1       8.420   5.582   9.526 +0.96 -0.00    -0.388 OA
ATOM     85  O24 UNL     1       5.156   4.360   6.038 -0.27 -0.00    -0.274 OA
ATOM     86  N1  UNL     1      13.777   8.478   3.759 -0.19 -0.00    -0.346 N 
ATOM     87  N2  UNL     1      14.842  10.665   2.045 +1.24 -0.00    -0.346 N 
ATOM     88  N3  UNL     1      16.559   8.657   0.743 -0.27 -0.00    -0.346 N 
ATOM     89  N4  UNL     1      18.377   6.970  -1.893+43.77 -0.00    -0.346 N 
ATOM     90  N5  UNL     1      22.009   6.677  -2.425+11.32 -0.00    -0.345 N 
ATOM     91  N6  UNL     1      10.763   7.393   2.002 -0.10 -0.00    -0.346 N 
ATOM     92  N7  UNL     1       8.286   7.842   0.949 -0.06 -0.00    -0.346 N 
ATOM     93  N8  UNL     1       6.612   6.833  -1.314+76.29 -0.00    -0.337 N 
ATOM     94  N9  UNL     1       7.445   3.250  -0.816 +0.01 -0.00    -0.346 N 
ATOM     95  N10 UNL     1       6.402   3.721   4.222 -0.08 -0.00    -0.349 N 
ATOM     96  N11 UNL     1       8.844   1.089  -0.199 -0.19 +0.00    +0.094 N 
ATOM     97  H88 UNL     1      24.906   8.704  -2.733+16.98 +0.00    +0.167 HD
ATOM     98  H89 UNL     1      10.997   3.757   7.711 +0.16 +0.00    +0.209 HD
ATOM     99  H90 UNL     1      10.249   5.802   6.418 +0.14 +0.00    +0.210 HD
ATOM    100  H91 UNL     1      10.403   7.973   5.595 +0.13 +0.00    +0.209 HD
ATOM    101  H92 UNL     1       7.515   9.455   9.884 -0.26 +0.00    +0.210 HD
ATOM    102  H93 UNL     1       7.911   6.927  10.699 +6.12 +0.00    +0.210 HD
ATOM    103  H94 UNL     1       8.820   4.815   9.065 +0.15 +0.00    +0.210 HD
ATOM    104  H95 UNL     1      14.209   7.578   3.922 +0.08 +0.00    +0.163 HD
ATOM    105  H96 UNL     1      13.835  10.506   1.966 +2.61 +0.00    +0.163 HD
ATOM    106  H97 UNL     1      17.197   9.082   1.416 +0.12 +0.00    +0.163 HD
ATOM    107  H98 UNL     1      17.890   6.083  -1.891 +1.92 +0.00    +0.163 HD
ATOM    108  H99 UNL     1      22.163   7.512  -2.982 +1.50 +0.00    +0.163 HD
ATOM    109  HA0 UNL     1      10.641   8.034   1.224 +0.15 +0.00    +0.163 HD
ATOM    110  HA1 UNL     1       8.600   6.964   0.530 +0.09 +0.00    +0.163 HD
ATOM    111  HA2 UNL     1       8.332   2.964  -1.226 +0.07 +0.00    +0.163 HD
ATOM    112  HA3 UNL     1       6.496   3.810   3.206 +0.07 +0.00    +0.163 HD
ATOM    113  HA4 UNL     1       9.420   0.313   0.133 +0.19 +0.00    +0.314 HD
ATOM    114  HA5 UNL     1       8.054   0.655  -0.683 +0.14 +0.00    +0.314 HD
ENDROOT
TORSDOF 43
TER
