USER    Run = 1
USER    DPF = ligand_304_receptor.dpf
USER  
USER    Estimated Free Energy of Binding    = +801.87 kcal/mol  [=(1)+(2)+(3)-(4)]
USER    
USER    (1) Final Intermolecular Energy     = +800.68 kcal/mol
USER        vdW + Hbond + desolv Energy     = +800.68 kcal/mol
USER        Electrostatic Energy            =   +0.00 kcal/mol
USER    (2) Final Total Internal Energy     =   +0.00 kcal/mol
USER    (3) Torsional Free Energy           =   +1.19 kcal/mol
USER    (4) Unbound System's Energy  [=(2)] =   +0.00 kcal/mol
USER    
USER    
USER    NEWDPF move ligand_304.pdbqt
USER    NEWDPF about 0.000000 0.000000 0.000000
USER    NEWDPF tran0 8.262215 5.401812 2.664045
USER    NEWDPF quaternion0 0.606359 -0.266456 -0.736541 0.137251
USER    NEWDPF axisangle0 0.612152 -0.269002 -0.743578 164.222344
USER    NEWDPF quat0 0.612152 -0.269002 -0.743578 164.222344
USER  keepresnum = 1 
USER  
REMARK  0 active torsions:
REMARK  status: ('A' for Active; 'I' for Inactive)
REMARK       I    between atoms: C2_2  and  C3_3 
REMARK       I    between atoms: C2_2  and  O11_53 
REMARK       I    between atoms: C3_3  and  C4_4 
REMARK       I    between atoms: C3_3  and  C36_36 
REMARK       I    between atoms: C4_4  and  C5_5 
REMARK       I    between atoms: C5_5  and  C6_6 
REMARK       I    between atoms: C6_6  and  C7_7 
REMARK       I    between atoms: C6_6  and  N1_57 
REMARK       I    between atoms: C7_7  and  O2_44 
REMARK       I    between atoms: C8_8  and  C9_9 
REMARK       I    between atoms: C8_8  and  N1_57 
REMARK       I    between atoms: C9_9  and  C10_10 
REMARK       I    between atoms: C9_9  and  C14_14 
REMARK       I    between atoms: C10_10  and  C11_11 
REMARK       I    between atoms: C14_14  and  C15_15 
REMARK       I    between atoms: C15_15  and  C16_16 
REMARK       I    between atoms: C16_16  and  C17_17 
REMARK       I    between atoms: C16_16  and  N4_61 
REMARK       I    between atoms: C17_17  and  C18_18 
REMARK       I    between atoms: C21_21  and  C22_22 
REMARK       I    between atoms: C21_21  and  N4_61 
REMARK       I    between atoms: C26_26  and  C27_27 
REMARK       I    between atoms: C26_26  and  N5_62 
REMARK       I    between atoms: C27_27  and  C28_28 
REMARK       I    between atoms: C28_28  and  O7_49 
REMARK       I    between atoms: C29_29  and  C30_30 
REMARK       I    between atoms: C29_29  and  O7_49 
REMARK       I    between atoms: C30_30  and  O8_50 
REMARK       I    between atoms: C31_31  and  C32_32 
REMARK       I    between atoms: C31_31  and  O8_50 
REMARK       I    between atoms: C32_32  and  N6_63 
REMARK       I    between atoms: C33_33  and  C34_34 
REMARK       I    between atoms: C33_33  and  N6_63 
REMARK       I    between atoms: C34_34  and  C35_35 
REMARK       I    between atoms: C34_34  and  N7_64 
REMARK       I    between atoms: C35_35  and  S1_66 
REMARK       I    between atoms: C36_36  and  N8_65 
REMARK       I    between atoms: C37_37  and  C38_38 
REMARK       I    between atoms: C37_37  and  O14_56 
REMARK       I    between atoms: C38_38  and  C39_39 
REMARK       I    between atoms: O11_53  and  P1_68 
REMARK       I    between atoms: O13_55  and  P1_68 
REMARK       I    between atoms: O14_56  and  P1_68 
USER                              x       y       z     vdW  Elec       q    Type
USER                           _______ _______ _______ _____ _____    ______ ____
ROOT
ATOM      1  C1  UNL     1       9.342   3.910   7.873 -0.58 +0.00    +0.041 C 
ATOM      2  C2  UNL     1      10.458   4.903   7.535 -0.37 +0.00    +0.142 C 
ATOM      3  C3  UNL     1      10.055   6.354   7.906+20.86 +0.00    +0.108 C 
ATOM      4  C4  UNL     1       8.846   6.888   7.126+29.49 +0.00    +0.097 C 
ATOM      5  C5  UNL     1       9.122   7.359   5.709+56.11 +0.00    +0.152 C 
ATOM      6  C6  UNL     1       8.756   6.428   4.553 +0.06 +0.00    +0.177 C 
ATOM      7  C7  UNL     1       9.919   6.370   3.556 -0.23 +0.00    +0.197 C 
ATOM      8  C8  UNL     1       6.293   6.591   4.368 +3.87 +0.00    +0.223 C 
ATOM      9  C9  UNL     1       5.146   7.138   3.513 +4.66 +0.00    +0.090 C 
ATOM     10  C10 UNL     1       3.770   6.848   4.138 -0.04 +0.00    +0.073 C 
ATOM     11  C11 UNL     1       3.509   7.697   5.337 +0.72 +0.00    +0.026 A 
ATOM     12  C12 UNL     1       2.830   8.880   5.521 -0.07 +0.00    +0.114 A 
ATOM     13  C13 UNL     1       3.571   8.341   7.449 -0.22 +0.00    +0.180 A 
ATOM     14  C14 UNL     1       5.244   6.593   2.075 -0.22 +0.00    +0.095 C 
ATOM     15  C15 UNL     1       5.429   5.082   2.001 -0.15 +0.00    +0.150 C 
ATOM     16  C16 UNL     1       6.512   4.552   1.034 -0.10 +0.00    +0.154 C 
ATOM     17  C17 UNL     1       6.415   4.982  -0.443 -0.05 +0.00    +0.037 C 
ATOM     18  C18 UNL     1       5.264   4.594  -1.389 +0.57 -0.00    -0.020 C 
ATOM     19  C19 UNL     1       3.871   4.617  -0.776 -0.13 +0.00    +0.009 C 
ATOM     20  C20 UNL     1       5.550   3.316  -2.178 -0.12 +0.00    +0.009 C 
ATOM     21  C21 UNL     1       6.152   2.060   1.205 -0.11 +0.00    +0.241 C 
ATOM     22  C22 UNL     1       6.768   0.774   1.814 +1.49 +0.00    +0.179 C 
ATOM     23  C23 UNL     1       5.801   0.176   2.840 +4.98 +0.00    +0.037 C 
ATOM     24  C24 UNL     1       6.204   0.873   4.135 +3.60 +0.00    +0.022 C 
ATOM     25  C25 UNL     1       7.718   0.942   4.026+94.90 +0.00    +0.127 C 
ATOM     26  C26 UNL     1       9.293   1.033   2.132 +8.53 +0.00    +0.222 C 
ATOM     27  C27 UNL     1       9.507   0.933   0.634 -0.33 +0.00    +0.129 C 
ATOM     28  C28 UNL     1      10.819   1.609   0.239 +1.23 +0.00    +0.177 C 
ATOM     29  C29 UNL     1      10.108   3.196  -1.415 -0.15 +0.00    +0.193 C 
ATOM     30  C30 UNL     1      10.886   4.463  -1.055 -0.08 +0.00    +0.193 C 
ATOM     31  C31 UNL     1      10.572   6.741  -0.473 -0.25 +0.00    +0.187 C 
ATOM     32  C32 UNL     1       9.462   7.635   0.071 -0.01 +0.00    +0.148 C 
ATOM     33  C33 UNL     1       7.444   8.834  -0.628 +3.26 +0.00    +0.251 C 
ATOM     34  C34 UNL     1       6.501   9.111  -1.820+59.94 +0.00    +0.317 C 
ATOM     35  C35 UNL     1       5.047   9.082  -1.321+99.99 +0.00    +0.116 C 
ATOM     36  C36 UNL     1      11.291   7.258   7.888+34.85 +0.00    +0.202 C 
ATOM     37  C37 UNL     1      13.822   4.660   5.404 +3.97 +0.00    +0.185 C 
ATOM     38  C38 UNL     1      14.717   5.515   4.508+99.99 +0.00    +0.073 C 
ATOM     39  C39 UNL     1      14.058   6.808   4.105 -0.25 -0.00    -0.016 A 
ATOM     40  C40 UNL     1      13.699   7.872   4.909 -0.45 +0.00    +0.015 A 
ATOM     41  C41 UNL     1      13.078   8.922   4.174 +1.02 +0.00    +0.008 A 
ATOM     42  C42 UNL     1      13.006   8.638   2.830 +4.95 +0.00    +0.050 A 
ATOM     43  O1  UNL     1       9.557   8.500   5.518+12.84 -0.00    -0.296 OA
ATOM     44  O2  UNL     1       9.760   5.260   2.666 -0.07 -0.00    -0.398 OA
ATOM     45  O3  UNL     1       6.139   5.918   5.383 -0.13 -0.00    -0.273 OA
ATOM     46  O4  UNL     1       4.765   4.336   2.723 -0.06 -0.00    -0.296 OA
ATOM     47  O5  UNL     1       5.066   2.033   0.639 -0.08 -0.00    -0.271 OA
ATOM     48  O6  UNL     1      10.244   1.137   2.914+29.41 -0.00    -0.273 OA
ATOM     49  O7  UNL     1      10.832   1.994  -1.141 -0.15 -0.00    -0.389 OA
ATOM     50  O8  UNL     1       9.971   5.559  -1.013 -0.07 -0.00    -0.387 OA
ATOM     51  O9  UNL     1       7.224   9.235   0.514+15.68 -0.00    -0.271 OA
ATOM     52  O10 UNL     1      12.440   6.832   7.968 -0.24 -0.00    -0.280 OA
ATOM     53  O11 UNL     1      10.736   4.856   6.144 -0.19 -0.00    -0.291 OA
ATOM     54  O12 UNL     1      11.797   2.443   6.409+13.00 -0.00    -0.631 OA
ATOM     55  O13 UNL     1      10.450   3.221   4.332 -0.33 -0.00    -0.307 OA
ATOM     56  O14 UNL     1      12.701   4.196   4.668 +9.39 -0.00    -0.297 OA
ATOM     57  N1  UNL     1       7.544   6.921   3.894 +0.26 -0.00    -0.347 N 
ATOM     58  N2  UNL     1       2.883   9.275   6.833 -0.11 -0.00    -0.360 N 
ATOM     59  H2  UNL     1       2.475  10.115   7.243 +0.07 +0.00    +0.166 HD
ATOM     60  N3  UNL     1       3.968   7.362   6.588 -0.04 -0.00    -0.355 N 
ATOM     61  N4  UNL     1       6.934   3.186   1.335 -0.01 -0.00    -0.348 N 
ATOM     62  N5  UNL     1       7.996   1.007   2.597 +3.06 -0.00    -0.339 N 
ATOM     63  N6  UNL     1       8.572   8.113  -0.966 -0.22 -0.00    -0.357 N 
ATOM     64  N7  UNL     1       6.752   8.130  -2.912+76.43 +0.00    +0.092 N 
ATOM     65  N8  UNL     1      11.080   8.605   7.910+30.22 -0.00    -0.272 NA
ATOM     66  S1  UNL     1       3.853   9.403  -2.666 +2.25 -0.00    -0.180 SA
ATOM     67  S2  UNL     1      13.676   7.109   2.461 +2.28 -0.00    -0.106 SA
ATOM     68  P1  UNL     1      11.483   3.585   5.505 -0.22 +0.00    +0.393 P 
ATOM     69  H57 UNL     1       9.986   4.461   3.194 -0.12 +0.00    +0.209 HD
ATOM     70  H58 UNL     1      10.623   2.311   3.977 -0.30 +0.00    +0.222 HD
ATOM     71  H59 UNL     1       7.635   7.743   3.303 +0.08 +0.00    +0.163 HD
ATOM     72  H60 UNL     1       4.536   6.551   6.807 +0.06 +0.00    +0.166 HD
ATOM     73  H61 UNL     1       7.642   3.108   2.056 +0.07 +0.00    +0.163 HD
ATOM     74  H62 UNL     1       8.416   7.491  -1.759 -0.09 +0.00    +0.162 HD
ATOM     75  H63 UNL     1       7.542   8.472  -3.464 +9.08 +0.00    +0.313 HD
ATOM     76  H64 UNL     1       5.951   8.177  -3.551+21.14 +0.00    +0.313 HD
ATOM     77  H65 UNL     1      11.932   9.150   7.846 +0.08 +0.00    +0.127 HD
ATOM     78  H66 UNL     1      10.332   8.989   7.334 +0.09 +0.00    +0.127 HD
ATOM     79  H67 UNL     1       2.747   9.302  -1.914 +0.05 +0.00    +0.101 HD
ENDROOT
TORSDOF 38
TER
