USER    Run = 1
USER    DPF = ligand_2_receptor.dpf
USER  
USER    Estimated Free Energy of Binding    = +425.59 kcal/mol  [=(1)+(2)+(3)-(4)]
USER    
USER    (1) Final Intermolecular Energy     = +424.40 kcal/mol
USER        vdW + Hbond + desolv Energy     = +424.40 kcal/mol
USER        Electrostatic Energy            =   +0.00 kcal/mol
USER    (2) Final Total Internal Energy     =   +0.00 kcal/mol
USER    (3) Torsional Free Energy           =   +1.19 kcal/mol
USER    (4) Unbound System's Energy  [=(2)] =   +0.00 kcal/mol
USER    
USER    
USER    NEWDPF move ligand_2.pdbqt
USER    NEWDPF about 0.000000 0.000000 0.000000
USER    NEWDPF tran0 17.086162 8.075136 3.042308
USER    NEWDPF quaternion0 0.034525 -0.973352 -0.169034 -0.151071
USER    NEWDPF axisangle0 0.034926 -0.984652 -0.170996 -162.622059
USER    NEWDPF quat0 0.034926 -0.984652 -0.170996 -162.622059
USER  keepresnum = 1 
USER  
REMARK  0 active torsions:
REMARK  status: ('A' for Active; 'I' for Inactive)
REMARK       I    between atoms: C1_1  and  N1_3 
REMARK       I    between atoms: C1_1  and  C30_50 
REMARK       I    between atoms: C2_2  and  N2_4 
REMARK       I    between atoms: C2_2  and  C34_54 
REMARK       I    between atoms: N1_3  and  C3_7 
REMARK       I    between atoms: N2_4  and  C22_26 
REMARK       I    between atoms: N3_5  and  N4_6 
REMARK       I    between atoms: N3_5  and  C32_52 
REMARK       I    between atoms: C3_7  and  C4_8 
REMARK       I    between atoms: C4_8  and  C5_9 
REMARK       I    between atoms: C4_8  and  O6_39 
REMARK       I    between atoms: C5_9  and  C6_10 
REMARK       I    between atoms: C5_9  and  O5_38 
REMARK       I    between atoms: C6_10  and  C7_11 
REMARK       I    between atoms: C6_10  and  O4_37 
REMARK       I    between atoms: C7_11  and  C8_12 
REMARK       I    between atoms: C7_11  and  O3_36 
REMARK       I    between atoms: C8_12  and  O2_35 
REMARK       I    between atoms: C13_17  and  O8_41 
REMARK       I    between atoms: C13_17  and  C31_51 
REMARK       I    between atoms: C17_21  and  O9_42 
REMARK       I    between atoms: C17_21  and  C32_52 
REMARK       I    between atoms: C22_26  and  C23_27 
REMARK       I    between atoms: C23_27  and  C24_28 
REMARK       I    between atoms: C23_27  and  O16_49 
REMARK       I    between atoms: C24_28  and  C25_29 
REMARK       I    between atoms: C24_28  and  O15_48 
REMARK       I    between atoms: C25_29  and  C26_30 
REMARK       I    between atoms: C25_29  and  O14_47 
REMARK       I    between atoms: C26_30  and  C27_31 
REMARK       I    between atoms: C26_30  and  O13_46 
REMARK       I    between atoms: C27_31  and  O12_45 
REMARK       I    between atoms: O7_40  and  C30_50 
REMARK       I    between atoms: O7_40  and  C31_51 
REMARK       I    between atoms: O8_41  and  C32_52 
REMARK       I    between atoms: O9_42  and  C33_53 
REMARK       I    between atoms: O10_43  and  C33_53 
REMARK       I    between atoms: O10_43  and  C34_54 
USER                              x       y       z     vdW  Elec       q    Type
USER                           _______ _______ _______ _____ _____    ______ ____
ROOT
ATOM      1  C1  UNL     1      23.132   7.944   1.213 -0.34 +0.00    +0.101 C 
ATOM      2  C2  UNL     1      11.393   4.982   4.365 -0.07 +0.00    +0.101 C 
ATOM      3  N1  UNL     1      24.402   8.787   1.129 -0.16 -0.00    -0.336 N 
ATOM      4  N2  UNL     1      10.118   5.373   5.107 -0.09 -0.00    -0.336 N 
ATOM      5  N3  UNL     1      16.522   7.226   3.533 -0.84 -0.00    -0.228 NA
ATOM      6  N4  UNL     1      16.990   7.053   4.845 +1.67 -0.00    -0.268 NA
ATOM      7  C3  UNL     1      25.502   8.622   2.032 -0.37 +0.00    +0.252 C 
ATOM      8  C4  UNL     1      26.723   9.497   1.901 +0.80 +0.00    +0.241 C 
ATOM      9  C5  UNL     1      27.826   8.762   1.100 +0.07 +0.00    +0.187 C 
ATOM     10  C6  UNL     1      29.097   9.640   0.905+30.79 +0.00    +0.180 C 
ATOM     11  C7  UNL     1      30.357   8.811   0.538 +0.01 +0.00    +0.173 C 
ATOM     12  C8  UNL     1      30.297   8.164  -0.862 -0.17 +0.00    +0.198 C 
ATOM     13  C9  UNL     1      22.045   9.582  -1.272+26.12 +0.00    +0.051 C 
ATOM     14  C10 UNL     1      21.370   6.688  -0.926+19.75 +0.00    +0.051 C 
ATOM     15  C11 UNL     1      19.499  11.417   0.371 -0.65 +0.00    +0.049 C 
ATOM     16  C12 UNL     1      21.772  10.770   2.317 +3.08 +0.00    +0.049 C 
ATOM     17  C13 UNL     1      18.829  10.034   2.995 -0.27 +0.00    +0.087 C 
ATOM     18  C14 UNL     1      18.609  11.430   3.608 +5.13 +0.00    +0.049 C 
ATOM     19  C15 UNL     1      19.372   9.036   4.039 +1.53 +0.00    +0.049 C 
ATOM     20  C16 UNL     1      15.889   9.912   4.813 +4.38 +0.00    +0.069 C 
ATOM     21  C17 UNL     1      14.783   9.227   2.076+17.66 +0.00    +0.103 C 
ATOM     22  C18 UNL     1      15.033  10.517   1.274+11.30 +0.00    +0.050 C 
ATOM     23  C19 UNL     1      14.680   8.069   1.051+11.46 +0.00    +0.050 C 
ATOM     24  C20 UNL     1      11.549   7.486   2.162 +0.11 +0.00    +0.078 C 
ATOM     25  C21 UNL     1      11.721   8.792   4.899 +1.85 +0.00    +0.078 C 
ATOM     26  C22 UNL     1       8.807   5.131   4.574 -0.16 +0.00    +0.252 C 
ATOM     27  C23 UNL     1       7.571   5.615   5.300 -0.07 +0.00    +0.241 C 
ATOM     28  C24 UNL     1       7.377   4.878   6.655 -0.36 +0.00    +0.187 C 
ATOM     29  C25 UNL     1       5.934   4.920   7.257 -0.32 +0.00    +0.180 C 
ATOM     30  C26 UNL     1       5.300   6.322   7.520 -0.15 +0.00    +0.173 C 
ATOM     31  C27 UNL     1       4.502   6.907   6.336 +0.52 +0.00    +0.198 C 
ATOM     32  C28 UNL     1      14.275   4.174   4.879+99.99 +0.00    +0.051 C 
ATOM     33  C29 UNL     1      13.084   6.177   6.754 -0.49 +0.00    +0.051 C 
ATOM     34  O1  UNL     1      25.475   7.721   2.915 -0.36 -0.00    -0.270 OA
ATOM     35  O2  UNL     1      31.502   7.508  -1.149 -0.01 -0.00    -0.398 OA
ATOM     36  O3  UNL     1      31.507   9.613   0.657 -0.08 -0.00    -0.391 OA
ATOM     37  O4  UNL     1      28.876  10.633  -0.067+17.07 -0.00    -0.390 OA
ATOM     38  O5  UNL     1      27.324   8.314  -0.138 -0.15 -0.00    -0.390 OA
ATOM     39  O6  UNL     1      27.203   9.826   3.180 +0.75 -0.00    -0.383 OA
ATOM     40  O7  UNL     1      20.176   8.591   0.888+78.91 -0.00    -0.362 OA
ATOM     41  O8  UNL     1      17.668   9.581   2.312 -0.21 -0.00    -0.348 OA
ATOM     42  O9  UNL     1      13.592   9.473   2.818 +4.22 -0.00    -0.341 OA
ATOM     43  O10 UNL     1      13.841   6.872   3.967 -0.29 -0.00    -0.340 OA
ATOM     44  O11 UNL     1       8.673   4.505   3.487 -0.13 -0.00    -0.270 OA
ATOM     45  O12 UNL     1       3.293   6.217   6.180 -0.09 -0.00    -0.398 OA
ATOM     46  O13 UNL     1       6.289   7.230   7.932 +0.40 -0.00    -0.391 OA
ATOM     47  O14 UNL     1       5.054   4.063   6.573 -0.47 -0.00    -0.390 OA
ATOM     48  O15 UNL     1       8.303   5.359   7.600 -0.24 -0.00    -0.390 OA
ATOM     49  O16 UNL     1       7.602   7.014   5.445+21.84 -0.00    -0.383 OA
ATOM     50  C30 UNL     1      21.637   8.279   0.012+10.89 +0.00    +0.086 C 
ATOM     51  C31 UNL     1      20.130  10.167   1.616 -0.45 +0.00    +0.085 C 
ATOM     52  C32 UNL     1      16.295   8.987   3.224 -0.45 +0.00    +0.155 C 
ATOM     53  C33 UNL     1      12.728   8.106   3.480 -0.30 +0.00    +0.159 C 
ATOM     54  C34 UNL     1      13.128   5.644   4.960 +0.18 +0.00    +0.089 C 
ATOM     55  H3  UNL     1      24.458   9.517   0.385 +0.15 +0.00    +0.168 HD
ATOM     56  H4  UNL     1      10.226   5.852   6.026 +0.11 +0.00    +0.168 HD
ATOM     57  H5  UNL     1      17.274   6.911   2.878 +0.00 +0.00    +0.143 HD
ATOM     58  H6  UNL     1      16.156   7.073   5.476 +0.08 +0.00    +0.137 HD
ATOM     59  H7  UNL     1      17.373   6.083   4.920+27.80 +0.00    +0.137 HD
ATOM     60  H59 UNL     1      32.124   8.193  -1.511 +0.06 +0.00    +0.209 HD
ATOM     61  H60 UNL     1      31.452  10.324  -0.035 +0.06 +0.00    +0.210 HD
ATOM     62  H61 UNL     1      28.428  11.393   0.388+15.74 +0.00    +0.210 HD
ATOM     63  H62 UNL     1      26.965   9.101  -0.626 +0.24 +0.00    +0.210 HD
ATOM     64  H63 UNL     1      26.585  10.507   3.552 +0.15 +0.00    +0.210 HD
ATOM     65  H64 UNL     1       2.835   6.632   5.405 +0.07 +0.00    +0.209 HD
ATOM     66  H65 UNL     1       5.830   7.960   8.426 +0.11 +0.00    +0.210 HD
ATOM     67  H66 UNL     1       5.040   4.326   5.619 +0.09 +0.00    +0.210 HD
ATOM     68  H67 UNL     1       8.444   4.638   8.268 +0.14 +0.00    +0.210 HD
ATOM     69  H68 UNL     1       8.387   7.257   6.001+14.99 +0.00    +0.210 HD
ENDROOT
TORSDOF 36
TER
