USER    Run = 1
USER    DPF = ligand_109_receptor.dpf
USER  
USER    Estimated Free Energy of Binding    =   +2.22 kcal/mol  [=(1)+(2)+(3)-(4)]
USER    
USER    (1) Final Intermolecular Energy     =   +1.03 kcal/mol
USER        vdW + Hbond + desolv Energy     =   +1.03 kcal/mol
USER        Electrostatic Energy            =   +0.00 kcal/mol
USER    (2) Final Total Internal Energy     =   +1.33 kcal/mol
USER    (3) Torsional Free Energy           =   +1.19 kcal/mol
USER    (4) Unbound System's Energy  [=(2)] =   +1.33 kcal/mol
USER    
USER    
USER    NEWDPF move ligand_109.pdbqt
USER    NEWDPF about 0.000000 0.000000 0.000000
USER    NEWDPF tran0 18.322373 5.823478 3.580307
USER    NEWDPF quaternion0 0.157729 -0.153788 0.951598 -0.214318
USER    NEWDPF axisangle0 0.161481 -0.157447 0.974235 -155.248961
USER    NEWDPF quat0 0.161481 -0.157447 0.974235 -155.248961
USER    NEWDPF dihe0 96.84 7.83 145.36 24.94 174.05 180.00 -0.38 -8.82 -17.02 -163.89 -163.89 -128.08 167.96 114.08 -75.42 -103.03 -63.27 -9.95 63.90 
USER  keepresnum = 1 
USER  
REMARK  19 active torsions:
REMARK  status: ('A' for Active; 'I' for Inactive)
REMARK    1  A    between atoms: C3_3  and  N9_55 
REMARK    2  A    between atoms: C6_6  and  N1_42 
REMARK    3  A    between atoms: C7_7  and  N1_42 
REMARK    4  A    between atoms: C12_12  and  N5_49 
REMARK    5  A    between atoms: C14_14  and  N6_50 
REMARK    6  A    between atoms: C16_16  and  O1_76 
REMARK    7  A    between atoms: C18_18  and  C19_19 
REMARK    8  A    between atoms: C19_19  and  O2_77 
REMARK    9  A    between atoms: C20_20  and  N9_55 
REMARK   10  A    between atoms: C21_21  and  N13_62 
REMARK   11  A    between atoms: C23_23  and  N13_62 
REMARK   12  A    between atoms: C26_26  and  N14_63 
REMARK   13  A    between atoms: C29_29  and  N14_63 
REMARK   14  A    between atoms: C34_34  and  N18_70 
REMARK   15  A    between atoms: C36_36  and  N19_71 
REMARK   16  A    between atoms: C37_37  and  O4_79 
REMARK   17  A    between atoms: C38_38  and  O3_78 
REMARK   18  A    between atoms: C40_40  and  C41_41 
REMARK   19  A    between atoms: C41_41  and  O5_80 
USER                              x       y       z     vdW  Elec       q    Type
USER                           _______ _______ _______ _____ _____    ______ ____
ROOT
ATOM      1  C20 UNL     1      17.988   9.868   2.180 -0.33 +0.00    +0.160 A 
ATOM      2  C21 UNL     1      20.058   9.242   2.827 -0.19 +0.00    +0.160 A 
ATOM      3  C22 UNL     1      19.614   9.611   0.673 +0.78 +0.00    +0.185 A 
ATOM      4  N10 UNL     1      18.808   9.528   3.168 -0.20 -0.00    -0.309 N 
ATOM      5  H10 UNL     1      18.493   9.489   4.138 +0.12 +0.00    +0.171 HD
ATOM      6  N11 UNL     1      20.513   9.261   1.583 +0.53 -0.00    -0.329 N 
ATOM      7  H11 UNL     1      21.475   9.024   1.344 +0.12 +0.00    +0.169 HD
ATOM      8  N12 UNL     1      18.343   9.918   0.904 -0.19 -0.00    -0.329 N 
ATOM      9  H12 UNL     1      17.693  10.172   0.161 +0.13 +0.00    +0.169 HD
ENDROOT
BRANCH   2  10
ATOM     10  N13 UNL     1      20.894   8.902   3.887 +0.31 -0.00    -0.259 NA
ATOM     11  H45 UNL     1      20.668   7.935   4.092 +0.40 +0.00    +0.131 HD
BRANCH  10  12
ATOM     12  C23 UNL     1      22.314   9.192   3.704 -0.18 +0.00    +0.063 C 
ATOM     13  C24 UNL     1      22.930   9.520   5.081 -0.07 +0.00    +0.021 C 
ATOM     14  C25 UNL     1      24.111  10.496   5.016 +1.67 +0.00    +0.021 C 
ATOM     15  C26 UNL     1      24.904  10.410   3.705 +0.62 +0.00    +0.062 C 
ATOM     16  C27 UNL     1      23.983  10.669   2.497 +4.76 +0.00    +0.021 C 
ATOM     17  C28 UNL     1      22.501  10.381   2.758 +0.84 +0.00    +0.021 C 
BRANCH  15  18
ATOM     18  N14 UNL     1      25.509   9.081   3.606 -0.90 -0.00    -0.272 NA
ATOM     19  H46 UNL     1      26.438   8.975   4.006 -0.44 +0.00    +0.129 HD
BRANCH  18  20
ATOM     20  C29 UNL     1      25.516   8.423   2.376 -0.44 +0.00    +0.113 A 
ATOM     21  C32 UNL     1      26.560   7.637   1.832 -0.35 +0.00    +0.117 A 
ATOM     22  C31 UNL     1      26.345   7.097   0.571 -0.28 +0.00    +0.141 A 
ATOM     23  N17 UNL     1      27.801   7.258   2.303 +0.48 -0.00    -0.346 N 
ATOM     24  N16 UNL     1      25.253   7.232  -0.196 -0.17 -0.00    -0.317 N 
ATOM     25  N18 UNL     1      27.486   6.404   0.274 -0.11 -0.00    -0.320 N 
ATOM     26  C30 UNL     1      24.334   7.993   0.425 -0.30 +0.00    +0.181 A 
ATOM     27  H16 UNL     1      25.135   6.815  -1.119 +0.12 +0.00    +0.170 HD
ATOM     28  N15 UNL     1      24.390   8.578   1.636 -0.18 -0.00    -0.321 N 
ATOM     29 CL2  UNL     1      22.881   8.246  -0.444 -0.59 -0.00    -0.045 Cl
ATOM     30  H15 UNL     1      23.604   9.123   1.989 +0.14 +0.00    +0.169 HD
ATOM     31  C33 UNL     1      28.326   6.521   1.350 +0.65 +0.00    +0.185 A 
ATOM     32  H17 UNL     1      28.221   7.500   3.201 -0.29 +0.00    +0.167 HD
BRANCH  25  33
ATOM     33  C34 UNL     1      27.777   5.663  -0.937 -0.25 +0.00    +0.126 C 
ATOM     34  C35 UNL     1      27.774   4.130  -0.774 -0.30 +0.00    +0.060 C 
ATOM     35  C36 UNL     1      29.028   3.613  -1.511 -0.15 +0.00    +0.160 C 
ATOM     36  C37 UNL     1      29.441   4.781  -2.410 -0.10 +0.00    +0.175 C 
ATOM     37  C38 UNL     1      29.138   6.013  -1.556 -0.16 +0.00    +0.172 C 
BRANCH  35  38
ATOM     38  N19 UNL     1      30.068   3.186  -0.591 -0.10 -0.00    -0.227 N 
ATOM     39  N20 UNL     1      31.299   3.738  -0.588 -0.01 -0.00    -0.293 N 
ATOM     40  C39 UNL     1      31.898   3.060   0.396 -0.12 +0.00    +0.137 A 
ATOM     41  H20 UNL     1      31.675   4.479  -1.181 +0.04 +0.00    +0.187 HD
ATOM     42  C40 UNL     1      31.010   2.117   0.938 -0.31 +0.00    +0.067 A 
ATOM     43  N21 UNL     1      29.835   2.186   0.287 -0.20 -0.00    -0.284 N 
ATOM     44  H21 UNL     1      28.991   1.630   0.422 +0.01 +0.00    +0.188 HD
BRANCH  42  45
ATOM     45  C41 UNL     1      31.225   1.153   2.049 -0.34 +0.00    +0.224 C 
BRANCH  45  46
ATOM     46  O5  UNL     1      32.235   1.597   2.956 -0.26 -0.00    -0.395 OA
ATOM     47  H51 UNL     1      31.816   2.334   3.446 -0.17 +0.00    +0.209 HD
ENDBRANCH  45  46
ENDBRANCH  42  45
ENDBRANCH  35  38
BRANCH  36  48
ATOM     48  O4  UNL     1      28.606   4.802  -3.582 +0.07 -0.00    -0.391 OA
ATOM     49  H50 UNL     1      28.722   5.690  -3.978 +0.08 +0.00    +0.210 HD
ENDBRANCH  36  48
BRANCH  37  50
ATOM     50  O3  UNL     1      29.050   7.173  -2.385 -0.51 -0.00    -0.391 OA
ATOM     51  H49 UNL     1      28.321   7.017  -3.016 +0.14 +0.00    +0.210 HD
ENDBRANCH  37  50
ENDBRANCH  25  33
ENDBRANCH  18  20
ENDBRANCH  15  18
ENDBRANCH  10  12
ENDBRANCH   2  10
BRANCH   1  52
ATOM     52  N9  UNL     1      16.666  10.190   2.430 -0.25 -0.00    -0.259 NA
ATOM     53  H44 UNL     1      16.227  10.321   1.524 +0.07 +0.00    +0.131 HD
BRANCH  52  54
ATOM     54  C3  UNL     1      15.878   9.443   3.402 -0.44 +0.00    +0.063 C 
ATOM     55  C2  UNL     1      16.381   8.000   3.578 -0.59 +0.00    +0.022 C 
ATOM     56  C1  UNL     1      15.260   7.016   3.916 +0.97 +0.00    +0.026 C 
ATOM     57  C6  UNL     1      14.247   7.636   4.888 -0.48 +0.00    +0.083 C 
ATOM     58  C5  UNL     1      13.563   8.871   4.269 +0.29 +0.00    +0.026 C 
ATOM     59  C4  UNL     1      14.370   9.529   3.146 +1.80 +0.00    +0.022 C 
BRANCH  57  60
ATOM     60  N1  UNL     1      13.267   6.618   5.243 -0.17 -0.00    -0.370 N 
ATOM     61  H43 UNL     1      13.630   5.780   5.688 +0.11 +0.00    +0.161 HD
BRANCH  60  62
ATOM     62  C7  UNL     1      12.262   6.259   4.351 -0.23 +0.00    +0.134 A 
ATOM     63  C10 UNL     1      10.999   5.708   4.669 -0.23 +0.00    +0.122 A 
ATOM     64  C9  UNL     1      10.160   5.411   3.606 -0.16 +0.00    +0.142 A 
ATOM     65  N4  UNL     1      10.380   5.388   5.858 -0.09 -0.00    -0.346 N 
ATOM     66  N3  UNL     1      10.411   5.573   2.295 -0.04 -0.00    -0.317 N 
ATOM     67  N5  UNL     1       9.011   4.905   4.170 -0.08 -0.00    -0.320 N 
ATOM     68  C8  UNL     1      11.635   6.108   2.121 -0.05 +0.00    +0.182 A 
ATOM     69  H3  UNL     1       9.769   5.327   1.542 +0.00 +0.00    +0.170 HD
ATOM     70  N2  UNL     1      12.552   6.459   3.040 -0.12 -0.00    -0.317 N 
ATOM     71 CL1  UNL     1      12.082   6.382   0.492 -0.61 -0.00    -0.045 Cl
ATOM     72  H2  UNL     1      13.444   6.865   2.759 -0.19 +0.00    +0.170 HD
ATOM     73  C11 UNL     1       9.208   4.889   5.521 -0.20 +0.00    +0.185 A 
ATOM     74  H4  UNL     1      10.751   5.510   6.800 +0.12 +0.00    +0.167 HD
BRANCH  67  75
ATOM     75  C12 UNL     1       7.845   4.504   3.400 -0.18 +0.00    +0.123 C 
ATOM     76  C13 UNL     1       8.066   4.038   1.943 -0.16 +0.00    +0.057 C 
ATOM     77  C14 UNL     1       7.251   4.991   1.059 -0.12 +0.00    +0.131 C 
ATOM     78  C15 UNL     1       6.126   5.468   1.968 -0.19 +0.00    +0.063 C 
ATOM     79  C16 UNL     1       6.791   5.628   3.329 -0.17 +0.00    +0.143 C 
BRANCH  77  80
ATOM     80  N6  UNL     1       8.032   6.093   0.522 -0.11 -0.00    -0.229 N 
ATOM     81  N7  UNL     1       8.648   6.980   1.329 -0.15 -0.00    -0.293 N 
ATOM     82  C17 UNL     1       9.217   7.802   0.443 +0.38 +0.00    +0.137 A 
ATOM     83  H7  UNL     1       8.672   7.013   2.349 +0.11 +0.00    +0.187 HD
ATOM     84  C18 UNL     1       8.921   7.377  -0.864 -0.34 +0.00    +0.067 A 
ATOM     85  N8  UNL     1       8.155   6.272  -0.808 -0.07 -0.00    -0.284 N 
ATOM     86  H8  UNL     1       7.768   5.718  -1.571 -0.41 +0.00    +0.188 HD
BRANCH  84  87
ATOM     87  C19 UNL     1       9.330   7.973  -2.163 -0.31 +0.00    +0.224 C 
BRANCH  87  88
ATOM     88  O2  UNL     1       9.304   7.017  -3.223 -0.14 -0.00    -0.395 OA
ATOM     89  H48 UNL     1       8.435   6.575  -3.136 -0.40 +0.00    +0.209 HD
ENDBRANCH  87  88
ENDBRANCH  84  87
ENDBRANCH  77  80
BRANCH  79  90
ATOM     90  O1  UNL     1       5.803   5.493   4.344 -0.07 -0.00    -0.393 OA
ATOM     91  H47 UNL     1       4.927   5.531   3.907 +0.08 +0.00    +0.210 HD
ENDBRANCH  79  90
ENDBRANCH  67  75
ENDBRANCH  60  62
ENDBRANCH  57  60
ENDBRANCH  52  54
ENDBRANCH   1  52
TORSDOF 19
TER
