USER    Run = 1
USER    DPF = ligand_532_receptor.dpf
USER  
USER    Estimated Free Energy of Binding    =   -6.87 kcal/mol  [=(1)+(2)+(3)-(4)]
USER    Estimated Inhibition Constant, Ki   =    9.16 uM (micromolar)  [Temperature = 298.15 K]
USER    
USER    (1) Final Intermolecular Energy     =   -8.07 kcal/mol
USER        vdW + Hbond + desolv Energy     =   -8.07 kcal/mol
USER        Electrostatic Energy            =   +0.00 kcal/mol
USER    (2) Final Total Internal Energy     =   -3.38 kcal/mol
USER    (3) Torsional Free Energy           =   +1.19 kcal/mol
USER    (4) Unbound System's Energy  [=(2)] =   -3.38 kcal/mol
USER    
USER    
USER    NEWDPF move ligand_532.pdbqt
USER    NEWDPF about 0.000000 0.000000 0.000000
USER    NEWDPF tran0 11.246887 5.633237 2.374022
USER    NEWDPF quaternion0 -0.038126 0.617126 -0.767944 -0.167224
USER    NEWDPF axisangle0 -0.038671 0.625940 -0.778912 -160.747105
USER    NEWDPF quat0 -0.038671 0.625940 -0.778912 -160.747105
USER    NEWDPF dihe0 -180.00 151.53 -180.00 -154.21 -68.90 68.07 -91.43 5.84 180.00 154.26 124.49 28.52 33.91 177.36 -14.24 -144.36 5.80 180.00 59.93 180.00 -180.00 94.81 74.94 -149.44 -2.77 66.41 -134.50 -175.49 151.59 -86.34 
USER  keepresnum = 1 
USER  
REMARK  30 active torsions:
REMARK  status: ('A' for Active; 'I' for Inactive)
REMARK    1  A    between atoms: C4_4  and  N4_43 
REMARK    2  A    between atoms: C8_8  and  N1_40 
REMARK    3  A    between atoms: C9_9  and  C10_10 
REMARK       I    between atoms: C9_9  and  N1_40 
REMARK    4  A    between atoms: C10_10  and  C11_11 
REMARK    5  A    between atoms: C10_10  and  N3_42 
REMARK    6  A    between atoms: C11_11  and  C12_12 
REMARK    7  A    between atoms: C12_12  and  C13_13 
REMARK    8  A    between atoms: C13_13  and  N2_41 
REMARK    9  A    between atoms: C14_14  and  C15_15 
REMARK       I    between atoms: C14_14  and  N4_43 
REMARK   10  A    between atoms: C17_17  and  C25_25 
REMARK   11  A    between atoms: C18_18  and  O4_57 
REMARK   12  A    between atoms: C20_20  and  O3_56 
REMARK   13  A    between atoms: C21_21  and  C22_22 
REMARK   14  A    between atoms: C21_21  and  O3_56 
REMARK   15  A    between atoms: C22_22  and  N5_44 
REMARK   16  A    between atoms: C23_23  and  C24_24 
REMARK   17  A    between atoms: C23_23  and  O4_57 
REMARK   18  A    between atoms: C24_24  and  N6_45 
REMARK       I    between atoms: C25_25  and  N7_46 
REMARK   19  A    between atoms: C26_26  and  N7_46 
REMARK   20  A    between atoms: C27_27  and  S1_60 
REMARK   21  A    between atoms: C28_28  and  N8_47 
REMARK   22  A    between atoms: C32_32  and  C33_33 
REMARK       I    between atoms: C32_32  and  N8_47 
REMARK   23  A    between atoms: C33_33  and  C34_34 
REMARK   24  A    between atoms: C33_33  and  N12_52 
REMARK   25  A    between atoms: C34_34  and  C35_35 
REMARK   26  A    between atoms: C35_35  and  C36_36 
REMARK   27  A    between atoms: C36_36  and  N9_48 
REMARK       I    between atoms: C37_37  and  N10_50 
REMARK       I    between atoms: C37_37  and  N11_51 
REMARK   28  A    between atoms: C38_38  and  C39_39 
REMARK   29  A    between atoms: C38_38  and  S1_60 
REMARK   30  A    between atoms: C39_39  and  N13_53 
USER                              x       y       z     vdW  Elec       q    Type
USER                           _______ _______ _______ _____ _____    ______ ____
ROOT
ATOM      1  C1  UNL     1      17.573   6.862   2.793 -0.06 +0.00    +0.018 C 
ATOM      2  C2  UNL     1      17.407   8.024   2.536 -0.54 -0.00    -0.073 C 
ATOM      3  C3  UNL     1      17.177   9.415   2.239 -0.43 +0.00    +0.070 A 
ATOM      4  C4  UNL     1      15.924   9.993   2.584 -0.39 +0.00    +0.056 A 
ATOM      5  C5  UNL     1      15.751  11.374   2.442 -0.16 +0.00    +0.031 A 
ATOM      6  C6  UNL     1      16.792  12.183   1.988 -0.41 +0.00    +0.005 A 
ATOM      7  C7  UNL     1      18.013  11.617   1.639 -0.57 +0.00    +0.031 A 
ATOM      8  C8  UNL     1      18.210  10.231   1.718 -0.42 +0.00    +0.056 A 
ENDROOT
BRANCH   4   9
ATOM      9  N4  UNL     1      14.889   9.160   3.088 -0.11 -0.00    -0.321 N 
ATOM     10  C14 UNL     1      14.530   8.932   4.403 +0.11 +0.00    +0.259 C 
ATOM     11  O2  UNL     1      15.051   9.430   5.394 +1.83 -0.00    -0.267 OA
ATOM     12  H41 UNL     1      14.315   8.694   2.391 -0.43 +0.00    +0.169 HD
BRANCH  10  13
ATOM     13  C15 UNL     1      13.365   8.016   4.609 -0.39 +0.00    +0.066 A 
ATOM     14  C16 UNL     1      12.758   7.475   3.464 -0.40 +0.00    +0.040 A 
ATOM     15  C17 UNL     1      11.673   6.590   3.572 -0.31 +0.00    +0.066 A 
ATOM     16  C18 UNL     1      11.157   6.284   4.840 -0.26 +0.00    +0.087 A 
ATOM     17  C19 UNL     1      11.769   6.801   5.985 -0.31 +0.00    +0.075 A 
ATOM     18  C20 UNL     1      12.849   7.687   5.872 -0.35 +0.00    +0.087 A 
BRANCH  15  19
ATOM     19  C25 UNL     1      11.122   6.023   2.308 -0.11 +0.00    +0.259 C 
ATOM     20  N7  UNL     1      11.207   6.850   1.207 -0.17 -0.00    -0.322 N 
ATOM     21  H46 UNL     1      11.620   7.768   1.353 +0.12 +0.00    +0.169 HD
ATOM     22  O5  UNL     1      10.615   4.908   2.347 +1.39 -0.00    -0.267 OA
BRANCH  20  23
ATOM     23  C26 UNL     1      10.710   6.632  -0.100 -0.29 +0.00    +0.054 A 
ATOM     24  C27 UNL     1       9.438   6.024  -0.245 -0.20 +0.00    +0.054 A 
ATOM     25  C28 UNL     1       8.924   5.736  -1.533 -0.14 +0.00    +0.053 A 
ATOM     26  C29 UNL     1       9.663   6.097  -2.659 -0.22 +0.00    +0.031 A 
ATOM     27  C30 UNL     1      10.903   6.719  -2.515 -0.30 +0.00    +0.005 A 
ATOM     28  C31 UNL     1      11.425   6.980  -1.247 -0.29 +0.00    +0.031 A 
BRANCH  24  29
ATOM     29  S1  UNL     1       8.477   5.571   1.228 -0.21 -0.00    -0.124 SA
BRANCH  29  30
ATOM     30  C38 UNL     1       7.992   7.244   1.797 -0.35 +0.00    +0.109 C 
BRANCH  30  31
ATOM     31  C39 UNL     1       7.760   7.347   3.311 +0.20 +0.00    +0.277 C 
BRANCH  31  32
ATOM     32  N13 UNL     1       7.323   6.089   3.915 -0.19 +0.00    +0.079 N 
ATOM     33  H54 UNL     1       7.314   5.359   3.204 +0.14 +0.00    +0.312 HD
ATOM     34  H55 UNL     1       8.011   5.779   4.608 +0.17 +0.00    +0.312 HD
ENDBRANCH  31  32
ENDBRANCH  30  31
ENDBRANCH  29  30
ENDBRANCH  24  29
BRANCH  25  35
ATOM     35  N8  UNL     1       7.674   5.094  -1.620 +0.47 -0.00    -0.324 N 
ATOM     36  C32 UNL     1       7.356   3.822  -2.054 -0.03 +0.00    +0.255 C 
ATOM     37  O6  UNL     1       8.140   2.974  -2.464 -0.15 -0.00    -0.271 OA
ATOM     38  H47 UNL     1       6.873   5.617  -1.263 -0.52 +0.00    +0.169 HD
BRANCH  36  39
ATOM     39  C33 UNL     1       5.822   3.595  -2.036 -0.02 +0.00    +0.309 C 
BRANCH  39  40
ATOM     40  C34 UNL     1       5.446   2.116  -1.875 -0.09 +0.00    +0.047 C 
BRANCH  40  41
ATOM     41  C35 UNL     1       4.245   1.861  -0.952 -0.12 +0.00    +0.022 C 
BRANCH  41  42
ATOM     42  C36 UNL     1       4.647   1.863   0.524 -0.13 +0.00    +0.121 C 
BRANCH  42  43
ATOM     43  N9  UNL     1       4.048   3.026   1.174 -0.01 -0.00    -0.372 N 
ATOM     44  C37 UNL     1       4.830   3.899   1.686 -0.11 +0.00    +0.121 C 
ATOM     45  N10 UNL     1       6.179   3.932   1.740 -0.02 -0.00    -0.279 NA
ATOM     46  N11 UNL     1       4.318   4.998   2.279 -0.15 -0.00    -0.279 NA
ATOM     47  H48 UNL     1       6.626   3.047   1.537 +0.05 +0.00    +0.126 HD
ATOM     48  H49 UNL     1       6.516   4.309   2.618 +0.06 +0.00    +0.126 HD
ATOM     49  H50 UNL     1       4.781   5.845   1.974 +0.03 +0.00    +0.126 HD
ATOM     50  H51 UNL     1       3.321   5.053   2.090 +0.01 +0.00    +0.126 HD
ATOM     51  H9  UNL     1       3.035   3.138   1.219 +0.03 +0.00    +0.161 HD
ENDBRANCH  42  43
ENDBRANCH  41  42
ENDBRANCH  40  41
ENDBRANCH  39  40
BRANCH  39  52
ATOM     52  N12 UNL     1       5.168   4.474  -1.026 -0.14 +0.00    +0.092 N 
ATOM     53  H52 UNL     1       5.855   4.657  -0.289 +0.06 +0.00    +0.313 HD
ATOM     54  H53 UNL     1       5.018   5.393  -1.454 -0.41 +0.00    +0.313 HD
ENDBRANCH  39  52
ENDBRANCH  36  39
ENDBRANCH  25  35
ENDBRANCH  20  23
ENDBRANCH  15  19
BRANCH  16  55
ATOM     55  O4  UNL     1      10.092   5.427   4.947 -0.11 -0.00    -0.348 OA
BRANCH  55  56
ATOM     56  C23 UNL     1      10.463   4.054   5.161 -0.33 +0.00    +0.205 C 
BRANCH  56  57
ATOM     57  C24 UNL     1      10.217   3.594   6.607 -0.33 +0.00    +0.293 C 
BRANCH  57  58
ATOM     58  N6  UNL     1       8.801   3.537   6.969 -0.45 +0.00    +0.080 N 
ATOM     59  H44 UNL     1       8.539   2.572   7.182 +0.05 +0.00    +0.312 HD
ATOM     60  H45 UNL     1       8.627   4.073   7.816 +0.22 +0.00    +0.312 HD
ENDBRANCH  57  58
ENDBRANCH  56  57
ENDBRANCH  55  56
ENDBRANCH  16  55
BRANCH  18  61
ATOM     61  O3  UNL     1      13.444   8.193   6.999 -0.18 -0.00    -0.348 OA
BRANCH  61  62
ATOM     62  C21 UNL     1      12.500   8.775   7.916 -0.27 +0.00    +0.205 C 
BRANCH  62  63
ATOM     63  C22 UNL     1      12.794  10.276   8.040 -0.01 +0.00    +0.293 C 
BRANCH  63  64
ATOM     64  N5  UNL     1      13.324  10.615   9.361 -0.18 +0.00    +0.080 N 
ATOM     65  H42 UNL     1      13.949  11.422   9.279 -0.18 +0.00    +0.312 HD
ATOM     66  H43 UNL     1      13.907   9.851   9.703 -0.24 +0.00    +0.312 HD
ENDBRANCH  63  64
ENDBRANCH  62  63
ENDBRANCH  61  62
ENDBRANCH  18  61
ENDBRANCH  10  13
ENDBRANCH   4   9
BRANCH   8  67
ATOM     67  N1  UNL     1      19.487   9.781   1.298 -0.08 -0.00    -0.324 N 
ATOM     68  C9  UNL     1      20.686  10.026   1.952 -0.31 +0.00    +0.255 C 
ATOM     69  O1  UNL     1      20.814  10.572   3.045 -0.01 -0.00    -0.271 OA
ATOM     70  H36 UNL     1      19.490   8.961   0.704 +0.32 +0.00    +0.169 HD
BRANCH  68  71
ATOM     71  C10 UNL     1      21.911   9.451   1.196 -0.21 +0.00    +0.309 C 
BRANCH  71  72
ATOM     72  C11 UNL     1      22.703   8.420   2.014 -0.36 +0.00    +0.047 C 
BRANCH  72  73
ATOM     73  C12 UNL     1      24.229   8.576   2.099 -0.51 +0.00    +0.032 C 
BRANCH  73  74
ATOM     74  C13 UNL     1      25.089   7.368   1.729 -0.27 +0.00    +0.267 C 
BRANCH  74  75
ATOM     75  N2  UNL     1      26.394   7.374   2.374 -0.39 +0.00    +0.078 N 
ATOM     76  H37 UNL     1      27.112   7.161   1.672 +0.22 +0.00    +0.312 HD
ATOM     77  H38 UNL     1      26.614   8.311   2.708 +0.19 +0.00    +0.312 HD
ENDBRANCH  74  75
ENDBRANCH  73  74
ENDBRANCH  72  73
ENDBRANCH  71  72
BRANCH  71  78
ATOM     78  N3  UNL     1      21.500   8.911  -0.119 +0.11 +0.00    +0.092 N 
ATOM     79  H39 UNL     1      20.630   9.383  -0.389 +0.25 +0.00    +0.313 HD
ATOM     80  H40 UNL     1      22.155   9.274  -0.818 +0.26 +0.00    +0.313 HD
ENDBRANCH  71  78
ENDBRANCH  68  71
ENDBRANCH   8  67
TORSDOF 30
TER
