USER    Run = 1
USER    DPF = ligand_9_receptor.dpf
USER  
USER    Estimated Free Energy of Binding    =  +3.21e+004 kcal/mol  [=(1)+(2)+(3)-(4)]
USER    
USER    (1) Final Intermolecular Energy     =  +3.21e+004 kcal/mol
USER        vdW + Hbond + desolv Energy     =  +3.21e+004 kcal/mol
USER        Electrostatic Energy            =   +0.00 kcal/mol
USER    (2) Final Total Internal Energy     =   +8.63 kcal/mol
USER    (3) Torsional Free Energy           =   +1.19 kcal/mol
USER    (4) Unbound System's Energy  [=(2)] =   +8.63 kcal/mol
USER    
USER    
USER    NEWDPF move ligand_9.pdbqt
USER    NEWDPF about 0.000000 0.000000 0.000000
USER    NEWDPF tran0 19.320643 8.518947 5.165416
USER    NEWDPF quaternion0 0.765889 -0.437779 0.273913 -0.383060
USER    NEWDPF axisangle0 0.829132 -0.473929 0.296531 -134.953334
USER    NEWDPF quat0 0.829132 -0.473929 0.296531 -134.953334
USER    NEWDPF dihe0 -36.40 168.89 180.00 87.54 64.30 -178.04 -33.71 -15.68 160.32 154.04 -0.40 -87.78 67.13 -110.80 -120.13 103.26 40.71 -57.19 164.81 144.87 150.83 -61.21 -124.32 95.66 
USER  keepresnum = 1 
USER  
REMARK  24 active torsions:
REMARK  status: ('A' for Active; 'I' for Inactive)
REMARK    1  A    between atoms: O1_1  and  C1_17 
REMARK    2  A    between atoms: O1_1  and  C75_91 
REMARK    3  A    between atoms: O2_2  and  C16_32 
REMARK    4  A    between atoms: O2_2  and  C17_33 
REMARK    5  A    between atoms: O3_3  and  C20_36 
REMARK    6  A    between atoms: O4_4  and  C23_39 
REMARK    7  A    between atoms: O4_4  and  C24_40 
REMARK    8  A    between atoms: O5_5  and  C27_43 
REMARK    9  A    between atoms: O6_6  and  C34_50 
REMARK   10  A    between atoms: O6_6  and  C35_51 
REMARK   11  A    between atoms: O7_7  and  C38_54 
REMARK   12  A    between atoms: O8_8  and  C41_57 
REMARK   13  A    between atoms: O8_8  and  C42_58 
REMARK   14  A    between atoms: O9_9  and  C45_61 
REMARK   15  A    between atoms: O10_10  and  C52_68 
REMARK   16  A    between atoms: O10_10  and  C53_69 
REMARK   17  A    between atoms: O11_11  and  C56_72 
REMARK   18  A    between atoms: O12_12  and  C59_75 
REMARK   19  A    between atoms: O12_12  and  C60_76 
REMARK   20  A    between atoms: O13_13  and  C63_79 
REMARK   21  A    between atoms: O14_14  and  C68_84 
REMARK   22  A    between atoms: O14_14  and  C69_85 
REMARK   23  A    between atoms: O15_15  and  C72_88 
REMARK   24  A    between atoms: O16_16  and  C78_94 
USER                              x       y       z     vdW  Elec       q    Type
USER                           _______ _______ _______ _____ _____    ______ ____
ROOT
ATOM      1  C1  UNL     1      15.179  10.147   0.026 +6.49 +0.00    +0.111 C 
ATOM      2  C2  UNL     1      14.953   9.602   1.310+99.98 +0.00    +0.056 C 
ATOM      3  C3  UNL     1      16.100   9.722   2.094 -0.42 +0.00    +0.025 A 
ATOM      4  C4  UNL     1      17.283  10.461   1.720 -0.47 +0.00    +0.025 A 
ATOM      5  C5  UNL     1      18.264  10.255   2.666 -0.35 +0.00    +0.119 A 
ATOM      6  C6  UNL     1      20.522  10.344   3.489 +7.82 +0.00    +0.119 A 
ATOM      7  C7  UNL     1      21.692   9.259   5.063 +8.58 +0.00    +0.119 A 
ATOM      8  C8  UNL     1      21.226   7.510   6.648+99.99 +0.00    +0.119 A 
ATOM      9  C9  UNL     1      19.301   6.292   7.237+42.00 +0.00    +0.119 A 
ATOM     10  C10 UNL     1      17.003   6.307   6.517+85.84 +0.00    +0.119 A 
ATOM     11  C11 UNL     1      15.829   7.409   4.958 +0.08 +0.00    +0.119 A 
ATOM     12  C12 UNL     1      16.338   9.051   3.274 -0.41 +0.00    +0.119 A 
ATOM     13  C13 UNL     1      14.860   6.822   5.878 +0.01 +0.00    +0.025 A 
ATOM     14  C14 UNL     1      15.593   6.133   6.849 +6.24 +0.00    +0.025 A 
ATOM     15  C15 UNL     1      14.982   5.582   7.962 +0.82 +0.00    +0.056 A 
ATOM     16  C16 UNL     1      13.629   5.867   8.152 -0.51 +0.00    +0.111 A 
ATOM     17  C23 UNL     1      12.887   6.562   7.170 -0.37 +0.00    +0.111 A 
ATOM     18  C30 UNL     1      13.491   6.985   5.982 -0.41 +0.00    +0.056 A 
ATOM     19  C31 UNL     1      20.376   5.822   7.962 +2.62 +0.00    +0.025 A 
ATOM     20  C32 UNL     1      21.555   6.576   7.607+24.18 +0.00    +0.025 A 
ATOM     21  C33 UNL     1      22.831   6.352   8.126+52.38 +0.00    +0.056 A 
ATOM     22  C34 UNL     1      22.826   5.242   8.998+14.39 +0.00    +0.111 A 
ATOM     23  C41 UNL     1      21.635   4.519   9.399+99.99 +0.00    +0.111 A 
ATOM     24  C48 UNL     1      20.348   4.772   8.883+99.99 +0.00    +0.056 A 
ATOM     25  C49 UNL     1      22.574  10.286   4.516 -0.02 +0.00    +0.025 A 
ATOM     26  C50 UNL     1      21.844  10.959   3.529 +1.71 +0.00    +0.025 A 
ATOM     27  C51 UNL     1      22.377  12.036   2.844+99.99 +0.00    +0.056 A 
ATOM     28  C52 UNL     1      23.655  12.460   3.208+99.99 +0.00    +0.111 A 
ATOM     29  C59 UNL     1      24.418  11.747   4.165 +9.75 +0.00    +0.111 A 
ATOM     30  C66 UNL     1      23.867  10.661   4.843 +0.46 +0.00    +0.056 A 
ATOM     31  C67 UNL     1      17.445  11.156   0.522 -0.45 +0.00    +0.056 C 
ATOM     32  C68 UNL     1      16.365  10.887  -0.350 +9.79 +0.00    +0.111 C 
ATOM     33  N1  UNL     1      19.540  10.777   2.644 -0.10 -0.00    -0.327 N 
ATOM     34  H1  UNL     1      19.758  11.513   1.972 +0.14 +0.00    +0.169 HD
ATOM     35  N2  UNL     1      20.483   9.335   4.417+14.57 -0.00    -0.327 N 
ATOM     36  H2  UNL     1      19.680   8.733   4.600 +0.13 +0.00    +0.169 HD
ATOM     37  N3  UNL     1      22.084   8.420   6.068+99.99 -0.00    -0.327 N 
ATOM     38  H3  UNL     1      23.047   8.470   6.401 +0.39 +0.00    +0.169 HD
ATOM     39  N4  UNL     1      19.845   7.305   6.414+99.99 -0.00    -0.327 N 
ATOM     40  N5  UNL     1      17.995   5.865   7.345+45.10 -0.00    -0.327 N 
ATOM     41  H5  UNL     1      17.760   5.191   8.074+99.99 +0.00    +0.169 HD
ATOM     42  N6  UNL     1      17.093   7.069   5.376 +4.47 -0.00    -0.327 N 
ATOM     43  H6  UNL     1      17.961   7.338   4.913 +0.19 +0.00    +0.169 HD
ATOM     44  N7  UNL     1      15.446   8.247   3.949 -0.28 -0.00    -0.327 N 
ATOM     45  H7  UNL     1      14.462   8.278   3.685 +0.09 +0.00    +0.169 HD
ATOM     46  N8  UNL     1      17.681   9.358   3.591 -0.24 -0.00    -0.327 N 
ATOM     47  H49 UNL     1      19.308   7.822   5.720 +2.60 +0.00    +0.169 HD
ATOM     48  H50 UNL     1      18.195   8.927   4.358 +0.11 +0.00    +0.169 HD
ENDROOT
BRANCH   1  49
ATOM     49  O1  UNL     1      14.236   9.897  -0.966+20.20 -0.00    -0.308 OA
BRANCH  49  50
ATOM     50  C75 UNL     1      13.604   8.666  -0.932+99.99 +0.00    +0.076 A 
ATOM     51  C76 UNL     1      14.217   7.698  -0.126 +1.86 +0.00    +0.040 A 
ATOM     52  C77 UNL     1      13.678   6.412  -0.025 +2.31 +0.00    +0.039 A 
ATOM     53  C78 UNL     1      12.527   6.096  -0.738 -0.34 +0.00    +0.065 A 
ATOM     54  C79 UNL     1      11.900   7.047  -1.536 -0.14 +0.00    +0.039 A 
ATOM     55  C80 UNL     1      12.436   8.333  -1.627+99.99 +0.00    +0.040 A 
BRANCH  53  56
ATOM     56  O16 UNL     1      12.030   4.825  -0.650 -0.05 -0.00    -0.361 OA
ATOM     57  H8  UNL     1      11.070   4.920  -0.786 +0.09 +0.00    +0.217 HD
ENDBRANCH  53  56
ENDBRANCH  49  50
ENDBRANCH   1  49
BRANCH  32  58
ATOM     58  O14 UNL     1      16.475  11.295  -1.674+99.99 -0.00    -0.308 OA
BRANCH  58  59
ATOM     59  C69 UNL     1      17.747  11.586  -2.135+99.99 +0.00    +0.076 A 
ATOM     60  C70 UNL     1      18.640  12.066  -1.170+34.82 +0.00    +0.040 A 
ATOM     61  C71 UNL     1      19.958  12.382  -1.515+10.92 +0.00    +0.039 A 
ATOM     62  C72 UNL     1      20.381  12.210  -2.828+99.99 +0.00    +0.065 A 
ATOM     63  C73 UNL     1      19.504  11.742  -3.801+99.99 +0.00    +0.039 A 
ATOM     64  C74 UNL     1      18.188  11.437  -3.455+28.71 +0.00    +0.040 A 
BRANCH  62  65
ATOM     65  O15 UNL     1      21.681  12.496  -3.140+99.99 -0.00    -0.361 OA
ATOM     66  H7  UNL     1      21.997  13.057  -2.408 +0.52 +0.00    +0.217 HD
ENDBRANCH  62  65
ENDBRANCH  58  59
ENDBRANCH  32  58
BRANCH  17  67
ATOM     67  O4  UNL     1      11.575   6.899   7.432 +0.12 -0.00    -0.308 OA
BRANCH  67  68
ATOM     68  C24 UNL     1      10.602   6.001   7.028 -0.13 +0.00    +0.076 A 
ATOM     69  C25 UNL     1       9.281   6.397   7.273 +1.66 +0.00    +0.040 A 
ATOM     70  C26 UNL     1       8.212   5.566   6.924 -0.20 +0.00    +0.039 A 
ATOM     71  C27 UNL     1       8.471   4.332   6.338 -0.37 +0.00    +0.065 A 
ATOM     72  C28 UNL     1       9.775   3.926   6.078 -0.41 +0.00    +0.039 A 
ATOM     73  C29 UNL     1      10.838   4.764   6.417 -0.36 +0.00    +0.040 A 
BRANCH  71  74
ATOM     74  O5  UNL     1       7.415   3.517   6.035 +0.06 -0.00    -0.361 OA
ATOM     75  H2  UNL     1       6.623   4.064   6.189 +0.07 +0.00    +0.217 HD
ENDBRANCH  71  74
ENDBRANCH  67  68
ENDBRANCH  17  67
BRANCH  28  76
ATOM     76  O10 UNL     1      24.151  13.622   2.649+99.99 -0.00    -0.308 OA
BRANCH  76  77
ATOM     77  C53 UNL     1      25.362  13.516   1.992+23.59 +0.00    +0.076 A 
ATOM     78  C54 UNL     1      26.588  13.967   2.493+99.99 +0.00    +0.040 A 
ATOM     79  C55 UNL     1      27.753  13.825   1.738+99.99 +0.00    +0.039 A 
ATOM     80  C56 UNL     1      27.688  13.233   0.480+22.33 +0.00    +0.065 A 
ATOM     81  C57 UNL     1      26.478  12.782  -0.035+32.14 +0.00    +0.039 A 
ATOM     82  C58 UNL     1      25.313  12.929   0.723 +5.92 +0.00    +0.040 A 
BRANCH  80  83
ATOM     83  O11 UNL     1      28.815  13.088  -0.281+27.02 -0.00    -0.361 OA
ATOM     84  H5  UNL     1      29.228  12.260   0.024 -0.26 +0.00    +0.217 HD
ENDBRANCH  80  83
ENDBRANCH  76  77
ENDBRANCH  28  76
BRANCH  16  85
ATOM     85  O2  UNL     1      13.018   5.544   9.349 +0.31 -0.00    -0.308 OA
BRANCH  85  86
ATOM     86  C17 UNL     1      11.759   4.974   9.279 -0.08 +0.00    +0.076 A 
ATOM     87  C18 UNL     1      11.460   3.723   8.728 +2.42 +0.00    +0.040 A 
ATOM     88  C19 UNL     1      10.144   3.262   8.688 +4.72 +0.00    +0.039 A 
ATOM     89  C20 UNL     1       9.124   4.048   9.215 +2.64 +0.00    +0.065 A 
ATOM     90  C21 UNL     1       9.402   5.284   9.788+27.43 +0.00    +0.039 A 
ATOM     91  C22 UNL     1      10.721   5.746   9.815+11.05 +0.00    +0.040 A 
BRANCH  89  92
ATOM     92  O3  UNL     1       7.824   3.626   9.164 +5.39 -0.00    -0.361 OA
ATOM     93  H1  UNL     1       7.824   2.757   9.605 +0.28 +0.00    +0.217 HD
ENDBRANCH  89  92
ENDBRANCH  85  86
ENDBRANCH  16  85
BRANCH  29  94
ATOM     94  O12 UNL     1      25.686  12.151   4.532+99.99 -0.00    -0.308 OA
BRANCH  94  95
ATOM     95  C60 UNL     1      26.683  11.205   4.451+99.99 +0.00    +0.076 A 
ATOM     96  C61 UNL     1      27.800  11.177   5.289+99.99 +0.00    +0.040 A 
ATOM     97  C62 UNL     1      28.778  10.195   5.112+99.99 +0.00    +0.039 A 
ATOM     98  C63 UNL     1      28.634   9.256   4.097+99.99 +0.00    +0.065 A 
ATOM     99  C64 UNL     1      27.532   9.286   3.244 +2.52 +0.00    +0.039 A 
ATOM    100  C65 UNL     1      26.559  10.270   3.420 +4.19 +0.00    +0.040 A 
BRANCH  98 101
ATOM    101  O13 UNL     1      29.599   8.297   3.956 +3.39 -0.00    -0.361 OA
ATOM    102  H6  UNL     1      30.323   8.541   4.552 +3.80 +0.00    +0.217 HD
ENDBRANCH  98 101
ENDBRANCH  94  95
ENDBRANCH  29  94
BRANCH  23 103
ATOM    103  O8  UNL     1      21.741   3.451  10.281+99.99 -0.00    -0.308 OA
BRANCH 103 104
ATOM    104  C42 UNL     1      22.613   2.444   9.931+79.02 +0.00    +0.076 A 
ATOM    105  C43 UNL     1      23.914   2.569  10.422+99.99 +0.00    +0.040 A 
ATOM    106  C44 UNL     1      24.880   1.612  10.108 +9.60 +0.00    +0.039 A 
ATOM    107  C45 UNL     1      24.534   0.537   9.289 +0.70 +0.00    +0.065 A 
ATOM    108  C46 UNL     1      23.247   0.413   8.779 +8.06 +0.00    +0.039 A 
ATOM    109  C47 UNL     1      22.280   1.372   9.099+20.18 +0.00    +0.040 A 
BRANCH 107 110
ATOM    110  O9  UNL     1      25.456  -0.421   8.971+17.58 -0.00    -0.361 OA
ATOM    111  H4  UNL     1      26.328  -0.008   9.049 +1.82 +0.00    +0.217 HD
ENDBRANCH 107 110
ENDBRANCH 103 104
ENDBRANCH  23 103
BRANCH  22 112
ATOM    112  O6  UNL     1      24.059   4.801   9.462+99.99 -0.00    -0.308 OA
BRANCH 112 113
ATOM    113  C35 UNL     1      25.155   5.559   9.098+99.99 +0.00    +0.076 A 
ATOM    114  C36 UNL     1      26.010   6.213   9.991+99.99 +0.00    +0.040 A 
ATOM    115  C37 UNL     1      27.100   6.943   9.516+99.99 +0.00    +0.039 A 
ATOM    116  C38 UNL     1      27.334   7.016   8.146+99.99 +0.00    +0.065 A 
ATOM    117  C39 UNL     1      26.495   6.371   7.244+37.65 +0.00    +0.039 A 
ATOM    118  C40 UNL     1      25.406   5.638   7.723+92.06 +0.00    +0.040 A 
BRANCH 116 119
ATOM    119  O7  UNL     1      28.399   7.722   7.657+69.85 -0.00    -0.361 OA
ATOM    120  H3  UNL     1      28.725   8.250   8.407 +2.81 +0.00    +0.217 HD
ENDBRANCH 116 119
ENDBRANCH 112 113
ENDBRANCH  22 112
TORSDOF 24
TER
