USER    Run = 1
USER    DPF = ligand_407_receptor.dpf
USER  
USER    Estimated Free Energy of Binding    =  +27.85 kcal/mol  [=(1)+(2)+(3)-(4)]
USER    
USER    (1) Final Intermolecular Energy     =  +26.66 kcal/mol
USER        vdW + Hbond + desolv Energy     =  +26.66 kcal/mol
USER        Electrostatic Energy            =   +0.00 kcal/mol
USER    (2) Final Total Internal Energy     =   +1.01 kcal/mol
USER    (3) Torsional Free Energy           =   +1.19 kcal/mol
USER    (4) Unbound System's Energy  [=(2)] =   +1.01 kcal/mol
USER    
USER    
USER    NEWDPF move ligand_407.pdbqt
USER    NEWDPF about 0.000000 0.000000 0.000000
USER    NEWDPF tran0 15.125271 12.544913 4.348408
USER    NEWDPF quaternion0 -0.077490 -0.271337 -0.348909 0.893663
USER    NEWDPF axisangle0 -0.172684 -0.604667 -0.777533 53.325534
USER    NEWDPF quat0 -0.172684 -0.604667 -0.777533 53.325534
USER    NEWDPF dihe0 -44.01 158.75 -116.25 -178.28 170.25 -168.59 -14.69 -47.23 -57.79 -145.09 -27.60 18.86 -112.84 51.84 133.87 177.76 -163.72 180.00 -159.77 96.25 
USER  keepresnum = 1 
USER  
REMARK  20 active torsions:
REMARK  status: ('A' for Active; 'I' for Inactive)
REMARK    1  A    between atoms: C2_2  and  C10_10 
REMARK    2  A    between atoms: C3_3  and  C4_4 
REMARK    3  A    between atoms: C7_7  and  O1_45 
REMARK       I    between atoms: C10_10  and  N1_57 
REMARK    4  A    between atoms: C11_11  and  N1_57 
REMARK    5  A    between atoms: C13_13  and  C16_16 
REMARK       I    between atoms: C16_16  and  N3_60 
REMARK    6  A    between atoms: C17_17  and  C18_18 
REMARK    7  A    between atoms: C17_17  and  C21_21 
REMARK    8  A    between atoms: C17_17  and  N3_60 
REMARK    9  A    between atoms: C18_18  and  C19_19 
REMARK       I    between atoms: C21_21  and  N7_66 
REMARK   10  A    between atoms: C22_22  and  N7_66 
REMARK   11  A    between atoms: C25_25  and  C28_28 
REMARK       I    between atoms: C28_28  and  N8_67 
REMARK   12  A    between atoms: C29_29  and  N8_67 
REMARK   13  A    between atoms: C30_30  and  O12_56 
REMARK   14  A    between atoms: C31_31  and  O11_55 
REMARK   15  A    between atoms: C32_32  and  C35_35 
REMARK       I    between atoms: C35_35  and  N9_68 
REMARK   16  A    between atoms: C36_36  and  N9_68 
REMARK   17  A    between atoms: C37_37  and  O10_54 
REMARK   18  A    between atoms: C38_38  and  O9_53 
REMARK   19  A    between atoms: C39_39  and  C42_42 
REMARK   20  A    between atoms: C42_42  and  O8_52 
USER                              x       y       z     vdW  Elec       q    Type
USER                           _______ _______ _______ _____ _____    ______ ____
ROOT
ATOM      1  C21 UNL     1      19.808  10.109   2.835 -0.05 +0.00    +0.245 C 
ATOM      2  O4  UNL     1      19.828   9.675   3.984 +6.06 -0.00    -0.271 OA
ATOM      3  N7  UNL     1      18.692  10.182   2.012 -0.19 -0.00    -0.325 N 
ATOM      4  H37 UNL     1      18.841  10.647   1.114 +0.15 +0.00    +0.169 HD
ENDROOT
BRANCH   3   5
ATOM      5  C22 UNL     1      17.379   9.767   2.290 -0.45 +0.00    +0.034 A 
ATOM      6  C23 UNL     1      17.062   8.431   2.009 -0.49 +0.00    +0.030 A 
ATOM      7  C24 UNL     1      15.776   7.938   2.251 +1.54 +0.00    +0.019 A 
ATOM      8  C25 UNL     1      14.787   8.779   2.770 +0.39 +0.00    +0.032 A 
ATOM      9  C26 UNL     1      15.105  10.106   3.076 +1.00 +0.00    +0.019 A 
ATOM     10  C27 UNL     1      16.394  10.597   2.830 -0.41 +0.00    +0.030 A 
BRANCH   8  11
ATOM     11  C28 UNL     1      13.426   8.215   3.007 +0.76 +0.00    +0.256 C 
ATOM     12  O5  UNL     1      12.460   8.962   2.899 +1.26 -0.00    -0.267 OA
ATOM     13  N8  UNL     1      13.399   6.882   3.364 -0.19 -0.00    -0.320 N 
ATOM     14  H38 UNL     1      14.284   6.420   3.540 -0.29 +0.00    +0.169 HD
BRANCH  13  15
ATOM     15  C29 UNL     1      12.268   6.086   3.652 +0.24 +0.00    +0.071 A 
ATOM     16  C30 UNL     1      11.018   6.549   3.210 -0.25 +0.00    +0.129 A 
ATOM     17  C31 UNL     1       9.854   5.781   3.370 -0.19 +0.00    +0.117 A 
ATOM     18  C32 UNL     1       9.900   4.561   4.052 -0.24 +0.00    +0.068 A 
ATOM     19  C33 UNL     1      11.145   4.127   4.539 -0.11 +0.00    +0.022 A 
ATOM     20  C34 UNL     1      12.316   4.875   4.337 +8.50 +0.00    +0.034 A 
BRANCH  16  21
ATOM     21  O12 UNL     1      10.921   7.762   2.557 -0.15 -0.00    -0.351 OA
ATOM     22  C44 UNL     1       9.802   8.495   3.073 +0.25 +0.00    +0.210 C 
ENDBRANCH  16  21
BRANCH  17  23
ATOM     23  O11 UNL     1       8.685   6.258   2.832 -0.10 -0.00    -0.357 OA
ATOM     24  H33 UNL     1       8.032   5.533   2.906 +0.11 +0.00    +0.217 HD
ENDBRANCH  17  23
BRANCH  18  25
ATOM     25  C35 UNL     1       8.714   3.673   4.298 -0.23 +0.00    +0.259 C 
ATOM     26  O6  UNL     1       8.488   3.306   5.448 -0.28 -0.00    -0.267 OA
ATOM     27  N9  UNL     1       7.960   3.341   3.194 -0.11 -0.00    -0.320 N 
ATOM     28  H39 UNL     1       8.264   3.721   2.296 +0.07 +0.00    +0.169 HD
BRANCH  27  29
ATOM     29  C36 UNL     1       6.813   2.522   3.115 -0.24 +0.00    +0.071 A 
ATOM     30  C37 UNL     1       6.458   2.028   1.841 -0.17 +0.00    +0.129 A 
ATOM     31  C38 UNL     1       5.352   1.175   1.695 -0.07 +0.00    +0.118 A 
ATOM     32  C39 UNL     1       4.569   0.847   2.815 -0.25 +0.00    +0.073 A 
ATOM     33  C40 UNL     1       4.910   1.363   4.071 -0.30 +0.00    +0.023 A 
ATOM     34  C41 UNL     1       6.027   2.191   4.220 +0.94 +0.00    +0.034 A 
BRANCH  30  35
ATOM     35  O10 UNL     1       7.297   2.390   0.808 -0.06 -0.00    -0.351 OA
ATOM     36  C43 UNL     1       8.093   1.322   0.298 -0.16 +0.00    +0.210 C 
ENDBRANCH  30  35
BRANCH  31  37
ATOM     37  O9  UNL     1       5.076   0.660   0.450 +0.02 -0.00    -0.357 OA
ATOM     38  H32 UNL     1       5.734   0.994  -0.196 +0.06 +0.00    +0.217 HD
ENDBRANCH  31  37
BRANCH  32  39
ATOM     39  C42 UNL     1       3.401  -0.049   2.660 -0.13 +0.00    +0.179 C 
ATOM     40  O7  UNL     1       2.908  -0.350   1.585 +0.21 -0.00    -0.646 OA
BRANCH  39  41
ATOM     41  O8  UNL     1       2.911  -0.515   3.819 -0.06 -0.00    -0.773 OA
ATOM     42  H31 UNL     1       3.571  -0.255   4.496 +0.07 +0.00    +0.167 HD
ENDBRANCH  39  41
ENDBRANCH  32  39
ENDBRANCH  27  29
ENDBRANCH  18  25
ENDBRANCH  13  15
ENDBRANCH   8  11
ENDBRANCH   3   5
BRANCH   1  43
ATOM     43  C17 UNL     1      21.072  10.676   2.153 -0.06 +0.00    +0.183 C 
BRANCH  43  44
ATOM     44  C18 UNL     1      20.700  11.826   1.210 +0.54 +0.00    +0.095 C 
BRANCH  44  45
ATOM     45  C19 UNL     1      19.406  12.461   1.582 -0.66 +0.00    +0.046 A 
ATOM     46  C20 UNL     1      18.917  12.812   2.855 +0.65 +0.00    +0.135 A 
ATOM     47  N6  UNL     1      17.703  13.357   2.742 -0.31 -0.00    -0.296 N 
ATOM     48  N5  UNL     1      17.515  13.311   1.413 -0.02 -0.00    -0.243 N 
ATOM     49  H6  UNL     1      17.084  13.712   3.471 +0.18 +0.00    +0.187 HD
ATOM     50  N4  UNL     1      18.492  12.782   0.656 -0.35 -0.00    -0.289 N 
ATOM     51  H36 UNL     1      16.659  13.665   0.992 +0.02 +0.00    +0.208 HD
ATOM     52  H4  UNL     1      18.527  12.656  -0.356 +0.19 +0.00    +0.188 HD
ENDBRANCH  44  45
ENDBRANCH  43  44
BRANCH  43  53
ATOM     53  N3  UNL     1      21.748   9.589   1.439 -0.18 -0.00    -0.342 N 
ATOM     54  C16 UNL     1      21.565   9.343   0.096 +0.03 +0.00    +0.268 C 
ATOM     55  O3  UNL     1      20.818  10.015  -0.609 +1.27 -0.00    -0.266 OA
ATOM     56  H35 UNL     1      22.540   9.107   1.864 +0.12 +0.00    +0.163 HD
BRANCH  54  57
ATOM     57  C13 UNL     1      22.398   8.224  -0.446 -0.06 +0.00    +0.100 A 
ATOM     58  C14 UNL     1      23.755   8.167  -0.168 -0.46 +0.00    +0.037 A 
ATOM     59  C15 UNL     1      24.487   7.101  -0.690 -0.47 +0.00    +0.033 A 
ATOM     60  C11 UNL     1      23.854   6.127  -1.466 -0.35 +0.00    +0.050 A 
ATOM     61  C12 UNL     1      22.484   6.277  -1.686 +3.72 +0.00    +0.118 A 
ATOM     62  N2  UNL     1      21.738   7.301  -1.195 +0.70 -0.00    -0.359 N 
ATOM     63  H2  UNL     1      20.737   7.374  -1.378 +0.23 +0.00    +0.165 HD
BRANCH  60  64
ATOM     64  N1  UNL     1      24.648   5.073  -1.969 -0.16 -0.00    -0.322 N 
ATOM     65  C10 UNL     1      25.301   4.111  -1.226 -0.33 +0.00    +0.251 C 
ATOM     66  O2  UNL     1      25.311   4.042  -0.002 -0.91 -0.00    -0.268 OA
ATOM     67  H34 UNL     1      24.777   5.058  -2.971 +0.10 +0.00    +0.169 HD
BRANCH  65  68
ATOM     68  C2  UNL     1      26.044   3.101  -2.057 -0.32 +0.00    +0.007 C 
ATOM     69  C1  UNL     1      25.286   2.273  -3.054 +7.68 +0.00    +0.054 C 
ATOM     70  C3  UNL     1      27.355   2.967  -1.774 -0.15 +0.00    +0.023 C 
BRANCH  70  71
ATOM     71  C4  UNL     1      28.261   2.030  -2.441 +0.01 -0.00    -0.035 A 
ATOM     72  C5  UNL     1      27.909   1.440  -3.662 -0.19 +0.00    +0.014 A 
ATOM     73  C6  UNL     1      28.780   0.547  -4.290 -0.12 +0.00    +0.037 A 
ATOM     74  C7  UNL     1      30.002   0.250  -3.692 -0.10 +0.00    +0.065 A 
ATOM     75  C8  UNL     1      30.364   0.831  -2.482 -0.07 +0.00    +0.037 A 
ATOM     76  C9  UNL     1      29.494   1.725  -1.855 +0.02 +0.00    +0.014 A 
BRANCH  74  77
ATOM     77  O1  UNL     1      30.883  -0.616  -4.268 -0.06 -0.00    -0.361 OA
ATOM     78  H30 UNL     1      31.564  -0.849  -3.616 +0.02 +0.00    +0.217 HD
ENDBRANCH  74  77
ENDBRANCH  70  71
ENDBRANCH  65  68
ENDBRANCH  60  64
ENDBRANCH  54  57
ENDBRANCH  43  53
ENDBRANCH   1  43
TORSDOF 20
TER
