USER    Run = 1
USER    DPF = ligand_7_receptor.dpf
USER  
USER    Estimated Free Energy of Binding    =  +2.48e+004 kcal/mol  [=(1)+(2)+(3)-(4)]
USER    
USER    (1) Final Intermolecular Energy     =  +2.48e+004 kcal/mol
USER        vdW + Hbond + desolv Energy     =  +2.48e+004 kcal/mol
USER        Electrostatic Energy            =   +0.00 kcal/mol
USER    (2) Final Total Internal Energy     =   +0.00 kcal/mol
USER    (3) Torsional Free Energy           =   +1.19 kcal/mol
USER    (4) Unbound System's Energy  [=(2)] =   +0.00 kcal/mol
USER    
USER    
USER    NEWDPF move ligand_7.pdbqt
USER    NEWDPF about 0.000000 0.000000 0.000000
USER    NEWDPF tran0 17.499083 7.345082 1.837669
USER    NEWDPF quaternion0 0.853301 -0.057825 -0.053184 -0.515466
USER    NEWDPF axisangle0 0.995788 -0.067481 -0.062064 -117.942755
USER    NEWDPF quat0 0.995788 -0.067481 -0.062064 -117.942755
USER  keepresnum = 1 
USER  
REMARK  0 active torsions:
REMARK  status: ('A' for Active; 'I' for Inactive)
REMARK       I    between atoms: C2_2  and  C3_3 
REMARK       I    between atoms: C3_3  and  C5_5 
REMARK       I    between atoms: C5_5  and  C6_6 
REMARK       I    between atoms: C5_5  and  N6_90 
REMARK       I    between atoms: C6_6  and  N1_85 
REMARK       I    between atoms: C7_7  and  C8_8 
REMARK       I    between atoms: C7_7  and  C10_10 
REMARK       I    between atoms: C7_7  and  N1_85 
REMARK       I    between atoms: C8_8  and  O2_68 
REMARK       I    between atoms: C10_10  and  N2_86 
REMARK       I    between atoms: C11_11  and  C12_12 
REMARK       I    between atoms: C11_11  and  N2_86 
REMARK       I    between atoms: C12_12  and  N3_87 
REMARK       I    between atoms: C13_13  and  C14_14 
REMARK       I    between atoms: C13_13  and  C16_16 
REMARK       I    between atoms: C13_13  and  N3_87 
REMARK       I    between atoms: C14_14  and  C15_15 
REMARK       I    between atoms: C15_15  and  N4_88 
REMARK       I    between atoms: C16_16  and  N5_89 
REMARK       I    between atoms: C17_17  and  C18_18 
REMARK       I    between atoms: C17_17  and  C19_19 
REMARK       I    between atoms: C17_17  and  N5_89 
REMARK       I    between atoms: C18_18  and  O7_73 
REMARK       I    between atoms: C19_19  and  O9_75 
REMARK       I    between atoms: C20_20  and  C21_21 
REMARK       I    between atoms: C20_20  and  N6_90 
REMARK       I    between atoms: C21_21  and  C22_22 
REMARK       I    between atoms: C21_21  and  N10_95 
REMARK       I    between atoms: C22_22  and  C23_23 
REMARK       I    between atoms: C23_23  and  C24_24 
REMARK       I    between atoms: C24_24  and  N7_91 
REMARK       I    between atoms: C25_25  and  N8_93 
REMARK       I    between atoms: C25_25  and  N9_94 
REMARK       I    between atoms: C26_26  and  C27_27 
REMARK       I    between atoms: C26_26  and  N10_95 
REMARK       I    between atoms: C27_27  and  C28_28 
REMARK       I    between atoms: C27_27  and  N11_96 
REMARK       I    between atoms: C28_28  and  C29_29 
REMARK       I    between atoms: C32_32  and  C33_33 
REMARK       I    between atoms: C32_32  and  N11_96 
REMARK       I    between atoms: C33_33  and  C34_34 
REMARK       I    between atoms: C33_33  and  N12_97 
REMARK       I    between atoms: C34_34  and  C35_35 
REMARK       I    between atoms: C34_34  and  O13_79 
REMARK       I    between atoms: C38_38  and  C39_39 
REMARK       I    between atoms: C38_38  and  N12_97 
REMARK       I    between atoms: C39_39  and  C40_40 
REMARK       I    between atoms: C39_39  and  N14_99 
REMARK       I    between atoms: C40_40  and  C41_41 
REMARK       I    between atoms: C43_43  and  N13_98 
REMARK       I    between atoms: C47_47  and  C48_48 
REMARK       I    between atoms: C47_47  and  N14_99 
REMARK       I    between atoms: C48_48  and  C49_49 
REMARK       I    between atoms: C48_48  and  N15_100 
REMARK       I    between atoms: C49_49  and  C50_50 
REMARK       I    between atoms: C53_53  and  C54_54 
REMARK       I    between atoms: C53_53  and  N15_100 
REMARK       I    between atoms: C54_54  and  C55_55 
REMARK       I    between atoms: C54_54  and  N16_101 
REMARK       I    between atoms: C55_55  and  C56_56 
REMARK       I    between atoms: C59_59  and  O18_84 
REMARK       I    between atoms: C59_59  and  N16_101 
REMARK       I    between atoms: C60_60  and  C61_61 
REMARK       I    between atoms: C60_60  and  O18_84 
USER                              x       y       z     vdW  Elec       q    Type
USER                           _______ _______ _______ _____ _____    ______ ____
ROOT
ATOM      1  C1  UNL     1      27.296   7.578   4.646+99.99 +0.00    +0.005 C 
ATOM      2  C2  UNL     1      26.450   8.742   5.135+99.99 +0.00    +0.002 C 
ATOM      3  C3  UNL     1      24.950   8.452   5.355+28.53 +0.00    +0.013 C 
ATOM      4  C4  UNL     1      24.716   7.520   6.549+99.99 +0.00    +0.012 C 
ATOM      5  C5  UNL     1      24.204   8.068   4.054 +1.65 +0.00    +0.180 C 
ATOM      6  C6  UNL     1      24.367   6.607   3.564+99.99 +0.00    +0.241 C 
ATOM      7  C7  UNL     1      23.995   5.109   1.614 +0.39 +0.00    +0.205 C 
ATOM      8  C8  UNL     1      22.729   4.305   1.999 +1.69 +0.00    +0.146 C 
ATOM      9  C9  UNL     1      21.420   4.942   1.537+99.99 +0.00    +0.042 C 
ATOM     10  C10 UNL     1      24.148   5.233   0.084 -0.43 +0.00    +0.243 C 
ATOM     11  C11 UNL     1      25.279   6.513  -1.722 -0.34 +0.00    +0.225 C 
ATOM     12  C12 UNL     1      26.584   5.829  -2.157 +0.44 +0.00    +0.236 C 
ATOM     13  C13 UNL     1      28.436   4.356  -1.382 -0.17 +0.00    +0.185 C 
ATOM     14  C14 UNL     1      29.691   5.137  -1.767 -0.10 +0.00    +0.137 C 
ATOM     15  C15 UNL     1      30.634   4.273  -2.567 -0.02 +0.00    +0.217 C 
ATOM     16  C16 UNL     1      28.623   3.583  -0.056 -0.23 +0.00    +0.241 C 
ATOM     17  C17 UNL     1      29.790   1.734   1.099 -0.04 +0.00    +0.206 C 
ATOM     18  C18 UNL     1      28.750   0.607   1.069+99.99 +0.00    +0.200 C 
ATOM     19  C19 UNL     1      31.210   1.173   1.113 -0.14 +0.00    +0.165 C 
ATOM     20  C20 UNL     1      21.968   8.651   3.119 +0.02 +0.00    +0.241 C 
ATOM     21  C21 UNL     1      20.497   8.950   3.455 +0.02 +0.00    +0.176 C 
ATOM     22  C22 UNL     1      20.295  10.201   4.322+99.99 +0.00    +0.036 C 
ATOM     23  C23 UNL     1      20.520  11.556   3.631+99.99 +0.00    +0.022 C 
ATOM     24  C24 UNL     1      21.968  11.902   3.292+45.07 +0.00    +0.121 C 
ATOM     25  C25 UNL     1      23.999  12.212   4.437+13.40 +0.00    +0.121 C 
ATOM     26  C26 UNL     1      18.422   8.618   2.138 +0.61 +0.00    +0.241 C 
ATOM     27  C27 UNL     1      17.797   8.667   0.729 +0.86 +0.00    +0.177 C 
ATOM     28  C28 UNL     1      17.746  10.086   0.134 -0.52 +0.00    +0.038 C 
ATOM     29  C29 UNL     1      16.661  11.081   0.609 -0.50 -0.00    -0.020 C 
ATOM     30  C30 UNL     1      15.293  10.828  -0.029 +6.39 +0.00    +0.009 C 
ATOM     31  C31 UNL     1      16.525  11.193   2.125 -0.59 +0.00    +0.009 C 
ATOM     32  C32 UNL     1      15.868   7.504  -0.328 +0.62 +0.00    +0.243 C 
ATOM     33  C33 UNL     1      14.611   6.641  -0.035+29.72 +0.00    +0.205 C 
ATOM     34  C34 UNL     1      13.631   6.739  -1.236 +1.07 +0.00    +0.153 C 
ATOM     35  C35 UNL     1      12.303   5.950  -1.111 -0.33 +0.00    +0.009 C 
ATOM     36  C36 UNL     1      11.304   6.592  -0.154 -0.41 +0.00    +0.012 C 
ATOM     37  C37 UNL     1      12.512   4.475  -0.759+14.83 +0.00    +0.012 C 
ATOM     38  C38 UNL     1      14.139   6.318   2.394+99.99 +0.00    +0.241 C 
ATOM     39  C39 UNL     1      13.691   7.038   3.685 -0.32 +0.00    +0.180 C 
ATOM     40  C40 UNL     1      13.097   6.063   4.719 -0.19 +0.00    +0.073 C 
ATOM     41  C41 UNL     1      11.676   5.598   4.464 -0.19 -0.00    -0.054 A 
ATOM     42  C42 UNL     1      11.371   4.742   3.393 +3.96 +0.00    +0.030 A 
ATOM     43  C43 UNL     1      10.065   4.298   3.163 +0.74 +0.00    +0.006 A 
ATOM     44  C44 UNL     1       9.081   4.605   4.102 -0.25 +0.00    +0.023 A 
ATOM     45  C45 UNL     1       9.363   5.447   5.180 -0.27 +0.00    +0.002 A 
ATOM     46  C46 UNL     1      10.651   5.957   5.349 -0.29 +0.00    +0.007 A 
ATOM     47  C47 UNL     1      12.767   9.235   4.343 +6.27 +0.00    +0.241 C 
ATOM     48  C48 UNL     1      11.785  10.378   3.994+99.99 +0.00    +0.177 C 
ATOM     49  C49 UNL     1      12.205  11.116   2.710+99.99 +0.00    +0.038 C 
ATOM     50  C50 UNL     1      11.755  12.593   2.653 +7.50 -0.00    -0.020 C 
ATOM     51  C51 UNL     1      12.385  13.281   1.439+99.99 +0.00    +0.009 C 
ATOM     52  C52 UNL     1      10.237  12.757   2.601+99.99 +0.00    +0.009 C 
ATOM     53  C53 UNL     1       9.817   9.082   3.107 +3.71 +0.00    +0.241 C 
ATOM     54  C54 UNL     1       8.322   8.766   3.365 +2.77 +0.00    +0.179 C 
ATOM     55  C55 UNL     1       7.423  10.007   3.217+39.09 +0.00    +0.038 C 
ATOM     56  C56 UNL     1       6.065   9.913   3.944+99.99 -0.00    -0.020 C 
ATOM     57  C57 UNL     1       5.141   8.834   3.380+99.99 +0.00    +0.009 C 
ATOM     58  C58 UNL     1       5.356  11.271   3.881+99.99 +0.00    +0.009 C 
ATOM     59  C59 UNL     1       7.667   7.568   1.272 -0.20 +0.00    +0.361 C 
ATOM     60  C60 UNL     1       7.309   6.068  -0.492 +0.24 +0.00    +0.219 C 
ATOM     61  C61 UNL     1       7.432   4.589  -0.756 -0.08 -0.00    -0.034 A 
ATOM     62  C62 UNL     1       6.570   3.683  -0.120 -0.10 +0.00    +0.009 A 
ATOM     63  C63 UNL     1       6.700   2.310  -0.335 -0.10 +0.00    +0.001 A 
ATOM     64  C64 UNL     1       7.692   1.830  -1.187 -0.10 +0.00    +0.000 A 
ATOM     65  C65 UNL     1       8.550   2.720  -1.829 -0.13 +0.00    +0.001 A 
ATOM     66  C66 UNL     1       8.421   4.093  -1.616 -0.13 +0.00    +0.009 A 
ATOM     67  O1  UNL     1      24.704   5.669   4.277+99.99 -0.00    -0.271 OA
ATOM     68  O2  UNL     1      22.788   2.965   1.498 +0.42 -0.00    -0.393 OA
ATOM     69  O3  UNL     1      23.718   4.394  -0.704 +0.60 -0.00    -0.271 OA
ATOM     70  O4  UNL     1      26.983   5.857  -3.319+65.88 -0.00    -0.272 OA
ATOM     71  O5  UNL     1      30.564   3.051  -2.625 -0.03 -0.00    -0.274 OA
ATOM     72  O6  UNL     1      27.896   3.794   0.919 -0.59 -0.00    -0.271 OA
ATOM     73  O7  UNL     1      28.809  -0.110  -0.166+99.99 -0.00    -0.398 OA
ATOM     74  O8  UNL     1      32.132   1.484   0.373 +0.02 -0.00    -0.648 OA
ATOM     75  O9  UNL     1      31.433   0.303   2.121 +0.27 -0.00    -0.775 OA
ATOM     76  O10 UNL     1      22.392   8.647   1.960 -0.28 -0.00    -0.271 OA
ATOM     77  O11 UNL     1      17.785   8.241   3.123 -0.42 -0.00    -0.271 OA
ATOM     78  O12 UNL     1      16.306   7.676  -1.465 -0.92 -0.00    -0.271 OA
ATOM     79  O13 UNL     1      14.259   6.238  -2.433 +6.31 -0.00    -0.393 OA
ATOM     80  O14 UNL     1      14.667   5.208   2.398+99.99 -0.00    -0.271 OA
ATOM     81  O15 UNL     1      13.444   9.266   5.369 +0.66 -0.00    -0.271 OA
ATOM     82  O16 UNL     1      10.473   8.589   2.192+10.73 -0.00    -0.271 OA
ATOM     83  O17 UNL     1       7.500   8.527   0.539 +0.04 -0.00    -0.238 OA
ATOM     84  O18 UNL     1       7.608   6.272   0.891 -0.13 -0.00    -0.299 OA
ATOM     85  N1  UNL     1      24.053   6.438   2.228 +5.54 -0.00    -0.344 N 
ATOM     86  N2  UNL     1      24.938   6.291  -0.322 -0.17 -0.00    -0.350 N 
ATOM     87  N3  UNL     1      27.300   5.252  -1.138 -0.11 -0.00    -0.346 N 
ATOM     88  N4  UNL     1      31.640   4.950  -3.192 +0.02 -0.00    -0.370 N 
ATOM     89  N5  UNL     1      29.621   2.649  -0.034 -0.14 -0.00    -0.343 N 
ATOM     90  N6  UNL     1      22.769   8.343   4.192 +7.01 -0.00    -0.346 N 
ATOM     91  N7  UNL     1      22.754  11.933   4.521 +1.41 -0.00    -0.372 N 
ATOM     92  H7  UNL     1      22.321  11.738   5.423 -0.15 +0.00    +0.161 HD
ATOM     93  N8  UNL     1      24.761  12.469   3.352 +5.99 -0.00    -0.279 NA
ATOM     94  N9  UNL     1      24.751  12.283   5.555+99.99 -0.00    -0.279 NA
ATOM     95  N10 UNL     1      19.738   9.009   2.210 +0.61 -0.00    -0.346 N 
ATOM     96  N11 UNL     1      16.513   7.990   0.784 -0.14 -0.00    -0.346 N 
ATOM     97  N12 UNL     1      14.032   7.070   1.243+15.63 -0.00    -0.344 N 
ATOM     98  N13 UNL     1       9.801   3.379   2.142 +4.38 -0.00    -0.303 NA
ATOM     99  N14 UNL     1      12.855   8.212   3.423 -0.16 -0.00    -0.346 N 
ATOM    100  N15 UNL     1      10.392   9.928   4.031 +3.18 -0.00    -0.346 N 
ATOM    101  N16 UNL     1       7.933   7.593   2.603 -0.21 -0.00    -0.324 N 
ATOM    102  H84 UNL     1      22.879   3.023   0.523 +0.65 +0.00    +0.210 HD
ATOM    103  H85 UNL     1      28.051  -0.721  -0.176+99.99 +0.00    +0.209 HD
ATOM    104  H86 UNL     1      32.372   0.048   1.995 +0.02 +0.00    +0.167 HD
ATOM    105  H87 UNL     1      15.088   6.749  -2.562 +0.09 +0.00    +0.210 HD
ATOM    106  H88 UNL     1      23.507   7.186   1.793 +0.12 +0.00    +0.163 HD
ATOM    107  H89 UNL     1      25.382   6.855   0.393 +0.13 +0.00    +0.163 HD
ATOM    108  H90 UNL     1      26.798   5.078  -0.270 +0.10 +0.00    +0.163 HD
ATOM    109  H91 UNL     1      31.574   5.941  -3.379 +0.03 +0.00    +0.159 HD
ATOM    110  H92 UNL     1      32.242   4.403  -3.795 +0.02 +0.00    +0.159 HD
ATOM    111  H93 UNL     1      30.047   2.358  -0.919 +0.06 +0.00    +0.163 HD
ATOM    112  H94 UNL     1      22.332   8.156   5.087+17.07 +0.00    +0.163 HD
ATOM    113  H95 UNL     1      25.444  13.198   3.534 +0.49 +0.00    +0.126 HD
ATOM    114  H96 UNL     1      24.234  12.680   2.515+36.37 +0.00    +0.126 HD
ATOM    115  H97 UNL     1      25.636  11.799   5.470+99.99 +0.00    +0.126 HD
ATOM    116  H98 UNL     1      24.226  11.946   6.357+99.99 +0.00    +0.126 HD
ATOM    117  H99 UNL     1      20.276   9.129   1.356 +0.17 +0.00    +0.163 HD
ATOM    118  HA0 UNL     1      16.252   7.607   1.689 -0.32 +0.00    +0.163 HD
ATOM    119  HA1 UNL     1      13.737   8.036   1.347 -0.03 +0.00    +0.163 HD
ATOM    120  HA2 UNL     1      10.451   3.427   1.363+18.69 +0.00    +0.124 HD
ATOM    121  HA3 UNL     1       8.839   3.383   1.810 -0.02 +0.00    +0.124 HD
ATOM    122  HA4 UNL     1      12.052   8.093   2.801 -0.01 +0.00    +0.163 HD
ATOM    123  HA5 UNL     1       9.856  10.189   4.849 -0.45 +0.00    +0.163 HD
ATOM    124  HA6 UNL     1       8.281   6.700   2.923 +0.08 +0.00    +0.165 HD
ENDROOT
TORSDOF 50
TER
