USER    Run = 1
USER    DPF = ligand_179_receptor.dpf
USER  
USER    Estimated Free Energy of Binding    =  +3.24e+004 kcal/mol  [=(1)+(2)+(3)-(4)]
USER    
USER    (1) Final Intermolecular Energy     =  +3.24e+004 kcal/mol
USER        vdW + Hbond + desolv Energy     =  +3.24e+004 kcal/mol
USER        Electrostatic Energy            =   +0.00 kcal/mol
USER    (2) Final Total Internal Energy     =   +0.00 kcal/mol
USER    (3) Torsional Free Energy           =   +1.19 kcal/mol
USER    (4) Unbound System's Energy  [=(2)] =   +0.00 kcal/mol
USER    
USER    
USER    NEWDPF move ligand_179.pdbqt
USER    NEWDPF about 0.000000 0.000000 0.000000
USER    NEWDPF tran0 16.057122 8.086151 3.966062
USER    NEWDPF quaternion0 -0.103365 -0.417012 -0.900193 -0.071197
USER    NEWDPF axisangle0 -0.103628 -0.418073 -0.902483 -171.834510
USER    NEWDPF quat0 -0.103628 -0.418073 -0.902483 -171.834510
USER  keepresnum = 1 
USER  
REMARK  0 active torsions:
REMARK  status: ('A' for Active; 'I' for Inactive)
REMARK       I    between atoms: C2_2  and  N1_54 
REMARK       I    between atoms: C3_3  and  C4_4 
REMARK       I    between atoms: C3_3  and  N1_54 
REMARK       I    between atoms: C4_4  and  C5_5 
REMARK       I    between atoms: C5_5  and  C6_6 
REMARK       I    between atoms: C6_6  and  C7_7 
REMARK       I    between atoms: C7_7  and  C8_8 
REMARK       I    between atoms: C7_7  and  N2_55 
REMARK       I    between atoms: C8_8  and  O3_47 
REMARK       I    between atoms: C9_9  and  C10_10 
REMARK       I    between atoms: C9_9  and  N2_55 
REMARK       I    between atoms: C10_10  and  C11_11 
REMARK       I    between atoms: C11_11  and  C12_12 
REMARK       I    between atoms: C12_12  and  C13_13 
REMARK       I    between atoms: C13_13  and  C14_14 
REMARK       I    between atoms: C14_14  and  N3_56 
REMARK       I    between atoms: C15_15  and  C16_16 
REMARK       I    between atoms: C15_15  and  N3_56 
REMARK       I    between atoms: C16_16  and  C17_17 
REMARK       I    between atoms: C17_17  and  C18_18 
REMARK       I    between atoms: C18_18  and  C19_19 
REMARK       I    between atoms: C19_19  and  C20_20 
REMARK       I    between atoms: C20_20  and  N4_57 
REMARK       I    between atoms: C21_21  and  C22_22 
REMARK       I    between atoms: C21_21  and  N4_57 
REMARK       I    between atoms: C22_22  and  C23_23 
REMARK       I    between atoms: C23_23  and  C24_24 
REMARK       I    between atoms: C24_24  and  C25_25 
REMARK       I    between atoms: C25_25  and  C26_26 
REMARK       I    between atoms: C26_26  and  N5_58 
REMARK       I    between atoms: C27_27  and  C28_28 
REMARK       I    between atoms: C27_27  and  N5_58 
REMARK       I    between atoms: C28_28  and  C29_29 
REMARK       I    between atoms: C29_29  and  C30_30 
REMARK       I    between atoms: C30_30  and  C31_31 
REMARK       I    between atoms: C31_31  and  C32_32 
REMARK       I    between atoms: C32_32  and  N6_59 
REMARK       I    between atoms: C33_33  and  C34_34 
REMARK       I    between atoms: C33_33  and  N6_59 
REMARK       I    between atoms: C34_34  and  C35_35 
REMARK       I    between atoms: C35_35  and  C36_36 
REMARK       I    between atoms: C36_36  and  C37_37 
REMARK       I    between atoms: C37_37  and  C38_38 
REMARK       I    between atoms: C38_38  and  N7_60 
REMARK       I    between atoms: C39_39  and  C40_40 
REMARK       I    between atoms: C39_39  and  N7_60 
REMARK       I    between atoms: C40_40  and  C41_41 
REMARK       I    between atoms: C41_41  and  C42_42 
REMARK       I    between atoms: C42_42  and  C43_43 
REMARK       I    between atoms: C43_43  and  C44_44 
REMARK       I    between atoms: C44_44  and  N8_61 
USER                              x       y       z     vdW  Elec       q    Type
USER                           _______ _______ _______ _____ _____    ______ ____
ROOT
ATOM      1  C1  UNL     1      32.253   3.744  -1.924 -0.02 +0.00    +0.117 C 
ATOM      2  C2  UNL     1      30.979   3.042  -1.532 -0.05 +0.00    +0.213 C 
ATOM      3  C3  UNL     1      28.800   2.223  -2.412 -0.15 +0.00    +0.122 C 
ATOM      4  C4  UNL     1      27.621   3.040  -2.948 -0.30 +0.00    +0.020 C 
ATOM      5  C5  UNL     1      27.317   4.298  -2.124 -0.29 +0.00    +0.004 C 
ATOM      6  C6  UNL     1      26.639   3.989  -0.776 -0.16 +0.00    +0.036 C 
ATOM      7  C7  UNL     1      27.130   4.874   0.382 -0.16 +0.00    +0.182 C 
ATOM      8  C8  UNL     1      28.608   4.591   0.656 +0.03 +0.00    +0.163 C 
ATOM      9  C9  UNL     1      25.747   6.929   0.194 -0.29 +0.00    +0.218 C 
ATOM     10  C10 UNL     1      25.829   8.418  -0.088 +0.16 +0.00    +0.103 C 
ATOM     11  C11 UNL     1      24.538   9.172   0.231 +0.96 +0.00    +0.009 C 
ATOM     12  C12 UNL     1      24.197   9.267   1.724 -0.54 +0.00    +0.002 C 
ATOM     13  C13 UNL     1      25.242   9.962   2.606 -0.65 +0.00    +0.020 C 
ATOM     14  C14 UNL     1      25.576  11.396   2.198 +6.20 +0.00    +0.122 C 
ATOM     15  C15 UNL     1      23.954  12.828   3.392+99.99 +0.00    +0.217 C 
ATOM     16  C16 UNL     1      22.675  13.620   3.194+99.99 +0.00    +0.103 C 
ATOM     17  C17 UNL     1      22.067  14.140   4.496+99.99 +0.00    +0.009 C 
ATOM     18  C18 UNL     1      21.433  13.024   5.334+99.99 +0.00    +0.002 C 
ATOM     19  C19 UNL     1      20.788  13.586   6.604+99.99 +0.00    +0.020 C 
ATOM     20  C20 UNL     1      20.245  12.490   7.521+44.25 +0.00    +0.122 C 
ATOM     21  C21 UNL     1      17.887  12.174   6.855+99.99 +0.00    +0.217 C 
ATOM     22  C22 UNL     1      16.931  11.246   6.137+14.28 +0.00    +0.103 C 
ATOM     23  C23 UNL     1      16.734   9.907   6.846+99.99 +0.00    +0.009 C 
ATOM     24  C24 UNL     1      16.222  10.002   8.288+99.99 +0.00    +0.002 C 
ATOM     25  C25 UNL     1      14.920  10.782   8.488+71.03 +0.00    +0.020 C 
ATOM     26  C26 UNL     1      13.744  10.224   7.691 +0.19 +0.00    +0.122 C 
ATOM     27  C27 UNL     1      11.711  10.567   9.049 +5.29 +0.00    +0.217 C 
ATOM     28  C28 UNL     1      10.548  11.520   9.259+99.99 +0.00    +0.103 C 
ATOM     29  C29 UNL     1       9.498  11.001  10.241+99.99 +0.00    +0.009 C 
ATOM     30  C30 UNL     1       8.685   9.798   9.744+99.99 +0.00    +0.002 C 
ATOM     31  C31 UNL     1       7.896  10.014   8.448+99.99 +0.00    +0.020 C 
ATOM     32  C32 UNL     1       6.870  11.141   8.543+99.99 +0.00    +0.122 C 
ATOM     33  C33 UNL     1       4.996  10.458   7.086+22.64 +0.00    +0.217 C 
ATOM     34  C34 UNL     1       4.369  10.704   5.725 +6.92 +0.00    +0.103 C 
ATOM     35  C35 UNL     1       3.405   9.605   5.271 +0.90 +0.00    +0.009 C 
ATOM     36  C36 UNL     1       4.083   8.469   4.495+66.07 +0.00    +0.002 C 
ATOM     37  C37 UNL     1       5.030   7.574   5.299+99.99 +0.00    +0.020 C 
ATOM     38  C38 UNL     1       4.349   6.726   6.376 -0.03 +0.00    +0.122 C 
ATOM     39  C39 UNL     1       3.707   4.642   5.202 -0.13 +0.00    +0.217 C 
ATOM     40  C40 UNL     1       2.499   3.861   4.713 -0.10 +0.00    +0.103 C 
ATOM     41  C41 UNL     1       2.862   2.667   3.831 -0.13 +0.00    +0.009 C 
ATOM     42  C42 UNL     1       3.287   3.096   2.422 -0.12 +0.00    +0.002 C 
ATOM     43  C43 UNL     1       3.784   1.935   1.555 -0.15 +0.00    +0.030 C 
ATOM     44  C44 UNL     1       2.707   0.890   1.264 -0.10 +0.00    +0.267 C 
ATOM     45  O1  UNL     1      30.800   2.618  -0.393 -0.11 -0.00    -0.274 OA
ATOM     46  O2  UNL     1      29.525   5.375   0.446 +0.04 -0.00    -0.648 OA
ATOM     47  O3  UNL     1      28.820   3.331   1.081 -0.15 -0.00    -0.775 OA
ATOM     48  O4  UNL     1      24.704   6.337   0.443 -0.26 -0.00    -0.274 OA
ATOM     49  O5  UNL     1      24.526  12.709   4.470+82.21 -0.00    -0.274 OA
ATOM     50  O6  UNL     1      17.517  13.241   7.334+31.36 -0.00    -0.274 OA
ATOM     51  O7  UNL     1      11.923   9.586   9.753+99.99 -0.00    -0.274 OA
ATOM     52  O8  UNL     1       4.552   9.661   7.903 -0.39 -0.00    -0.274 OA
ATOM     53  O9  UNL     1       4.864   4.261   5.065 -0.13 -0.00    -0.274 OA
ATOM     54  N1  UNL     1      30.058   2.937  -2.550 -0.01 -0.00    -0.361 N 
ATOM     55  N2  UNL     1      26.964   6.299   0.106 -0.11 -0.00    -0.347 N 
ATOM     56  N3  UNL     1      24.417  12.264   2.221+99.99 -0.00    -0.361 N 
ATOM     57  N4  UNL     1      19.184  11.718   6.909+99.99 -0.00    -0.361 N 
ATOM     58  N5  UNL     1      12.520  10.936   7.995 +1.47 -0.00    -0.361 N 
ATOM     59  N6  UNL     1       6.094  11.257   7.324+99.99 -0.00    -0.361 N 
ATOM     60  N7  UNL     1       3.360   5.816   5.833 -0.06 -0.00    -0.361 N 
ATOM     61  N8  UNL     1       3.218  -0.117   0.340 +0.99 +0.00    +0.078 N 
ATOM     62  H73 UNL     1      29.768   3.127   0.870 +0.08 +0.00    +0.167 HD
ATOM     63  H74 UNL     1      30.343   3.198  -3.485 +0.04 +0.00    +0.162 HD
ATOM     64  H75 UNL     1      27.813   6.841  -0.032 +0.09 +0.00    +0.163 HD
ATOM     65  H76 UNL     1      23.840  12.319   1.391+99.99 +0.00    +0.162 HD
ATOM     66  H77 UNL     1      19.436  10.879   6.404+99.99 +0.00    +0.162 HD
ATOM     67  H78 UNL     1      12.382  11.845   7.571 +2.43 +0.00    +0.162 HD
ATOM     68  H79 UNL     1       6.463  11.824   6.573+99.99 +0.00    +0.162 HD
ATOM     69  H80 UNL     1       2.386   6.084   5.889 +0.05 +0.00    +0.162 HD
ATOM     70  H81 UNL     1       2.520  -0.849   0.218 +0.24 +0.00    +0.312 HD
ATOM     71  H82 UNL     1       4.037  -0.568   0.745 +1.48 +0.00    +0.312 HD
ENDROOT
TORSDOF 44
TER
