USER    Run = 1
USER    DPF = ligand_246_receptor.dpf
USER  
USER    Estimated Free Energy of Binding    =  +5.60e+003 kcal/mol  [=(1)+(2)+(3)-(4)]
USER    
USER    (1) Final Intermolecular Energy     =  +5.60e+003 kcal/mol
USER        vdW + Hbond + desolv Energy     =  +5.60e+003 kcal/mol
USER        Electrostatic Energy            =   +0.00 kcal/mol
USER    (2) Final Total Internal Energy     =   +0.00 kcal/mol
USER    (3) Torsional Free Energy           =   +1.19 kcal/mol
USER    (4) Unbound System's Energy  [=(2)] =   +0.00 kcal/mol
USER    
USER    
USER    NEWDPF move ligand_246.pdbqt
USER    NEWDPF about 0.000000 0.000000 0.000000
USER    NEWDPF tran0 15.209103 7.168266 2.023683
USER    NEWDPF quaternion0 -0.959598 -0.113143 -0.039272 0.254615
USER    NEWDPF axisangle0 -0.992301 -0.116999 -0.040610 150.498498
USER    NEWDPF quat0 -0.992301 -0.116999 -0.040610 150.498498
USER  keepresnum = 1 
USER  
REMARK  0 active torsions:
REMARK  status: ('A' for Active; 'I' for Inactive)
REMARK       I    between atoms: C3_3  and  O29_81 
REMARK       I    between atoms: C4_4  and  N8_90 
REMARK       I    between atoms: C5_5  and  N7_89 
REMARK       I    between atoms: C6_6  and  O16_68 
REMARK       I    between atoms: C7_7  and  O1_53 
REMARK       I    between atoms: C8_8  and  C9_9 
REMARK       I    between atoms: C8_8  and  O1_53 
REMARK       I    between atoms: C13_13  and  O3_55 
REMARK       I    between atoms: C15_15  and  N1_82 
REMARK       I    between atoms: C16_16  and  O15_67 
REMARK       I    between atoms: C17_17  and  N6_88 
REMARK       I    between atoms: C18_18  and  N2_83 
REMARK       I    between atoms: C19_19  and  O5_57 
REMARK       I    between atoms: C20_20  and  O4_56 
REMARK       I    between atoms: C25_25  and  O7_59 
REMARK       I    between atoms: C25_25  and  O8_60 
REMARK       I    between atoms: C26_26  and  C34_34 
REMARK       I    between atoms: C27_27  and  N4_86 
REMARK       I    between atoms: C28_28  and  O13_65 
REMARK       I    between atoms: C29_29  and  O12_64 
REMARK       I    between atoms: C30_30  and  O11_63 
REMARK       I    between atoms: C31_31  and  O10_62 
REMARK       I    between atoms: C32_32  and  O9_61 
REMARK       I    between atoms: C34_34  and  N5_87 
REMARK       I    between atoms: C38_38  and  O26_78 
REMARK       I    between atoms: C38_38  and  O27_79 
REMARK       I    between atoms: C40_40  and  N9_91 
REMARK       I    between atoms: C41_41  and  O25_77 
REMARK       I    between atoms: C42_42  and  N11_93 
REMARK       I    between atoms: C43_43  and  N10_92 
REMARK       I    between atoms: C44_44  and  O19_71 
REMARK       I    between atoms: C45_45  and  O18_70 
REMARK       I    between atoms: C47_47  and  O23_75 
REMARK       I    between atoms: C47_47  and  O24_76 
REMARK       I    between atoms: C50_50  and  O21_73 
REMARK       I    between atoms: C50_50  and  O22_74 
REMARK       I    between atoms: C51_51  and  C52_52 
REMARK       I    between atoms: C52_52  and  N13_96 
USER                              x       y       z     vdW  Elec       q    Type
USER                           _______ _______ _______ _____ _____    ______ ____
ROOT
ATOM      1  C1  UNL     1      13.703   6.611   3.395 +0.43 +0.00    +0.054 C 
ATOM      2  C2  UNL     1      12.770   7.392   4.287 -0.43 +0.00    +0.010 A 
ATOM      3  C3  UNL     1      11.573   7.940   3.773 -0.33 +0.00    +0.105 A 
ATOM      4  C4  UNL     1      10.688   8.690   4.564 -0.13 +0.00    +0.114 A 
ATOM      5  C5  UNL     1      11.085   8.988   5.885 +3.57 +0.00    +0.074 A 
ATOM      6  C6  UNL     1      12.269   8.423   6.404 -0.18 +0.00    +0.123 A 
ATOM      7  C7  UNL     1      13.130   7.653   5.621 -0.34 +0.00    +0.112 A 
ATOM      8  C8  UNL     1      15.029   7.765   7.057+99.99 +0.00    +0.185 C 
ATOM      9  C9  UNL     1      16.520   7.371   7.040+99.99 +0.00    +0.066 C 
ATOM     10  C10 UNL     1      16.670   5.874   7.322+99.99 +0.00    +0.021 C 
ATOM     11  C11 UNL     1      18.129   5.542   7.544+99.99 +0.00    +0.104 C 
ATOM     12  C12 UNL     1      19.099   6.138   6.544+99.99 +0.00    +0.227 C 
ATOM     13  C13 UNL     1      17.308   7.703   5.738+35.40 +0.00    +0.142 C 
ATOM     14  C14 UNL     1      17.104   9.191   5.383+12.63 +0.00    +0.072 C 
ATOM     15  C15 UNL     1      19.759   8.000   5.187+16.89 +0.00    +0.111 A 
ATOM     16  C16 UNL     1      19.790   8.098   3.797 +0.50 +0.00    +0.119 A 
ATOM     17  C17 UNL     1      20.843   8.744   3.106 +0.15 +0.00    +0.072 A 
ATOM     18  C18 UNL     1      21.972   9.244   3.806 +0.09 +0.00    +0.102 A 
ATOM     19  C19 UNL     1      21.903   9.179   5.210+13.46 +0.00    +0.130 A 
ATOM     20  C20 UNL     1      20.832   8.560   5.881+84.89 +0.00    +0.131 A 
ATOM     21  C21 UNL     1      23.635   9.003   1.992 -0.30 +0.00    +0.282 C 
ATOM     22  C22 UNL     1      24.621   9.673   1.176 +0.12 +0.00    +0.134 C 
ATOM     23  C23 UNL     1      25.185  10.899   1.453 +2.61 +0.00    +0.017 C 
ATOM     24  C24 UNL     1      24.680  11.723   2.568+35.03 +0.00    +0.138 C 
ATOM     25  C25 UNL     1      23.982  10.820   3.627 +0.24 +0.00    +0.257 C 
ATOM     26  C26 UNL     1      26.289  11.029   0.575+99.99 +0.00    +0.125 C 
ATOM     27  C27 UNL     1      24.836   8.265  -0.928 +0.89 +0.00    +0.129 A 
ATOM     28  C28 UNL     1      25.805   7.560  -1.658 +5.06 +0.00    +0.134 A 
ATOM     29  C29 UNL     1      25.442   6.553  -2.573 +1.72 +0.00    +0.138 A 
ATOM     30  C30 UNL     1      24.102   6.258  -2.812 +0.34 +0.00    +0.140 A 
ATOM     31  C31 UNL     1      23.147   7.024  -2.134 +0.52 +0.00    +0.138 A 
ATOM     32  C32 UNL     1      23.496   8.022  -1.218 -0.04 +0.00    +0.134 A 
ATOM     33  C33 UNL     1      24.458   4.427  -4.298+11.98 +0.00    +0.210 C 
ATOM     34  C34 UNL     1      27.278  12.114   0.473+99.99 +0.00    +0.268 C 
ATOM     35  C35 UNL     1       8.593   8.740   3.069 +1.95 +0.00    +0.134 C 
ATOM     36  C36 UNL     1       7.697   9.767   2.830+60.84 +0.00    +0.017 C 
ATOM     37  C37 UNL     1       6.707   9.676   1.729+99.99 +0.00    +0.138 C 
ATOM     38  C38 UNL     1       7.150   8.607   0.696 +3.10 +0.00    +0.257 C 
ATOM     39  C39 UNL     1       8.528   7.452   2.411 -0.24 +0.00    +0.282 C 
ATOM     40  C40 UNL     1       7.382   6.096   0.742 -0.18 +0.00    +0.114 A 
ATOM     41  C41 UNL     1       7.583   5.826  -0.612 +0.15 +0.00    +0.119 A 
ATOM     42  C42 UNL     1       7.415   4.537  -1.164 +0.03 +0.00    +0.072 A 
ATOM     43  C43 UNL     1       6.940   3.481  -0.361 -0.06 +0.00    +0.102 A 
ATOM     44  C44 UNL     1       6.743   3.750   1.004 -0.06 +0.00    +0.130 A 
ATOM     45  C45 UNL     1       6.942   5.033   1.537 -0.09 +0.00    +0.131 A 
ATOM     46  C46 UNL     1       5.759   2.135  -2.052 -0.03 +0.00    +0.291 C 
ATOM     47  C47 UNL     1       5.481   0.690  -2.590 -0.07 +0.00    +0.244 C 
ATOM     48  C48 UNL     1       5.170  -0.209  -1.405 +3.95 +0.00    +0.086 C 
ATOM     49  C49 UNL     1       6.298  -0.205  -0.373+12.17 +0.00    +0.100 C 
ATOM     50  C50 UNL     1       7.253   0.993  -0.505 -0.10 +0.00    +0.253 C 
ATOM     51  C51 UNL     1       7.938  10.745   3.820+99.99 +0.00    +0.125 C 
ATOM     52  C52 UNL     1       7.254  12.025   4.080+99.99 +0.00    +0.268 C 
ATOM     53  O1  UNL     1      14.303   7.084   6.040 -0.22 -0.00    -0.347 OA
ATOM     54  O2  UNL     1      20.205   5.603   6.407 +5.93 -0.00    -0.273 OA
ATOM     55  O3  UNL     1      16.807   6.918   4.666 +1.06 -0.00    -0.370 OA
ATOM     56  O4  UNL     1      20.842   8.556   7.257 +2.52 -0.00    -0.356 OA
ATOM     57  O5  UNL     1      22.879   9.680   6.037 +0.00 -0.00    -0.356 OA
ATOM     58  O6  UNL     1      23.295   7.840   1.784 -0.28 -0.00    -0.265 OA
ATOM     59  O7  UNL     1      24.973  10.209   4.425+93.52 -0.00    -0.348 OA
ATOM     60  O8  UNL     1      23.238  11.670   4.497 +0.12 -0.00    -0.348 OA
ATOM     61  O9  UNL     1      22.481   8.799  -0.721 -0.08 -0.00    -0.356 OA
ATOM     62  O10 UNL     1      21.805   6.835  -2.376 +4.67 -0.00    -0.356 OA
ATOM     63  O11 UNL     1      23.561   5.326  -3.659+41.00 -0.00    -0.350 OA
ATOM     64  O12 UNL     1      26.467   5.907  -3.216+42.90 -0.00    -0.356 OA
ATOM     65  O13 UNL     1      27.160   7.779  -1.534 +0.45 -0.00    -0.356 OA
ATOM     66  O14 UNL     1      28.432  11.965   0.084+37.28 -0.00    -0.266 OA
ATOM     67  O15 UNL     1      18.790   7.555   3.020 +0.44 -0.00    -0.357 OA
ATOM     68  O16 UNL     1      12.517   8.684   7.732 -0.31 -0.00    -0.356 OA
ATOM     69  O17 UNL     1       9.211   6.490   2.768 -0.17 -0.00    -0.265 OA
ATOM     70  O18 UNL     1       6.619   5.241   2.858 -0.05 -0.00    -0.356 OA
ATOM     71  O19 UNL     1       6.295   2.800   1.891 -0.05 -0.00    -0.356 OA
ATOM     72  O20 UNL     1       5.241   3.098  -2.628 -0.09 -0.00    -0.267 OA
ATOM     73  O21 UNL     1       7.886   1.140   0.748 -0.15 -0.00    -0.348 OA
ATOM     74  O22 UNL     1       8.309   0.756  -1.407 -0.06 -0.00    -0.348 OA
ATOM     75  O23 UNL     1       6.600   0.161  -3.276 -0.18 -0.00    -0.358 OA
ATOM     76  O24 UNL     1       4.400   0.654  -3.493 -0.02 -0.00    -0.358 OA
ATOM     77  O25 UNL     1       8.014   6.812  -1.474 +0.32 -0.00    -0.357 OA
ATOM     78  O26 UNL     1       8.171   9.147  -0.117 +6.42 -0.00    -0.348 OA
ATOM     79  O27 UNL     1       6.022   8.377  -0.130 +0.71 -0.00    -0.348 OA
ATOM     80  O28 UNL     1       7.729  12.941   4.746+99.99 -0.00    -0.266 OA
ATOM     81  O29 UNL     1      11.340   7.761   2.436 -0.11 -0.00    -0.358 OA
ATOM     82  N1  UNL     1      18.725   7.326   5.911+99.99 -0.00    -0.279 N 
ATOM     83  N2  UNL     1      23.118   9.774   3.073 -0.29 -0.00    -0.251 N 
ATOM     84  N3  UNL     1      26.384   9.933  -0.202+99.99 -0.00    -0.287 N 
ATOM     85  H3  UNL     1      27.153   9.675  -0.820 +2.92 +0.00    +0.188 HD
ATOM     86  N4  UNL     1      25.226   9.240   0.017 +4.04 -0.00    -0.244 N 
ATOM     87  N5  UNL     1      26.824  13.367   0.800 +5.75 -0.00    -0.365 N 
ATOM     88  N6  UNL     1      20.760   8.677   1.675 +7.64 -0.00    -0.298 NA
ATOM     89  N7  UNL     1      10.243   9.642   6.848 +2.46 -0.00    -0.298 NA
ATOM     90  N8  UNL     1       9.450   9.200   4.057 +0.13 -0.00    -0.245 N 
ATOM     91  N9  UNL     1       7.632   7.381   1.319 -0.26 -0.00    -0.250 N 
ATOM     92  N10 UNL     1       6.587   2.207  -0.923 -0.03 -0.00    -0.252 N 
ATOM     93  N11 UNL     1       7.612   4.425  -2.576 +0.09 -0.00    -0.298 NA
ATOM     94  N12 UNL     1       8.937  10.338   4.619+33.72 -0.00    -0.287 N 
ATOM     95  H12 UNL     1       9.253  10.790   5.478+16.89 +0.00    +0.188 HD
ATOM     96  N13 UNL     1       5.986  12.158   3.574+99.99 -0.00    -0.365 N 
ATOM     97  H25 UNL     1      17.484   6.996   3.964 +0.16 +0.00    +0.212 HD
ATOM     98  H26 UNL     1      21.754   8.804   7.502 +0.19 +0.00    +0.218 HD
ATOM     99  H27 UNL     1      22.962  10.622   5.766 -0.36 +0.00    +0.218 HD
ATOM    100  H28 UNL     1      24.543   9.417   4.801 +0.16 +0.00    +0.215 HD
ATOM    101  H29 UNL     1      23.793  12.458   4.639 -0.05 +0.00    +0.215 HD
ATOM    102  H30 UNL     1      21.667   8.406  -1.110 +0.18 +0.00    +0.218 HD
ATOM    103  H31 UNL     1      21.776   6.095  -3.018+99.99 +0.00    +0.218 HD
ATOM    104  H32 UNL     1      27.282   6.316  -2.854 +0.21 +0.00    +0.218 HD
ATOM    105  H33 UNL     1      27.279   8.633  -1.055 +0.20 +0.00    +0.218 HD
ATOM    106  H34 UNL     1      19.087   7.768   2.105 +0.80 +0.00    +0.218 HD
ATOM    107  H35 UNL     1      11.789   9.299   7.972 +0.17 +0.00    +0.218 HD
ATOM    108  H36 UNL     1       6.338   4.365   3.192 +0.09 +0.00    +0.218 HD
ATOM    109  H37 UNL     1       6.815   1.990   1.694 +0.09 +0.00    +0.218 HD
ATOM    110  H38 UNL     1       8.797   1.368   0.480 +0.11 +0.00    +0.215 HD
ATOM    111  H39 UNL     1       7.997   0.092  -2.055 +0.10 +0.00    +0.215 HD
ATOM    112  H40 UNL     1       6.481   0.479  -4.191 +0.05 +0.00    +0.213 HD
ATOM    113  H41 UNL     1       4.192   1.585  -3.712 +0.04 +0.00    +0.213 HD
ATOM    114  H42 UNL     1       8.151   6.321  -2.319 -0.47 +0.00    +0.218 HD
ATOM    115  H43 UNL     1       8.595   8.360  -0.509 +0.07 +0.00    +0.215 HD
ATOM    116  H44 UNL     1       6.398   7.926  -0.904 -0.10 +0.00    +0.215 HD
ATOM    117  H45 UNL     1      10.907   6.879   2.391 +0.12 +0.00    +0.217 HD
ATOM    118  H46 UNL     1      27.467  14.108   0.548 +0.38 +0.00    +0.159 HD
ATOM    119  H47 UNL     1      25.841  13.577   0.713 -0.24 +0.00    +0.159 HD
ATOM    120  H48 UNL     1      21.208   9.496   1.261 +0.09 +0.00    +0.124 HD
ATOM    121  H49 UNL     1      21.378   7.893   1.401 +1.54 +0.00    +0.124 HD
ATOM    122  H50 UNL     1       9.587   8.957   7.226 +0.44 +0.00    +0.124 HD
ATOM    123  H51 UNL     1       9.663  10.321   6.324 +4.20 +0.00    +0.124 HD
ATOM    124  H52 UNL     1       6.670   4.396  -2.995 -0.17 +0.00    +0.124 HD
ATOM    125  H53 UNL     1       8.022   3.510  -2.776 +0.03 +0.00    +0.124 HD
ATOM    126  H54 UNL     1       5.434  11.348   3.337+99.99 +0.00    +0.159 HD
ATOM    127  H55 UNL     1       5.488  12.977   3.899+27.61 +0.00    +0.159 HD
ENDROOT
TORSDOF 36
TER
