USER    Run = 1
USER    DPF = ligand_345_receptor.dpf
USER  
USER    Estimated Free Energy of Binding    =  +4.32e+003 kcal/mol  [=(1)+(2)+(3)-(4)]
USER    
USER    (1) Final Intermolecular Energy     =  +4.31e+003 kcal/mol
USER        vdW + Hbond + desolv Energy     =  +4.31e+003 kcal/mol
USER        Electrostatic Energy            =   +0.00 kcal/mol
USER    (2) Final Total Internal Energy     =   +0.00 kcal/mol
USER    (3) Torsional Free Energy           =   +1.19 kcal/mol
USER    (4) Unbound System's Energy  [=(2)] =   +0.00 kcal/mol
USER    
USER    
USER    NEWDPF move ligand_345.pdbqt
USER    NEWDPF about 0.000000 0.000000 0.000000
USER    NEWDPF tran0 21.405115 6.985567 2.462528
USER    NEWDPF quaternion0 -0.888825 0.192542 0.095192 -0.404791
USER    NEWDPF axisangle0 -0.972021 0.210564 0.104102 -132.243937
USER    NEWDPF quat0 -0.972021 0.210564 0.104102 -132.243937
USER  keepresnum = 1 
USER  
REMARK  0 active torsions:
REMARK  status: ('A' for Active; 'I' for Inactive)
REMARK       I    between atoms: C2_2  and  C3_3 
REMARK       I    between atoms: C4_4  and  C5_5 
REMARK       I    between atoms: C5_5  and  O29_79 
REMARK       I    between atoms: C10_10  and  O2_52 
REMARK       I    between atoms: C18_18  and  O13_63 
REMARK       I    between atoms: C23_23  and  C24_24 
REMARK       I    between atoms: C23_23  and  O15_65 
REMARK       I    between atoms: C25_25  and  C26_26 
REMARK       I    between atoms: C35_35  and  O23_73 
REMARK       I    between atoms: C40_40  and  C41_41 
REMARK       I    between atoms: C40_40  and  O25_75 
REMARK       I    between atoms: C42_42  and  C43_43 
REMARK       I    between atoms: O2_52  and  C51_80 
REMARK       I    between atoms: O3_53  and  C51_80 
REMARK       I    between atoms: O4_54  and  C51_80 
REMARK       I    between atoms: O4_54  and  C52_81 
REMARK       I    between atoms: O5_55  and  C52_81 
REMARK       I    between atoms: O6_56  and  C52_81 
REMARK       I    between atoms: O6_56  and  C53_82 
REMARK       I    between atoms: O7_57  and  C53_82 
REMARK       I    between atoms: O8_58  and  C53_82 
REMARK       I    between atoms: O8_58  and  C54_83 
REMARK       I    between atoms: O9_59  and  C54_83 
REMARK       I    between atoms: O10_60  and  C54_83 
REMARK       I    between atoms: O10_60  and  C55_84 
REMARK       I    between atoms: O11_61  and  C55_84 
REMARK       I    between atoms: O12_62  and  C55_84 
REMARK       I    between atoms: O12_62  and  C56_85 
REMARK       I    between atoms: O13_63  and  C56_85 
REMARK       I    between atoms: O16_66  and  C56_85 
REMARK       I    between atoms: O16_66  and  C57_86 
REMARK       I    between atoms: O17_67  and  C57_86 
REMARK       I    between atoms: O18_68  and  C57_86 
REMARK       I    between atoms: O18_68  and  C58_87 
REMARK       I    between atoms: O19_69  and  C58_87 
REMARK       I    between atoms: O20_70  and  C58_87 
REMARK       I    between atoms: O20_70  and  C59_88 
REMARK       I    between atoms: O21_71  and  C59_88 
REMARK       I    between atoms: O22_72  and  C59_88 
REMARK       I    between atoms: O22_72  and  C60_89 
REMARK       I    between atoms: O23_73  and  C60_89 
REMARK       I    between atoms: O26_76  and  C60_89 
REMARK       I    between atoms: O26_76  and  C61_90 
REMARK       I    between atoms: O27_77  and  C61_90 
REMARK       I    between atoms: O28_78  and  C61_90 
USER                              x       y       z     vdW  Elec       q    Type
USER                           _______ _______ _______ _____ _____    ______ ____
ROOT
ATOM      1  C1  UNL     1      26.427   2.822  -2.898 -0.37 +0.00    +0.096 C 
ATOM      2  C2  UNL     1      27.398   3.972  -2.822 +0.15 +0.00    +0.145 C 
ATOM      3  C3  UNL     1      28.754   3.748  -2.261 -0.20 +0.00    +0.049 C 
ATOM      4  C4  UNL     1      29.027   2.778  -1.376 -0.24 +0.00    +0.018 C 
ATOM      5  C5  UNL     1      30.364   2.524  -0.679 -0.19 +0.00    +0.114 C 
ATOM      6  C6  UNL     1      31.019   1.186  -1.274 -0.20 -0.00    -0.010 C 
ATOM      7  C7  UNL     1      31.920   0.515  -0.215 +3.57 +0.00    +0.012 C 
ATOM      8  C8  UNL     1      31.177   0.146   1.070 +7.63 +0.00    +0.004 C 
ATOM      9  C9  UNL     1      30.012   1.073   1.415 +3.19 +0.00    +0.041 C 
ATOM     10  C10 UNL     1      30.190   2.528   0.927 -0.37 +0.00    +0.098 C 
ATOM     11  C11 UNL     1      31.400   3.119   1.704 -0.30 +0.00    +0.050 C 
ATOM     12  C12 UNL     1      29.435   5.993   0.482 -0.20 +0.00    +0.115 C 
ATOM     13  C13 UNL     1      25.938   6.612   3.821 +2.15 +0.00    +0.115 C 
ATOM     14  C14 UNL     1      24.163   2.744   0.873+99.99 +0.00    +0.115 C 
ATOM     15  C15 UNL     1      23.663   5.891  -3.733+35.93 +0.00    +0.115 C 
ATOM     16  C16 UNL     1      20.748   8.515  -2.913+99.99 +0.00    +0.115 C 
ATOM     17  C17 UNL     1      23.136  10.992  -0.508 +1.46 +0.00    +0.116 C 
ATOM     18  C18 UNL     1      22.425   9.929   2.928 -0.35 +0.00    +0.098 C 
ATOM     19  C19 UNL     1      23.910  10.353   2.874 +0.13 +0.00    +0.041 C 
ATOM     20  C20 UNL     1      24.139  11.818   3.227+40.34 +0.00    +0.004 C 
ATOM     21  C21 UNL     1      23.591  12.159   4.611 +9.14 +0.00    +0.012 C 
ATOM     22  C22 UNL     1      22.087  11.830   4.767+46.84 -0.00    -0.010 C 
ATOM     23  C23 UNL     1      21.807  10.319   4.358 +9.29 +0.00    +0.114 C 
ATOM     24  C24 UNL     1      22.280   9.355   5.450 +3.63 +0.00    +0.018 C 
ATOM     25  C25 UNL     1      21.482   8.514   6.130+99.99 +0.00    +0.049 C 
ATOM     26  C26 UNL     1      21.927   7.548   7.167+99.99 +0.00    +0.145 C 
ATOM     27  C27 UNL     1      23.364   7.538   7.613+99.99 +0.00    +0.096 C 
ATOM     28  C28 UNL     1      21.685  12.093   6.244+99.99 +0.00    +0.018 C 
ATOM     29  C29 UNL     1      21.261  12.853   3.942+99.99 +0.00    +0.018 C 
ATOM     30  C30 UNL     1      22.336   8.398   2.701 -0.18 +0.00    +0.050 C 
ATOM     31  C31 UNL     1      18.089  12.181   1.472 -0.65 +0.00    +0.115 C 
ATOM     32  C32 UNL     1      15.258   9.908   0.434 +8.12 +0.00    +0.115 C 
ATOM     33  C33 UNL     1      18.855   6.092   2.414+99.99 +0.00    +0.115 C 
ATOM     34  C34 UNL     1      16.223   9.412   5.458+28.47 +0.00    +0.116 C 
ATOM     35  C35 UNL     1      13.369   7.289   4.466 -0.45 +0.00    +0.098 C 
ATOM     36  C36 UNL     1      13.184   8.770   4.060 +0.21 +0.00    +0.041 C 
ATOM     37  C37 UNL     1      11.753   9.113   3.648 +1.29 +0.00    +0.004 C 
ATOM     38  C38 UNL     1      10.733   8.774   4.733 -0.03 +0.00    +0.012 C 
ATOM     39  C39 UNL     1      10.797   7.303   5.219 -0.40 -0.00    -0.010 C 
ATOM     40  C40 UNL     1      12.284   6.909   5.582 -0.36 +0.00    +0.114 C 
ATOM     41  C41 UNL     1      12.704   7.580   6.904 -0.50 +0.00    +0.018 C 
ATOM     42  C42 UNL     1      13.115   6.955   8.021 -0.55 +0.00    +0.049 C 
ATOM     43  C43 UNL     1      13.571   7.731   9.206 -0.35 +0.00    +0.145 C 
ATOM     44  C44 UNL     1      14.044   6.948  10.401+27.46 +0.00    +0.096 C 
ATOM     45  C45 UNL     1      10.161   6.380   4.151 -0.33 +0.00    +0.018 C 
ATOM     46  C46 UNL     1       9.866   7.163   6.458 +2.72 +0.00    +0.018 C 
ATOM     47  C47 UNL     1      13.310   6.382   3.216 +0.91 +0.00    +0.050 C 
ATOM     48  C48 UNL     1      17.644   7.625   8.447+99.99 +0.00    +0.115 C 
ATOM     49  C49 UNL     1      29.982   0.125  -1.745+17.22 +0.00    +0.018 C 
ATOM     50  C50 UNL     1      31.894   1.488  -2.520 -0.13 +0.00    +0.018 C 
ATOM     51  O1  UNL     1      27.089   5.106  -3.190+11.15 -0.00    -0.294 OA
ATOM     52  O2  UNL     1      28.947   3.165   1.312 -0.43 -0.00    -0.319 OA
ATOM     53  O3  UNL     1      29.251   5.031   3.195+99.99 -0.00    -0.343 OA
ATOM     54  O4  UNL     1      27.028   4.970   1.698+12.03 -0.00    -0.271 OA
ATOM     55  O5  UNL     1      26.198   7.446   1.062 -0.18 -0.00    -0.343 OA
ATOM     56  O6  UNL     1      24.392   5.544   1.623 -0.22 -0.00    -0.271 OA
ATOM     57  O7  UNL     1      22.002   4.679   0.845 +7.87 -0.00    -0.343 OA
ATOM     58  O8  UNL     1      23.924   4.950  -0.991 -0.12 -0.00    -0.271 OA
ATOM     59  O9  UNL     1      25.562   6.889  -1.765 -0.22 -0.00    -0.343 OA
ATOM     60  O10 UNL     1      22.975   7.447  -1.377 -0.35 -0.00    -0.271 OA
ATOM     61  O11 UNL     1      20.538   6.425  -0.919+99.99 -0.00    -0.343 OA
ATOM     62  O12 UNL     1      21.173   8.880  -0.047 +0.86 -0.00    -0.271 OA
ATOM     63  O13 UNL     1      21.609  10.649   1.973 +0.26 -0.00    -0.318 OA
ATOM     64  O14 UNL     1      21.095   6.763   7.627 +3.26 -0.00    -0.294 OA
ATOM     65  O15 UNL     1      20.379  10.156   4.256+99.99 -0.00    -0.382 OA
ATOM     66  O16 UNL     1      20.308  11.409  -0.249 -0.44 -0.00    -0.271 OA
ATOM     67  O17 UNL     1      18.250  12.655  -1.363+99.99 -0.00    -0.343 OA
ATOM     68  O18 UNL     1      17.978  10.120  -0.645 -0.24 -0.00    -0.271 OA
ATOM     69  O19 UNL     1      16.358   8.313  -1.718 -0.49 -0.00    -0.343 OA
ATOM     70  O20 UNL     1      17.321   7.869   0.703 +0.26 -0.00    -0.271 OA
ATOM     71  O21 UNL     1      18.686   8.967   2.713 -0.25 -0.00    -0.343 OA
ATOM     72  O22 UNL     1      16.492   7.557   3.246 -0.91 -0.00    -0.271 OA
ATOM     73  O23 UNL     1      14.633   6.960   5.097 -0.35 -0.00    -0.318 OA
ATOM     74  O24 UNL     1      13.560   8.961   9.211 -0.28 -0.00    -0.294 OA
ATOM     75  O25 UNL     1      12.350   5.491   5.806 -0.16 -0.00    -0.382 OA
ATOM     76  O26 UNL     1      17.220   6.712   5.701+18.64 -0.00    -0.271 OA
ATOM     77  O27 UNL     1      18.854   5.269   7.257+15.61 -0.00    -0.344 OA
ATOM     78  O28 UNL     1      16.257   5.182   7.698+99.99 -0.00    -0.344 OA
ATOM     79  O29 UNL     1      31.203   3.645  -1.020 +0.00 -0.00    -0.382 OA
ATOM     80  C51 UNL     1      28.673   4.769   1.657+25.55 +0.00    +0.281 C 
ATOM     81  C52 UNL     1      25.890   6.123   2.016 +0.87 +0.00    +0.284 C 
ATOM     82  C53 UNL     1      23.641   4.509   0.578 -0.25 +0.00    +0.284 C 
ATOM     83  C54 UNL     1      24.011   6.296  -1.950 -0.21 +0.00    +0.284 C 
ATOM     84  C55 UNL     1      21.364   7.813  -1.302 +3.04 +0.00    +0.284 C 
ATOM     85  C56 UNL     1      21.543  10.454   0.315 -0.26 +0.00    +0.287 C 
ATOM     86  C57 UNL     1      18.660  11.552  -0.182 +0.09 +0.00    +0.284 C 
ATOM     87  C58 UNL     1      16.755   9.067  -0.286 -0.24 +0.00    +0.284 C 
ATOM     88  C59 UNL     1      17.819   7.631   2.260 +0.60 +0.00    +0.284 C 
ATOM     89  C60 UNL     1      16.125   7.643   4.861 +0.33 +0.00    +0.287 C 
ATOM     90  C61 UNL     1      17.487   6.207   7.256+63.08 +0.00    +0.278 C 
ATOM     91  H94 UNL     1      29.162   5.938   3.525+38.27 +0.00    +0.215 HD
ATOM     92  H95 UNL     1      25.984   7.337   0.114 +0.16 +0.00    +0.215 HD
ATOM     93  H96 UNL     1      21.729   4.502   1.760 +4.54 +0.00    +0.215 HD
ATOM     94  H97 UNL     1      26.219   6.419  -2.322 +0.12 +0.00    +0.215 HD
ATOM     95  H98 UNL     1      20.978   5.857  -0.256 +2.29 +0.00    +0.215 HD
ATOM     96  H99 UNL     1      20.167  10.520   3.366 +0.22 +0.00    +0.211 HD
ATOM     97  HA0 UNL     1      18.457  12.356  -2.260+16.50 +0.00    +0.215 HD
ATOM     98  HA1 UNL     1      16.999   7.635  -1.978 +0.13 +0.00    +0.215 HD
ATOM     99  HA2 UNL     1      19.119   8.916   3.585 +0.15 +0.00    +0.215 HD
ATOM    100  HA3 UNL     1      13.305   5.284   5.809 +0.14 +0.00    +0.211 HD
ATOM    101  HA4 UNL     1      19.693   5.758   7.396 +0.14 +0.00    +0.215 HD
ATOM    102  HA5 UNL     1      16.455   4.256   7.485+69.32 +0.00    +0.215 HD
ATOM    103  HA6 UNL     1      32.105   3.453  -0.714 +0.06 +0.00    +0.211 HD
ENDROOT
TORSDOF 45
TER
