USER    Run = 1
USER    DPF = ligand_531_receptor.dpf
USER  
USER    Estimated Free Energy of Binding    =  +3.01e+004 kcal/mol  [=(1)+(2)+(3)-(4)]
USER    
USER    (1) Final Intermolecular Energy     =  +3.01e+004 kcal/mol
USER        vdW + Hbond + desolv Energy     =  +3.01e+004 kcal/mol
USER        Electrostatic Energy            =   +0.00 kcal/mol
USER    (2) Final Total Internal Energy     =   +0.00 kcal/mol
USER    (3) Torsional Free Energy           =   +1.19 kcal/mol
USER    (4) Unbound System's Energy  [=(2)] =   +0.00 kcal/mol
USER    
USER    
USER    NEWDPF move ligand_531.pdbqt
USER    NEWDPF about 0.000000 0.000000 0.000000
USER    NEWDPF tran0 9.935151 6.865362 3.306145
USER    NEWDPF quaternion0 -0.354032 -0.545176 -0.168956 -0.740877
USER    NEWDPF axisangle0 -0.527115 -0.811707 -0.251558 -84.387726
USER    NEWDPF quat0 -0.527115 -0.811707 -0.251558 -84.387726
USER  keepresnum = 1 
USER  
REMARK  0 active torsions:
REMARK  status: ('A' for Active; 'I' for Inactive)
REMARK       I    between atoms: C3_3  and  C28_28 
REMARK       I    between atoms: C5_5  and  C6_6 
REMARK       I    between atoms: C5_5  and  N1_59 
REMARK       I    between atoms: C6_6  and  C7_7 
REMARK       I    between atoms: C6_6  and  N3_61 
REMARK       I    between atoms: C7_7  and  C8_8 
REMARK       I    between atoms: C8_8  and  C9_9 
REMARK       I    between atoms: C9_9  and  N2_60 
REMARK       I    between atoms: C10_10  and  C11_11 
REMARK       I    between atoms: C10_10  and  N3_61 
REMARK       I    between atoms: C11_11  and  C12_12 
REMARK       I    between atoms: C12_12  and  C13_13 
REMARK       I    between atoms: C13_13  and  C14_14 
REMARK       I    between atoms: C14_14  and  C15_15 
REMARK       I    between atoms: C14_14  and  N5_63 
REMARK       I    between atoms: C15_15  and  C16_16 
REMARK       I    between atoms: C15_15  and  O4_83 
REMARK       I    between atoms: C16_16  and  N4_62 
REMARK       I    between atoms: C17_17  and  C18_18 
REMARK       I    between atoms: C17_17  and  N5_63 
REMARK       I    between atoms: C18_18  and  C19_19 
REMARK       I    between atoms: C18_18  and  C26_26 
REMARK       I    between atoms: C19_19  and  C20_20 
REMARK       I    between atoms: C20_20  and  C21_21 
REMARK       I    between atoms: C21_21  and  C22_22 
REMARK       I    between atoms: C21_21  and  N7_65 
REMARK       I    between atoms: C22_22  and  C23_23 
REMARK       I    between atoms: C23_23  and  C24_24 
REMARK       I    between atoms: C24_24  and  C25_25 
REMARK       I    between atoms: C25_25  and  N6_64 
REMARK       I    between atoms: C26_26  and  C27_27 
REMARK       I    between atoms: C26_26  and  O7_86 
REMARK       I    between atoms: C27_27  and  N8_66 
REMARK       I    between atoms: C28_28  and  N9_67 
REMARK       I    between atoms: C29_29  and  C30_30 
REMARK       I    between atoms: C29_29  and  C34_34 
REMARK       I    between atoms: C29_29  and  N9_67 
REMARK       I    between atoms: C30_30  and  C31_31 
REMARK       I    between atoms: C34_34  and  C35_35 
REMARK       I    between atoms: C35_35  and  C36_36 
REMARK       I    between atoms: C36_36  and  C37_37 
REMARK       I    between atoms: C36_36  and  C41_41 
REMARK       I    between atoms: C37_37  and  C38_38 
REMARK       I    between atoms: C38_38  and  C39_39 
REMARK       I    between atoms: C39_39  and  C40_40 
REMARK       I    between atoms: C40_40  and  N12_71 
REMARK       I    between atoms: C41_41  and  N13_72 
REMARK       I    between atoms: C42_42  and  C47_47 
REMARK       I    between atoms: C42_42  and  N13_72 
REMARK       I    between atoms: C43_43  and  C44_44 
REMARK       I    between atoms: C44_44  and  C45_45 
REMARK       I    between atoms: C45_45  and  N14_73 
REMARK       I    between atoms: C46_46  and  N15_75 
REMARK       I    between atoms: C46_46  and  N16_76 
REMARK       I    between atoms: C47_47  and  C48_48 
REMARK       I    between atoms: C48_48  and  C49_49 
REMARK       I    between atoms: C49_49  and  C50_50 
REMARK       I    between atoms: C49_49  and  C54_54 
REMARK       I    between atoms: C50_50  and  C51_51 
REMARK       I    between atoms: C51_51  and  C52_52 
REMARK       I    between atoms: C52_52  and  C53_53 
REMARK       I    between atoms: C52_52  and  O12_91 
REMARK       I    between atoms: C53_53  and  N17_77 
REMARK       I    between atoms: C54_54  and  N18_78 
REMARK       I    between atoms: C55_55  and  C56_56 
REMARK       I    between atoms: C55_55  and  N18_78 
REMARK       I    between atoms: C56_56  and  C57_57 
REMARK       I    between atoms: C57_57  and  C58_58 
REMARK       I    between atoms: C58_58  and  N19_79 
USER                              x       y       z     vdW  Elec       q    Type
USER                           _______ _______ _______ _____ _____    ______ ____
ROOT
ATOM      1  C1  UNL     1       2.377   0.436   5.275 +0.15 +0.00    +0.022 C 
ATOM      2  C2  UNL     1       2.397   1.807   4.605 -0.19 +0.00    +0.037 C 
ATOM      3  C3  UNL     1       3.883   2.179   4.595 -0.23 +0.00    +0.179 C 
ATOM      4  C4  UNL     1       3.480   0.552   6.312+24.85 +0.00    +0.127 C 
ATOM      5  C5  UNL     1       5.680   1.646   6.297+99.99 +0.00    +0.243 C 
ATOM      6  C6  UNL     1       6.756   2.422   5.504+99.99 +0.00    +0.176 C 
ATOM      7  C7  UNL     1       7.882   1.454   5.110+99.99 +0.00    +0.036 C 
ATOM      8  C8  UNL     1       8.622   1.860   3.828+99.99 +0.00    +0.032 C 
ATOM      9  C9  UNL     1       9.365   3.188   3.934 -0.07 +0.00    +0.267 C 
ATOM     10  C10 UNL     1       6.635   4.742   6.290 -0.33 +0.00    +0.218 C 
ATOM     11  C11 UNL     1       7.216   5.745   7.256 -0.19 +0.00    +0.110 C 
ATOM     12  C12 UNL     1       6.845   7.163   6.842+99.99 +0.00    +0.090 C 
ATOM     13  C13 UNL     1       7.535   8.195   7.707+99.99 +0.00    +0.152 C 
ATOM     14  C14 UNL     1       7.542   9.640   7.189+99.99 +0.00    +0.184 C 
ATOM     15  C15 UNL     1       6.169  10.310   7.413+99.99 +0.00    +0.176 C 
ATOM     16  C16 UNL     1       5.809  10.613   8.886 +6.16 +0.00    +0.300 C 
ATOM     17  C17 UNL     1       9.910  10.398   7.280+99.99 +0.00    +0.225 C 
ATOM     18  C18 UNL     1      10.952  11.041   8.202+99.99 +0.00    +0.115 C 
ATOM     19  C19 UNL     1      12.301  11.140   7.476+65.05 +0.00    +0.097 C 
ATOM     20  C20 UNL     1      13.329  11.933   8.265 +0.02 +0.00    +0.160 C 
ATOM     21  C21 UNL     1      14.792  11.830   7.796 +1.56 +0.00    +0.286 C 
ATOM     22  C22 UNL     1      15.006  12.775   6.610+99.99 +0.00    +0.043 C 
ATOM     23  C23 UNL     1      16.416  12.767   6.008+99.99 +0.00    +0.004 C 
ATOM     24  C24 UNL     1      16.840  11.379   5.520+30.80 +0.00    +0.030 C 
ATOM     25  C25 UNL     1      18.005  11.400   4.526+27.26 +0.00    +0.267 C 
ATOM     26  C26 UNL     1      11.021  10.324   9.574+99.99 +0.00    +0.159 C 
ATOM     27  C27 UNL     1      11.287   8.805   9.516+99.99 +0.00    +0.298 C 
ATOM     28  C28 UNL     1       4.515   1.917   3.218 -0.17 +0.00    +0.241 C 
ATOM     29  C29 UNL     1       4.987   2.948   1.018 -0.08 +0.00    +0.160 C 
ATOM     30  C30 UNL     1       4.384   1.984  -0.014 -0.12 +0.00    +0.091 C 
ATOM     31  C31 UNL     1       5.312   1.691  -1.145 -0.10 +0.00    +0.028 A 
ATOM     32  C32 UNL     1       6.581   1.152  -1.175 -0.10 +0.00    +0.114 A 
ATOM     33  C33 UNL     1       6.043   1.467  -3.216 -0.06 +0.00    +0.180 A 
ATOM     34  C34 UNL     1       4.887   4.398   0.530 -0.15 +0.00    +0.150 C 
ATOM     35  C35 UNL     1       6.138   5.099   0.020 -0.17 +0.00    +0.094 C 
ATOM     36  C36 UNL     1       7.284   5.200   1.041 -0.15 +0.00    +0.085 C 
ATOM     37  C37 UNL     1       6.853   5.772   2.414 -0.22 +0.00    +0.014 C 
ATOM     38  C38 UNL     1       5.954   7.020   2.450 -0.30 +0.00    +0.002 C 
ATOM     39  C39 UNL     1       6.560   8.344   1.976 +0.04 +0.00    +0.030 C 
ATOM     40  C40 UNL     1       7.387   9.097   3.026 +7.60 +0.00    +0.267 C 
ATOM     41  C41 UNL     1       8.540   5.901   0.476 -0.13 +0.00    +0.226 C 
ATOM     42  C42 UNL     1      10.081   5.782  -1.453 -0.23 +0.00    +0.077 C 
ATOM     43  C43 UNL     1      10.324   5.359  -2.706 -0.27 +0.00    +0.008 C 
ATOM     44  C44 UNL     1       9.431   4.523  -3.582 -0.14 +0.00    +0.049 C 
ATOM     45  C45 UNL     1       9.410   3.032  -3.254 +6.85 +0.00    +0.125 C 
ATOM     46  C46 UNL     1      10.854   1.214  -3.088 +1.33 +0.00    +0.121 C 
ATOM     47  C47 UNL     1      11.113   6.723  -0.903 -0.28 +0.00    +0.176 C 
ATOM     48  C48 UNL     1      11.943   6.261   0.285 -0.42 +0.00    +0.099 C 
ATOM     49  C49 UNL     1      12.511   7.472   1.066 +5.98 +0.00    +0.085 C 
ATOM     50  C50 UNL     1      12.502   7.195   2.585 -0.38 +0.00    +0.017 C 
ATOM     51  C51 UNL     1      12.372   8.435   3.491 -0.23 +0.00    +0.034 C 
ATOM     52  C52 UNL     1      13.547   9.417   3.591 +7.97 +0.00    +0.146 C 
ATOM     53  C53 UNL     1      13.540  10.500   2.492+48.29 +0.00    +0.298 C 
ATOM     54  C54 UNL     1      13.929   7.728   0.537+12.29 +0.00    +0.222 C 
ATOM     55  C55 UNL     1      15.194   8.281  -1.535+99.99 +0.00    +0.122 C 
ATOM     56  C56 UNL     1      15.730   9.711  -1.576+99.99 +0.00    +0.021 C 
ATOM     57  C57 UNL     1      16.729  10.013  -0.454 +1.53 +0.00    +0.031 C 
ATOM     58  C58 UNL     1      17.303  11.422  -0.613+37.92 +0.00    +0.267 C 
ATOM     59  N1  UNL     1       4.479   1.380   5.670 +0.54 -0.00    -0.337 N 
ATOM     60  N2  UNL     1      10.053   3.475   2.677 +7.08 +0.00    +0.078 N 
ATOM     61  N3  UNL     1       7.250   3.509   6.341 +0.48 -0.00    -0.348 N 
ATOM     62  N4  UNL     1       5.560   9.427   9.699 +9.60 +0.00    +0.080 N 
ATOM     63  N5  UNL     1       8.646  10.360   7.830+99.99 -0.00    -0.347 N 
ATOM     64  N6  UNL     1      17.693  12.137   3.300 +0.48 +0.00    +0.078 N 
ATOM     65  N7  UNL     1      15.686  12.192   8.917+65.97 +0.00    +0.090 N 
ATOM     66  N8  UNL     1      12.695   8.495   9.259 +2.13 +0.00    +0.080 N 
ATOM     67  N9  UNL     1       4.256   2.898   2.284 -0.01 -0.00    -0.348 N 
ATOM     68  N10 UNL     1       7.036   1.048  -2.465 -0.03 -0.00    -0.360 N 
ATOM     69  H10 UNL     1       7.949   0.716  -2.775 +0.06 +0.00    +0.166 HD
ATOM     70  N11 UNL     1       4.978   1.873  -2.464 -0.01 -0.00    -0.354 N 
ATOM     71  N12 UNL     1       8.498   8.324   3.556 +0.11 +0.00    +0.078 N 
ATOM     72  N13 UNL     1       8.971   5.389  -0.737 -0.04 -0.00    -0.324 N 
ATOM     73  N14 UNL     1      10.737   2.446  -3.422 +9.62 -0.00    -0.371 N 
ATOM     74  H14 UNL     1      11.525   2.984  -3.784 +0.24 +0.00    +0.161 HD
ATOM     75  N15 UNL     1      12.049   0.597  -3.211 -0.82 -0.00    -0.279 NA
ATOM     76  N16 UNL     1       9.942   0.354  -2.580 -0.41 -0.00    -0.279 NA
ATOM     77  N17 UNL     1      14.739  11.343   2.567 +2.65 +0.00    +0.080 N 
ATOM     78  N18 UNL     1      13.972   8.154  -0.768 +9.23 -0.00    -0.361 N 
ATOM     79  N19 UNL     1      18.371  11.698   0.337 -0.48 +0.00    +0.078 N 
ATOM     80  O1  UNL     1       5.922   1.242   7.439+99.99 -0.00    -0.271 OA
ATOM     81  O2  UNL     1       5.705   4.995   5.530 -0.18 -0.00    -0.274 OA
ATOM     82  O3  UNL     1       7.999   7.902   8.814 +4.58 -0.00    -0.296 OA
ATOM     83  O4  UNL     1       6.123  11.537   6.661+99.99 -0.00    -0.391 OA
ATOM     84  O5  UNL     1      10.160   9.994   6.148 +7.58 -0.00    -0.273 OA
ATOM     85  O6  UNL     1      13.006  12.656   9.213 -0.59 -0.00    -0.296 OA
ATOM     86  O7  UNL     1       9.793  10.565  10.288+99.99 -0.00    -0.393 OA
ATOM     87  O8  UNL     1       5.226   0.947   2.966 -0.26 -0.00    -0.271 OA
ATOM     88  O9  UNL     1       3.798   4.983   0.529 -0.30 -0.00    -0.296 OA
ATOM     89  O10 UNL     1       9.131   6.797   1.074 -0.18 -0.00    -0.273 OA
ATOM     90  O11 UNL     1      11.358   7.779  -1.497 -0.01 -0.00    -0.291 OA
ATOM     91  O12 UNL     1      14.797   8.726   3.646 -0.24 -0.00    -0.394 OA
ATOM     92  O13 UNL     1      14.936   7.571   1.220+10.39 -0.00    -0.273 OA
ATOM     93  H77 UNL     1      10.779   2.774   2.527+18.40 +0.00    +0.312 HD
ATOM     94  H78 UNL     1      10.547   4.363   2.780 -0.42 +0.00    +0.312 HD
ATOM     95  H79 UNL     1       7.664   3.239   7.228 -0.00 +0.00    +0.163 HD
ATOM     96  H80 UNL     1       6.439   8.919   9.860 +0.87 +0.00    +0.312 HD
ATOM     97  H81 UNL     1       5.262   9.717  10.632 +0.65 +0.00    +0.312 HD
ATOM     98  H82 UNL     1       8.636  10.367   8.851+99.99 +0.00    +0.163 HD
ATOM     99  H83 UNL     1      16.672  12.192   3.200 +0.28 +0.00    +0.312 HD
ATOM    100  H84 UNL     1      17.980  13.109   3.423 +0.37 +0.00    +0.312 HD
ATOM    101  H85 UNL     1      15.487  11.567   9.699 +5.98 +0.00    +0.313 HD
ATOM    102  H86 UNL     1      15.392  13.112   9.256+99.99 +0.00    +0.313 HD
ATOM    103  H87 UNL     1      13.237   8.695  10.101 +0.97 +0.00    +0.312 HD
ATOM    104  H88 UNL     1      12.784   7.487   9.118 +0.26 +0.00    +0.312 HD
ATOM    105  H89 UNL     1       3.681   3.701   2.530 +0.05 +0.00    +0.163 HD
ATOM    106  H90 UNL     1       4.094   2.213  -2.823 +0.03 +0.00    +0.166 HD
ATOM    107  H91 UNL     1       9.041   7.949   2.769 +0.19 +0.00    +0.312 HD
ATOM    108  H92 UNL     1       9.131   8.941   4.073 +0.09 +0.00    +0.312 HD
ATOM    109  H93 UNL     1       8.429   4.648  -1.155 +0.06 +0.00    +0.169 HD
ATOM    110  H94 UNL     1      12.289   0.061  -2.386 +0.01 +0.00    +0.126 HD
ATOM    111  H95 UNL     1      12.770   1.281  -3.419 +0.38 +0.00    +0.126 HD
ATOM    112  H96 UNL     1      10.033  -0.580  -2.960 +0.08 +0.00    +0.126 HD
ATOM    113  H97 UNL     1       8.965   0.653  -2.642 +0.05 +0.00    +0.126 HD
ATOM    114  H98 UNL     1      14.876  11.799   1.666 +0.22 +0.00    +0.312 HD
ATOM    115  H99 UNL     1      15.528  10.694   2.676 +0.20 +0.00    +0.312 HD
ATOM    116  HA0 UNL     1      13.087   8.308  -1.256 +4.27 +0.00    +0.162 HD
ATOM    117  HA1 UNL     1      19.044  10.933   0.344 +0.27 +0.00    +0.312 HD
ATOM    118  HA2 UNL     1      18.010  11.729   1.302 +0.28 +0.00    +0.312 HD
ATOM    119  HA3 UNL     1       5.221  11.890   6.733 +1.86 +0.00    +0.210 HD
ATOM    120  HA4 UNL     1       9.888  11.448  10.696+99.99 +0.00    +0.210 HD
ATOM    121  HA5 UNL     1      14.971   8.321   2.770 -0.01 +0.00    +0.210 HD
ENDROOT
TORSDOF 61
TER
