USER    Run = 1
USER    DPF = ligand_366_receptor.dpf
USER  
USER    Estimated Free Energy of Binding    =  +4.95e+003 kcal/mol  [=(1)+(2)+(3)-(4)]
USER    
USER    (1) Final Intermolecular Energy     =  +4.95e+003 kcal/mol
USER        vdW + Hbond + desolv Energy     =  +4.95e+003 kcal/mol
USER        Electrostatic Energy            =   +0.00 kcal/mol
USER    (2) Final Total Internal Energy     =  +11.30 kcal/mol
USER    (3) Torsional Free Energy           =   +1.19 kcal/mol
USER    (4) Unbound System's Energy  [=(2)] =  +11.30 kcal/mol
USER    
USER    
USER    NEWDPF move ligand_366.pdbqt
USER    NEWDPF about 0.000000 0.000000 0.000000
USER    NEWDPF tran0 9.799460 7.826940 0.708396
USER    NEWDPF quaternion0 -0.194151 -0.792127 0.527653 0.237534
USER    NEWDPF axisangle0 -0.199872 -0.815466 0.543200 152.517940
USER    NEWDPF quat0 -0.199872 -0.815466 0.543200 152.517940
USER    NEWDPF dihe0 180.00 175.59 42.09 115.27 -9.90 -158.08 -82.71 54.63 80.61 107.49 111.07 100.75 -179.91 -8.24 -109.33 112.60 180.00 -114.78 -180.00 -180.00 180.00 40.50 -107.90 161.60 14.24 180.00 -140.84 130.34 
USER  keepresnum = 1 
USER  
REMARK  28 active torsions:
REMARK  status: ('A' for Active; 'I' for Inactive)
REMARK    1  A    between atoms: C2_2  and  C3_3 
REMARK    2  A    between atoms: C3_3  and  C4_4 
REMARK    3  A    between atoms: C4_4  and  C5_5 
REMARK    4  A    between atoms: C4_4  and  O17_75 
REMARK    5  A    between atoms: C5_5  and  C6_6 
REMARK    6  A    between atoms: C6_6  and  C7_7 
REMARK    7  A    between atoms: C7_7  and  C8_8 
REMARK    8  A    between atoms: C8_8  and  C9_9 
REMARK    9  A    between atoms: C9_9  and  C10_10 
REMARK   10  A    between atoms: C10_10  and  C11_11 
REMARK   11  A    between atoms: C11_11  and  C12_12 
REMARK   12  A    between atoms: C12_12  and  C13_13 
REMARK   13  A    between atoms: C13_13  and  C14_14 
REMARK   14  A    between atoms: C14_14  and  C15_15 
REMARK   15  A    between atoms: C15_15  and  C17_17 
REMARK   16  A    between atoms: C18_18  and  O16_74 
REMARK   17  A    between atoms: C20_20  and  C56_56 
REMARK   18  A    between atoms: C26_26  and  C54_54 
REMARK   19  A    between atoms: C28_28  and  C52_52 
REMARK   20  A    between atoms: C30_30  and  C49_49 
REMARK   21  A    between atoms: C34_34  and  C46_46 
REMARK   22  A    between atoms: C36_36  and  C43_43 
REMARK   23  A    between atoms: C43_43  and  C44_44 
REMARK       I    between atoms: C44_44  and  N11_86 
REMARK   24  A    between atoms: C46_46  and  O12_70 
REMARK   25  A    between atoms: C49_49  and  C50_50 
REMARK   26  A    between atoms: C50_50  and  C51_51 
REMARK       I    between atoms: C51_51  and  N12_87 
REMARK   27  A    between atoms: C52_52  and  O14_72 
REMARK   28  A    between atoms: C54_54  and  O15_73 
USER                              x       y       z     vdW  Elec       q    Type
USER                           _______ _______ _______ _____ _____    ______ ____
ROOT
ATOM      1  C17 UNL     1       8.819   8.537   0.886+14.21 +0.00    +0.126 C 
ATOM      2  C18 UNL     1       8.190   7.302   1.605 -0.27 +0.00    +0.232 C 
ATOM      3  C19 UNL     1       7.826   7.581   3.078 +0.03 +0.00    +0.249 C 
ATOM      4  C20 UNL     1       7.258   6.386   5.200 +2.64 +0.00    +0.180 C 
ATOM      5  C21 UNL     1       8.226   5.341   5.812 -0.17 +0.00    +0.245 C 
ATOM      6  C22 UNL     1       8.671   4.236   7.996 -0.54 +0.00    +0.099 C 
ATOM      7  C23 UNL     1       8.593   4.391   9.332 +2.24 +0.00    +0.004 C 
ATOM      8  C24 UNL     1       9.088   3.453  10.393+99.99 +0.00    +0.038 C 
ATOM      9  C25 UNL     1       9.235   2.936   7.471 -0.19 +0.00    +0.268 C 
ATOM     10  C26 UNL     1      10.999   1.876   6.088+32.26 +0.00    +0.205 C 
ATOM     11  C27 UNL     1      12.326   2.375   5.497+51.87 +0.00    +0.243 C 
ATOM     12  C28 UNL     1      14.508   3.400   6.128+71.85 +0.00    +0.205 C 
ATOM     13  C29 UNL     1      14.202   4.912   6.130 +2.13 +0.00    +0.243 C 
ATOM     14  C30 UNL     1      13.135   6.743   4.856 -0.37 +0.00    +0.177 C 
ATOM     15  C31 UNL     1      14.293   7.331   4.020 -0.34 +0.00    +0.240 C 
ATOM     16  C32 UNL     1      15.636   9.361   3.616 -0.23 +0.00    +0.225 C 
ATOM     17  C33 UNL     1      15.008  10.286   2.564 +1.28 +0.00    +0.236 C 
ATOM     18  C34 UNL     1      15.588  11.629   0.506 -0.02 +0.00    +0.205 C 
ATOM     19  C35 UNL     1      14.947  10.853  -0.673+99.99 +0.00    +0.245 C 
ATOM     20  C36 UNL     1      13.241  10.411  -2.382+99.99 +0.00    +0.187 C 
ATOM     21  C37 UNL     1      12.103   9.351  -2.327+99.99 +0.00    +0.244 C 
ATOM     22  C38 UNL     1      13.433   7.834  -0.780+16.21 +0.00    +0.127 C 
ATOM     23  C39 UNL     1      13.057   6.502  -0.149 -0.41 +0.00    +0.022 C 
ATOM     24  C40 UNL     1      12.106   5.892  -1.168 -0.36 +0.00    +0.037 C 
ATOM     25  C41 UNL     1      11.326   7.097  -1.700 -0.23 +0.00    +0.179 C 
ATOM     26  C42 UNL     1       9.995   7.257  -0.940 -0.23 +0.00    +0.241 C 
ATOM     27  C45 UNL     1      12.562  11.616  -0.294+68.60 +0.00    +0.153 C 
ATOM     28  O1  UNL     1       7.822   8.693   3.602 +4.61 -0.00    -0.271 OA
ATOM     29  O2  UNL     1       9.003   4.699   5.108 -0.17 -0.00    -0.271 OA
ATOM     30  O3  UNL     1       8.778   1.850   7.821 +3.57 -0.00    -0.266 OA
ATOM     31  O4  UNL     1      12.534   2.539   4.297 +6.32 -0.00    -0.271 OA
ATOM     32  O5  UNL     1      14.586   5.668   7.020 -0.41 -0.00    -0.271 OA
ATOM     33  O6  UNL     1      14.839   6.705   3.112 +5.68 -0.00    -0.271 OA
ATOM     34  O7  UNL     1      13.846  10.678   2.620+15.46 -0.00    -0.272 OA
ATOM     35  O8  UNL     1      15.674  10.022  -1.244+99.99 -0.00    -0.271 OA
ATOM     36  O9  UNL     1      11.088   9.479  -3.020 -0.20 -0.00    -0.271 OA
ATOM     37  O10 UNL     1       9.040   6.497  -1.115 -0.17 -0.00    -0.271 OA
ATOM     38  N1  UNL     1       7.490   6.430   3.758 -0.04 -0.00    -0.345 N 
ATOM     39  N2  UNL     1       8.159   5.234   7.185 -0.22 -0.00    -0.321 N 
ATOM     40  N3  UNL     1      10.302   3.047   6.627 -0.21 -0.00    -0.340 N 
ATOM     41  N4  UNL     1      13.254   2.718   6.459+52.25 -0.00    -0.344 N 
ATOM     42  N5  UNL     1      13.405   5.328   5.086 +0.25 -0.00    -0.346 N 
ATOM     43  N6  UNL     1      14.636   8.621   4.355 -0.19 -0.00    -0.351 N 
ATOM     44  N7  UNL     1      15.893  10.683   1.593 -0.22 -0.00    -0.344 N 
ATOM     45  N8  UNL     1      13.612  10.953  -1.049+19.08 -0.00    -0.341 N 
ATOM     46  N9  UNL     1      12.247   8.232  -1.530+45.70 -0.00    -0.337 N 
ATOM     47  N10 UNL     1      10.000   8.187   0.074 +2.30 -0.00    -0.351 N 
ATOM     48  H89 UNL     1       7.894   5.586   3.344 +0.08 +0.00    +0.163 HD
ATOM     49  H90 UNL     1       7.682   5.985   7.669 +0.09 +0.00    +0.169 HD
ATOM     50  H91 UNL     1      10.348   3.910   6.085 +0.11 +0.00    +0.163 HD
ATOM     51  H92 UNL     1      12.943   2.798   7.422 +0.45 +0.00    +0.163 HD
ATOM     52  H93 UNL     1      13.314   4.694   4.292 +2.94 +0.00    +0.163 HD
ATOM     53  H94 UNL     1      13.991   9.162   4.935 +0.12 +0.00    +0.163 HD
ATOM     54  H95 UNL     1      16.755  10.165   1.485 +0.13 +0.00    +0.163 HD
ATOM     55  H96 UNL     1      10.807   8.801   0.103 +2.06 +0.00    +0.163 HD
ENDROOT
BRANCH   1  56
ATOM     56  C15 UNL     1       7.782   9.353   0.040+81.51 +0.00    +0.007 C 
ATOM     57  C16 UNL     1       8.429  10.524  -0.711+99.99 +0.00    +0.012 C 
BRANCH  56  58
ATOM     58  C14 UNL     1       7.046   8.420  -0.957 +0.56 +0.00    +0.006 C 
BRANCH  58  59
ATOM     59  C13 UNL     1       6.752   6.994  -0.472 +0.59 +0.00    +0.000 C 
BRANCH  59  60
ATOM     60  C12 UNL     1       5.259   6.659  -0.448 +2.13 +0.00    +0.000 C 
BRANCH  60  61
ATOM     61  C11 UNL     1       4.975   5.467   0.468 -0.21 +0.00    +0.000 C 
BRANCH  61  62
ATOM     62  C10 UNL     1       6.185   4.549   0.671 -0.17 +0.00    +0.000 C 
BRANCH  62  63
ATOM     63  C9  UNL     1       6.985   4.305  -0.612 -0.14 +0.00    +0.000 C 
BRANCH  63  64
ATOM     64  C8  UNL     1       7.464   2.857  -0.764 -0.11 +0.00    +0.000 C 
BRANCH  64  65
ATOM     65  C7  UNL     1       6.756   2.097  -1.889 -0.12 +0.00    +0.000 C 
BRANCH  65  66
ATOM     66  C6  UNL     1       5.704   2.939  -2.624 -0.13 +0.00    +0.002 C 
BRANCH  66  67
ATOM     67  C5  UNL     1       4.270   2.432  -2.421 -0.09 +0.00    +0.032 C 
BRANCH  67  68
ATOM     68  C4  UNL     1       4.175   1.073  -1.708 -0.11 +0.00    +0.118 C 
BRANCH  68  69
ATOM     69  C3  UNL     1       4.929   1.042  -0.372 -0.16 +0.00    +0.031 C 
BRANCH  69  70
ATOM     70  C2  UNL     1       4.058   1.370   0.847 -0.19 -0.00    -0.002 C 
ATOM     71  C1  UNL     1       3.891   0.203   1.808 +0.64 +0.00    +0.005 C 
ENDBRANCH  69  70
ENDBRANCH  68  69
BRANCH  68  72
ATOM     72  O17 UNL     1       4.684   0.045  -2.554 -0.02 -0.00    -0.396 OA
ATOM     73  H88 UNL     1       5.448  -0.354  -2.103 +0.05 +0.00    +0.210 HD
ENDBRANCH  68  72
ENDBRANCH  67  68
ENDBRANCH  66  67
ENDBRANCH  65  66
ENDBRANCH  64  65
ENDBRANCH  63  64
ENDBRANCH  62  63
ENDBRANCH  61  62
ENDBRANCH  60  61
ENDBRANCH  59  60
ENDBRANCH  58  59
ENDBRANCH  56  58
ENDBRANCH   1  56
BRANCH   2  74
ATOM     74  O16 UNL     1       9.080   6.170   1.649 -0.08 -0.00    -0.384 OA
ATOM     75  H87 UNL     1       9.610   6.246   0.829 +0.11 +0.00    +0.210 HD
ENDBRANCH   2  74
BRANCH   4  76
ATOM     76  C56 UNL     1       5.779   6.079   5.527 +0.28 +0.00    +0.009 C 
ATOM     77  C57 UNL     1       4.902   6.180   4.274 +0.04 +0.00    +0.012 C 
ATOM     78  C58 UNL     1       5.588   4.709   6.187 -0.43 +0.00    +0.012 C 
ENDBRANCH   4  76
BRANCH  20  79
ATOM     79  C43 UNL     1      12.842  11.522  -3.375+22.50 +0.00    +0.137 C 
BRANCH  79  80
ATOM     80  C44 UNL     1      11.990  12.612  -2.770+99.99 +0.00    +0.217 C 
ATOM     81  O11 UNL     1      12.407  13.635  -2.247+53.15 -0.00    -0.274 OA
ATOM     82  N11 UNL     1      10.649  12.348  -2.798+28.86 -0.00    -0.370 N 
ATOM     83  H97 UNL     1      10.036  13.088  -2.476 +5.79 +0.00    +0.159 HD
ATOM     84  H98 UNL     1      10.254  11.645  -3.408 +1.13 +0.00    +0.159 HD
ENDBRANCH  79  80
ENDBRANCH  20  79
BRANCH  18  85
ATOM     85  C46 UNL     1      15.080  13.011   0.967+99.99 +0.00    +0.148 C 
ATOM     86  C47 UNL     1      13.621  13.241   0.569+99.99 +0.00    +0.042 C 
BRANCH  85  87
ATOM     87  O12 UNL     1      15.865  14.018   0.285+50.35 -0.00    -0.389 OA
ATOM     88  C48 UNL     1      17.200  13.599   0.029+20.11 +0.00    +0.202 C 
ENDBRANCH  85  87
ENDBRANCH  18  85
BRANCH  10  89
ATOM     89  C54 UNL     1      10.197   1.017   5.084+99.99 +0.00    +0.146 C 
ATOM     90  C55 UNL     1      11.011   0.345   3.989+99.99 +0.00    +0.042 C 
BRANCH  89  91
ATOM     91  O15 UNL     1       9.174   1.805   4.453+99.21 -0.00    -0.393 OA
ATOM     92  H86 UNL     1       9.527   2.719   4.358 -0.31 +0.00    +0.210 HD
ENDBRANCH  89  91
ENDBRANCH  10  89
BRANCH  12  93
ATOM     93  C52 UNL     1      15.594   3.022   7.157+78.53 +0.00    +0.146 C 
ATOM     94  C53 UNL     1      15.404   3.691   8.513+99.99 +0.00    +0.042 C 
BRANCH  93  95
ATOM     95  O14 UNL     1      15.675   1.601   7.327+99.99 -0.00    -0.393 OA
ATOM     96  H85 UNL     1      16.631   1.381   7.372 +0.71 +0.00    +0.210 HD
ENDBRANCH  93  95
ENDBRANCH  12  93
BRANCH  14  97
ATOM     97  C49 UNL     1      11.793   6.893   4.130 -0.40 +0.00    +0.044 C 
BRANCH  97  98
ATOM     98  C50 UNL     1      10.570   6.521   4.956 -0.29 +0.00    +0.105 C 
BRANCH  98  99
ATOM     99  C51 UNL     1      10.566   7.202   6.302 -0.01 +0.00    +0.215 C 
ATOM    100  O13 UNL     1      10.876   6.618   7.336 +0.26 -0.00    -0.274 OA
ATOM    101  N12 UNL     1      10.123   8.489   6.310 +3.70 -0.00    -0.370 N 
ATOM    102  H99 UNL     1      10.142   9.055   5.460 +0.07 +0.00    +0.159 HD
ATOM    103  HA0 UNL     1      10.230   8.991   7.182 +0.11 +0.00    +0.159 HD
ENDBRANCH  98  99
ENDBRANCH  97  98
ENDBRANCH  14  97
TORSDOF 28
TER
