USER    Run = 1
USER    DPF = ligand_474_receptor.dpf
USER  
USER    Estimated Free Energy of Binding    =  +6.36e+003 kcal/mol  [=(1)+(2)+(3)-(4)]
USER    
USER    (1) Final Intermolecular Energy     =  +6.36e+003 kcal/mol
USER        vdW + Hbond + desolv Energy     =  +6.36e+003 kcal/mol
USER        Electrostatic Energy            =   +0.00 kcal/mol
USER    (2) Final Total Internal Energy     =   +0.00 kcal/mol
USER    (3) Torsional Free Energy           =   +1.19 kcal/mol
USER    (4) Unbound System's Energy  [=(2)] =   +0.00 kcal/mol
USER    
USER    
USER    NEWDPF move ligand_474.pdbqt
USER    NEWDPF about 0.000000 0.000000 0.000000
USER    NEWDPF tran0 18.587856 7.206376 3.365680
USER    NEWDPF quaternion0 -0.534633 0.064864 0.075640 -0.839190
USER    NEWDPF axisangle0 -0.983072 0.119270 0.139086 -65.890717
USER    NEWDPF quat0 -0.983072 0.119270 0.139086 -65.890717
USER  keepresnum = 1 
USER  
REMARK  0 active torsions:
REMARK  status: ('A' for Active; 'I' for Inactive)
REMARK       I    between atoms: C2_2  and  C3_3 
REMARK       I    between atoms: C3_3  and  C5_5 
REMARK       I    between atoms: C5_5  and  C6_6 
REMARK       I    between atoms: C5_5  and  N5_69 
REMARK       I    between atoms: C6_6  and  C7_7 
REMARK       I    between atoms: C6_6  and  O5_59 
REMARK       I    between atoms: C7_7  and  C8_8 
REMARK       I    between atoms: C8_8  and  N1_65 
REMARK       I    between atoms: C12_12  and  C13_13 
REMARK       I    between atoms: C13_13  and  C14_14 
REMARK       I    between atoms: C13_13  and  O4_58 
REMARK       I    between atoms: C14_14  and  C16_16 
REMARK       I    between atoms: C16_16  and  N2_66 
REMARK       I    between atoms: C17_17  and  C18_18 
REMARK       I    between atoms: C17_17  and  C27_27 
REMARK       I    between atoms: C17_17  and  N2_66 
REMARK       I    between atoms: C18_18  and  C19_19 
REMARK       I    between atoms: C27_27  and  N4_68 
REMARK       I    between atoms: C31_31  and  C32_32 
REMARK       I    between atoms: C31_31  and  N5_69 
REMARK       I    between atoms: C32_32  and  C33_33 
REMARK       I    between atoms: C32_32  and  N6_70 
REMARK       I    between atoms: C36_36  and  C37_37 
REMARK       I    between atoms: C36_36  and  N6_70 
REMARK       I    between atoms: C37_37  and  C38_38 
REMARK       I    between atoms: C37_37  and  N7_71 
REMARK       I    between atoms: C42_42  and  C43_43 
REMARK       I    between atoms: C42_42  and  N7_71 
REMARK       I    between atoms: C43_43  and  C44_44 
REMARK       I    between atoms: C44_44  and  C45_45 
REMARK       I    between atoms: C45_45  and  C46_46 
REMARK       I    between atoms: C46_46  and  C47_47 
REMARK       I    between atoms: C47_47  and  N8_72 
REMARK       I    between atoms: C50_50  and  C52_52 
REMARK       I    between atoms: C52_52  and  C53_53 
REMARK       I    between atoms: C53_53  and  C54_54 
REMARK       I    between atoms: C53_53  and  N9_73 
REMARK       I    between atoms: C54_54  and  S1_74 
USER                              x       y       z     vdW  Elec       q    Type
USER                           _______ _______ _______ _____ _____    ______ ____
ROOT
ATOM      1  C1  UNL     1      22.981   8.925   7.534+99.99 +0.00    +0.005 C 
ATOM      2  C2  UNL     1      21.691   9.460   6.924 +2.06 +0.00    +0.002 C 
ATOM      3  C3  UNL     1      21.650   9.380   5.374+14.78 +0.00    +0.006 C 
ATOM      4  C4  UNL     1      22.663  10.379   4.790 -0.09 +0.00    +0.012 C 
ATOM      5  C5  UNL     1      20.201   9.654   4.840+99.99 +0.00    +0.119 C 
ATOM      6  C6  UNL     1      20.051   9.751   3.270 +1.00 +0.00    +0.152 C 
ATOM      7  C7  UNL     1      20.011   8.441   2.485 +8.27 +0.00    +0.137 C 
ATOM      8  C8  UNL     1      21.301   7.653   2.496+99.99 +0.00    +0.222 C 
ATOM      9  C9  UNL     1      22.324   9.163   0.741 -0.38 +0.00    +0.126 C 
ATOM     10  C10 UNL     1      23.353   8.718  -0.283 -0.52 +0.00    +0.022 C 
ATOM     11  C11 UNL     1      24.428   8.089   0.589 -0.48 +0.00    +0.029 C 
ATOM     12  C12 UNL     1      23.623   7.345   1.669 -0.23 +0.00    +0.117 C 
ATOM     13  C13 UNL     1      24.374   7.150   3.025+17.65 +0.00    +0.156 C 
ATOM     14  C14 UNL     1      25.103   5.789   3.161+35.89 +0.00    +0.105 C 
ATOM     15  C15 UNL     1      24.135   4.605   3.264+99.99 +0.00    +0.022 C 
ATOM     16  C16 UNL     1      26.205   5.569   2.130+15.15 +0.00    +0.224 C 
ATOM     17  C17 UNL     1      26.874   4.533  -0.024 -0.27 +0.00    +0.180 C 
ATOM     18  C18 UNL     1      26.421   3.321  -0.849+13.46 +0.00    +0.075 C 
ATOM     19  C19 UNL     1      27.527   2.731  -1.669 +0.07 -0.00    -0.028 A 
ATOM     20  C20 UNL     1      27.785   2.995  -3.000 -0.21 +0.00    +0.096 A 
ATOM     21  C21 UNL     1      29.350   1.529  -2.318 +0.15 +0.00    +0.042 A 
ATOM     22  C22 UNL     1      30.439   0.652  -2.242 +0.04 +0.00    +0.030 A 
ATOM     23  C23 UNL     1      30.687   0.032  -1.014 +8.86 +0.00    +0.002 A 
ATOM     24  C24 UNL     1      29.878   0.279   0.091+99.99 +0.00    +0.001 A 
ATOM     25  C25 UNL     1      28.793   1.160  -0.002+13.53 +0.00    +0.014 A 
ATOM     26  C26 UNL     1      28.520   1.798  -1.230 +2.03 -0.00    -0.002 A 
ATOM     27  C27 UNL     1      27.064   5.775  -0.913 -0.24 +0.00    +0.238 C 
ATOM     28  C28 UNL     1      25.832   8.346   4.533 +2.61 +0.00    +0.202 C 
ATOM     29  C29 UNL     1      18.870  11.296   1.855 -0.45 +0.00    +0.202 C 
ATOM     30  C30 UNL     1      19.340   7.355   5.551+50.81 +0.00    +0.153 C 
ATOM     31  C31 UNL     1      17.821   9.222   5.642+42.03 +0.00    +0.243 C 
ATOM     32  C32 UNL     1      17.522  10.726   5.930 +8.14 +0.00    +0.180 C 
ATOM     33  C33 UNL     1      18.162  11.287   7.231+14.06 +0.00    +0.009 C 
ATOM     34  C34 UNL     1      17.691  12.707   7.558+43.51 +0.00    +0.012 C 
ATOM     35  C35 UNL     1      18.100  10.390   8.471+99.99 +0.00    +0.012 C 
ATOM     36  C36 UNL     1      15.060  10.726   6.551+99.02 +0.00    +0.252 C 
ATOM     37  C37 UNL     1      13.649  10.805   5.879+99.99 +0.00    +0.316 C 
ATOM     38  C38 UNL     1      13.013  12.201   6.162+99.99 +0.00    +0.020 C 
ATOM     39  C39 UNL     1      13.868  13.352   5.616+99.99 +0.00    +0.012 C 
ATOM     40  C40 UNL     1      12.700  12.446   7.642+70.55 +0.00    +0.012 C 
ATOM     41  C41 UNL     1      13.477   8.361   6.048 -0.09 +0.00    +0.310 C 
ATOM     42  C42 UNL     1      11.438   9.635   5.749+99.99 +0.00    +0.273 C 
ATOM     43  C43 UNL     1      11.316   9.596   4.217+16.22 +0.00    +0.030 C 
ATOM     44  C44 UNL     1       9.864   9.631   3.727 +4.10 +0.00    +0.002 C 
ATOM     45  C45 UNL     1       8.975   8.467   4.173 +4.61 +0.00    +0.002 C 
ATOM     46  C46 UNL     1       9.508   7.097   3.753 -0.37 +0.00    +0.020 C 
ATOM     47  C47 UNL     1       8.505   5.987   4.078 -0.20 +0.00    +0.135 C 
ATOM     48  C48 UNL     1       9.757   3.894   4.517 -0.23 +0.00    +0.227 A 
ATOM     49  C49 UNL     1      10.181   2.664   3.772 +1.20 +0.00    +0.125 A 
ATOM     50  C50 UNL     1       9.560   2.823   2.385 +1.88 +0.00    +0.159 A 
ATOM     51  C51 UNL     1       8.906   4.172   2.432 -0.05 +0.00    +0.238 A 
ATOM     52  C52 UNL     1       8.577   1.722   2.016 +0.18 +0.00    +0.174 C 
ATOM     53  C53 UNL     1       7.838   1.817   0.664 -0.11 +0.00    +0.296 C 
ATOM     54  C54 UNL     1       7.329   0.421   0.255 +0.52 +0.00    +0.114 C 
ATOM     55  O1  UNL     1      21.376   6.605   3.140+52.53 -0.00    -0.273 OA
ATOM     56  O2  UNL     1      27.345   6.003   2.301+99.99 -0.00    -0.273 OA
ATOM     57  O3  UNL     1      26.399   6.022  -1.916 -0.25 -0.00    -0.271 OA
ATOM     58  O4  UNL     1      25.240   8.280   3.244 -0.36 -0.00    -0.388 OA
ATOM     59  O5  UNL     1      18.814  10.460   3.005 -0.13 -0.00    -0.388 OA
ATOM     60  O6  UNL     1      16.897   8.401   5.583+15.77 -0.00    -0.271 OA
ATOM     61  O7  UNL     1      15.221  10.490   7.743+15.74 -0.00    -0.271 OA
ATOM     62  O8  UNL     1      10.069   4.140   5.671 -0.24 -0.00    -0.273 OA
ATOM     63  O9  UNL     1       8.363   4.713   1.478 -0.08 -0.00    -0.272 OA
ATOM     64  O10 UNL     1       8.344   0.795   2.797+18.26 -0.00    -0.295 OA
ATOM     65  N1  UNL     1      22.374   8.134   1.773 +0.26 -0.00    -0.345 N 
ATOM     66  N2  UNL     1      25.867   4.870   0.995 -0.09 -0.00    -0.347 N 
ATOM     67  N3  UNL     1      28.880   2.268  -3.378 -0.05 -0.00    -0.365 N 
ATOM     68  N4  UNL     1      27.953   6.695  -0.421 -0.09 -0.00    -0.368 N 
ATOM     69  N5  UNL     1      19.153   8.805   5.490+25.92 -0.00    -0.347 N 
ATOM     70  N6  UNL     1      16.098  10.992   5.673+57.96 -0.00    -0.346 N 
ATOM     71  N7  UNL     1      12.805   9.645   6.293+11.12 +0.00    +0.098 N 
ATOM     72  N8  UNL     1       9.013   4.683   3.691 -0.10 -0.00    -0.288 N 
ATOM     73  N9  UNL     1       8.729   2.393  -0.367 -0.12 +0.00    +0.090 N 
ATOM     74  S1  UNL     1       6.404   0.461  -1.321 -0.15 -0.00    -0.180 SA
ATOM     75  H80 UNL     1      24.896   4.792   0.725 +0.11 +0.00    +0.163 HD
ATOM     76  H81 UNL     1      29.293   2.273  -4.301 +0.05 +0.00    +0.165 HD
ATOM     77  H82 UNL     1      28.141   6.683   0.582 +0.09 +0.00    +0.159 HD
ATOM     78  H83 UNL     1      27.968   7.597  -0.875 +0.08 +0.00    +0.159 HD
ATOM     79  H84 UNL     1      15.856  10.864   4.700 +2.14 +0.00    +0.163 HD
ATOM     80  H85 UNL     1       8.293   2.223  -1.278 +0.12 +0.00    +0.313 HD
ATOM     81  H86 UNL     1       8.705   3.415  -0.266 +0.13 +0.00    +0.313 HD
ATOM     82  H87 UNL     1       6.139  -0.854  -1.367 +0.03 +0.00    +0.101 HD
ENDROOT
TORSDOF 33
TER
