USER    Run = 1
USER    DPF = ligand_160_receptor.dpf
USER  
USER    Estimated Free Energy of Binding    =   -8.93 kcal/mol  [=(1)+(2)+(3)-(4)]
USER    Estimated Inhibition Constant, Ki   =  282.62 nM (nanomolar)  [Temperature = 298.15 K]
USER    
USER    (1) Final Intermolecular Energy     =  -10.13 kcal/mol
USER        vdW + Hbond + desolv Energy     =  -10.13 kcal/mol
USER        Electrostatic Energy            =   +0.00 kcal/mol
USER    (2) Final Total Internal Energy     =   -2.07 kcal/mol
USER    (3) Torsional Free Energy           =   +1.19 kcal/mol
USER    (4) Unbound System's Energy  [=(2)] =   -2.07 kcal/mol
USER    
USER    
USER    NEWDPF move ligand_160.pdbqt
USER    NEWDPF about 0.000000 0.000000 0.000000
USER    NEWDPF tran0 17.076848 7.861758 4.922432
USER    NEWDPF quaternion0 -0.065863 -0.247475 0.952188 0.166601
USER    NEWDPF axisangle0 -0.066797 -0.250983 0.965684 160.819471
USER    NEWDPF quat0 -0.066797 -0.250983 0.965684 160.819471
USER    NEWDPF dihe0 180.00 115.31 132.24 99.00 168.67 -39.95 134.28 -86.97 -49.25 177.31 180.00 154.76 179.96 
USER  keepresnum = 1 
USER  
REMARK  13 active torsions:
REMARK  status: ('A' for Active; 'I' for Inactive)
REMARK    1  A    between atoms: C2_2  and  C3_3 
REMARK    2  A    between atoms: C3_3  and  C4_4 
REMARK    3  A    between atoms: C3_3  and  N10_42 
REMARK    4  A    between atoms: C4_4  and  N1_33 
REMARK    5  A    between atoms: C5_5  and  C6_6 
REMARK       I    between atoms: C5_5  and  N1_33 
REMARK    6  A    between atoms: C8_8  and  N3_35 
REMARK    7  A    between atoms: C11_11  and  C12_12 
REMARK       I    between atoms: C11_11  and  N3_35 
REMARK    8  A    between atoms: C14_14  and  N5_37 
REMARK    9  A    between atoms: C17_17  and  C18_18 
REMARK       I    between atoms: C17_17  and  N5_37 
REMARK   10  A    between atoms: C20_20  and  N7_39 
REMARK   11  A    between atoms: C23_23  and  C24_24 
REMARK       I    between atoms: C23_23  and  N7_39 
REMARK   12  A    between atoms: C26_26  and  N9_41 
REMARK   13  A    between atoms: C29_29  and  C30_30 
REMARK       I    between atoms: C29_29  and  N9_41 
REMARK       I    between atoms: C32_32  and  N11_44 
REMARK       I    between atoms: C32_32  and  N12_45 
USER                              x       y       z     vdW  Elec       q    Type
USER                           _______ _______ _______ _____ _____    ______ ____
ROOT
ATOM      1  C12 UNL     1      18.630   9.465   2.474 -0.35 +0.00    +0.105 A 
ATOM      2  C13 UNL     1      17.606   8.880   3.216 -0.48 +0.00    +0.066 A 
ATOM      3  C14 UNL     1      16.358   9.288   2.680 -0.45 +0.00    +0.053 A 
ATOM      4  C15 UNL     1      16.637  10.113   1.621 -0.40 +0.00    +0.120 A 
ATOM      5  C16 UNL     1      18.652  10.985   0.456 -0.48 +0.00    +0.156 C 
ATOM      6  N4  UNL     1      17.999  10.204   1.487 -0.16 -0.00    -0.354 N 
ENDROOT
BRANCH   1   7
ATOM      7  C11 UNL     1      20.082   9.354   2.619 -0.12 +0.00    +0.273 C 
ATOM      8  N3  UNL     1      20.755   9.233   1.417 +0.71 -0.00    -0.320 N 
ATOM      9  H32 UNL     1      20.215   9.163   0.569 +0.22 +0.00    +0.169 HD
ATOM     10  O2  UNL     1      20.623   9.347   3.721 +0.29 -0.00    -0.266 OA
BRANCH   8  11
ATOM     11  C8  UNL     1      22.125   9.146   1.255 -0.29 +0.00    +0.053 A 
ATOM     12  C7  UNL     1      23.074   9.271   2.297 -0.42 +0.00    +0.066 A 
ATOM     13  C6  UNL     1      24.348   9.155   1.757 -0.38 +0.00    +0.104 A 
ATOM     14  N2  UNL     1      24.172   8.870   0.418 -0.13 -0.00    -0.354 N 
ATOM     15  C9  UNL     1      22.837   8.912   0.103 -0.38 +0.00    +0.120 A 
ATOM     16  C10 UNL     1      25.203   8.484  -0.523 +0.90 +0.00    +0.156 C 
BRANCH  13  17
ATOM     17  C5  UNL     1      25.597   9.252   2.483 -0.43 +0.00    +0.268 C 
ATOM     18  N1  UNL     1      26.509   8.272   2.164 -0.24 -0.00    -0.354 N 
ATOM     19  H31 UNL     1      26.317   7.692   1.360 +0.12 +0.00    +0.162 HD
ATOM     20  O1  UNL     1      25.840  10.161   3.268 -0.94 -0.00    -0.266 OA
BRANCH  18  21
ATOM     21  C4  UNL     1      27.857   8.247   2.710 -0.15 +0.00    +0.148 C 
BRANCH  21  22
ATOM     22  C3  UNL     1      28.936   7.957   1.644 -0.32 +0.00    +0.101 C 
BRANCH  22  23
ATOM     23  C2  UNL     1      29.701   6.638   1.858 -0.20 +0.00    +0.022 C 
ATOM     24  C1  UNL     1      31.197   6.785   2.107 -0.35 +0.00    +0.007 C 
ENDBRANCH  22  23
BRANCH  22  25
ATOM     25  N10 UNL     1      28.312   7.908   0.316 -0.14 -0.00    -0.365 N 
ATOM     26  C32 UNL     1      28.992   7.604  -0.719 -0.25 +0.00    +0.122 C 
ATOM     27  N11 UNL     1      28.395   7.599  -1.929 -0.25 -0.00    -0.279 NA
ATOM     28  N12 UNL     1      30.295   7.272  -0.851 -0.06 -0.00    -0.279 NA
ATOM     29  H36 UNL     1      28.923   8.115  -2.623 +0.03 +0.00    +0.126 HD
ATOM     30  H37 UNL     1      27.458   7.984  -1.846 +0.08 +0.00    +0.126 HD
ATOM     31  H38 UNL     1      30.735   6.954   0.001 +0.05 +0.00    +0.126 HD
ATOM     32  H39 UNL     1      30.432   6.591  -1.591 +0.04 +0.00    +0.126 HD
ATOM     33  H10 UNL     1      27.319   8.121   0.219 +0.09 +0.00    +0.162 HD
ENDBRANCH  22  25
ENDBRANCH  21  22
ENDBRANCH  18  21
ENDBRANCH  13  17
ENDBRANCH   8  11
ENDBRANCH   1   7
BRANCH   3  34
ATOM     34  N5  UNL     1      15.122   8.905   3.165 -0.22 -0.00    -0.320 N 
ATOM     35  C17 UNL     1      14.895   8.127   4.286 -0.35 +0.00    +0.273 C 
ATOM     36  O3  UNL     1      15.752   7.721   5.061 -0.21 -0.00    -0.266 OA
ATOM     37  H33 UNL     1      14.316   9.305   2.706 -0.47 +0.00    +0.169 HD
BRANCH  35  38
ATOM     38  C18 UNL     1      13.483   7.861   4.503 -0.38 +0.00    +0.105 A 
ATOM     39  C19 UNL     1      12.568   7.418   3.559 -0.38 +0.00    +0.066 A 
ATOM     40  C20 UNL     1      11.309   7.262   4.188 -0.35 +0.00    +0.053 A 
ATOM     41  C21 UNL     1      11.473   7.652   5.495 -0.31 +0.00    +0.120 A 
ATOM     42  N6  UNL     1      12.772   8.056   5.669 -0.15 -0.00    -0.354 N 
ATOM     43  C22 UNL     1      13.265   8.674   6.881 -0.22 +0.00    +0.156 C 
BRANCH  40  44
ATOM     44  N7  UNL     1      10.164   6.807   3.562 -0.14 -0.00    -0.320 N 
ATOM     45  C23 UNL     1       9.309   5.827   4.037 -0.15 +0.00    +0.273 C 
ATOM     46  O4  UNL     1       9.454   5.240   5.106 -0.16 -0.00    -0.266 OA
ATOM     47  H34 UNL     1       9.932   7.266   2.693 +0.10 +0.00    +0.169 HD
BRANCH  45  48
ATOM     48  C24 UNL     1       8.179   5.543   3.152 -0.15 +0.00    +0.105 A 
ATOM     49  C25 UNL     1       7.508   4.347   2.913 -0.14 +0.00    +0.066 A 
ATOM     50  C26 UNL     1       6.477   4.575   1.973 -0.10 +0.00    +0.053 A 
ATOM     51  C27 UNL     1       6.519   5.910   1.655 -0.17 +0.00    +0.120 A 
ATOM     52  N8  UNL     1       7.539   6.490   2.369 -0.09 -0.00    -0.354 N 
ATOM     53  C28 UNL     1       7.887   7.894   2.281 -0.19 +0.00    +0.156 C 
BRANCH  50  54
ATOM     54  N9  UNL     1       5.557   3.701   1.428 -0.01 -0.00    -0.321 N 
ATOM     55  C29 UNL     1       4.194   3.927   1.371 -0.07 +0.00    +0.262 C 
ATOM     56  O5  UNL     1       3.596   4.899   1.821 -0.58 -0.00    -0.267 OA
ATOM     57  H35 UNL     1       5.925   2.823   1.088 +0.06 +0.00    +0.169 HD
BRANCH  55  58
ATOM     58  C30 UNL     1       3.442   2.809   0.709 -0.10 +0.00    +0.069 C 
ATOM     59  C31 UNL     1       3.389   1.591   1.272 -0.16 +0.00    +0.037 C 
ATOM     60 BR1  UNL     1       2.664   3.165  -0.950 -0.20 -0.00    -0.046 Br
ENDBRANCH  55  58
ENDBRANCH  50  54
ENDBRANCH  45  48
ENDBRANCH  40  44
ENDBRANCH  35  38
ENDBRANCH   3  34
TORSDOF 13
TER
