USER    Run = 1
USER    DPF = ligand_339_receptor.dpf
USER  
USER    Estimated Free Energy of Binding    =   -0.09 kcal/mol  [=(1)+(2)+(3)-(4)]
USER    Estimated Inhibition Constant, Ki   =  854.90 mM (millimolar)  [Temperature = 298.15 K]
USER    
USER    (1) Final Intermolecular Energy     =   -1.29 kcal/mol
USER        vdW + Hbond + desolv Energy     =   -1.29 kcal/mol
USER        Electrostatic Energy            =   +0.00 kcal/mol
USER    (2) Final Total Internal Energy     =   +0.14 kcal/mol
USER    (3) Torsional Free Energy           =   +1.19 kcal/mol
USER    (4) Unbound System's Energy  [=(2)] =   +0.14 kcal/mol
USER    
USER    
USER    NEWDPF move ligand_339.pdbqt
USER    NEWDPF about 0.000000 0.000000 0.000000
USER    NEWDPF tran0 16.080147 10.112394 1.630555
USER    NEWDPF quaternion0 -0.368971 0.153443 -0.902686 -0.159603
USER    NEWDPF axisangle0 -0.373762 0.155436 -0.914408 -161.632349
USER    NEWDPF quat0 -0.373762 0.155436 -0.914408 -161.632349
USER    NEWDPF dihe0 -108.39 85.03 166.33 68.76 180.00 7.34 172.79 180.00 -95.30 159.41 158.51 165.68 -18.09 
USER  keepresnum = 1 
USER  
REMARK  13 active torsions:
REMARK  status: ('A' for Active; 'I' for Inactive)
REMARK    1  A    between atoms: C2_2  and  C3_3 
REMARK    2  A    between atoms: C2_2  and  O4_50 
REMARK    3  A    between atoms: C3_3  and  C4_4 
REMARK    4  A    between atoms: C3_3  and  C8_8 
REMARK    5  A    between atoms: C4_4  and  C5_5 
REMARK    6  A    between atoms: C5_5  and  N1_34 
REMARK       I    between atoms: C8_8  and  N2_35 
REMARK    7  A    between atoms: C13_13  and  C14_14 
REMARK       I    between atoms: C13_13  and  N3_36 
REMARK    8  A    between atoms: C17_17  and  N4_37 
REMARK    9  A    between atoms: C20_20  and  C21_21 
REMARK       I    between atoms: C20_20  and  N4_37 
REMARK   10  A    between atoms: C23_23  and  C25_25 
REMARK   11  A    between atoms: C27_27  and  C28_28 
REMARK   12  A    between atoms: C29_29  and  N7_41 
REMARK   13  A    between atoms: C31_31  and  N10_46 
USER                              x       y       z     vdW  Elec       q    Type
USER                           _______ _______ _______ _____ _____    ______ ____
ROOT
ATOM      1  C20 UNL     1      14.431   8.758   4.719 -0.01 +0.00    +0.290 C 
ATOM      2  N4  UNL     1      14.926   8.368   3.487 -0.26 -0.00    -0.320 N 
ATOM      3  O3  UNL     1      14.932   9.605   5.450 +2.40 -0.00    -0.264 OA
ATOM      4  H36 UNL     1      14.355   7.653   3.038 -0.13 +0.00    +0.169 HD
ENDROOT
BRANCH   2   5
ATOM      5  C17 UNL     1      16.079   8.812   2.820 -0.47 +0.00    +0.036 A 
ATOM      6  C16 UNL     1      16.767   9.985   3.147 -0.44 +0.00    +0.054 A 
ATOM      7  C15 UNL     1      17.913  10.360   2.435 -0.42 +0.00    +0.051 A 
ATOM      8  C14 UNL     1      18.365   9.567   1.376 -0.30 +0.00    +0.054 A 
ATOM      9 CL1  UNL     1      18.735  11.800   2.929 +0.78 -0.00    -0.083 Cl
ATOM     10  C19 UNL     1      17.699   8.379   1.060 +1.04 +0.00    +0.021 A 
ATOM     11  C18 UNL     1      16.558   8.010   1.777 +0.01 +0.00    +0.030 A 
BRANCH   8  12
ATOM     12  C13 UNL     1      19.576   9.899   0.599 -0.00 +0.00    +0.255 C 
ATOM     13  N3  UNL     1      20.792   9.309   0.951 +0.74 -0.00    -0.345 N 
ATOM     14  C10 UNL     1      21.098   8.893   2.336 +0.46 +0.00    +0.146 C 
ATOM     15  C11 UNL     1      21.944   9.644   0.110 -0.38 +0.00    +0.146 C 
ATOM     16  C9  UNL     1      22.254   7.883   2.390 +1.73 +0.00    +0.145 C 
ATOM     17  N2  UNL     1      23.414   8.382   1.636 -0.17 -0.00    -0.349 N 
ATOM     18  C8  UNL     1      24.388   9.062   2.346 -0.39 +0.00    +0.226 C 
ATOM     19  C12 UNL     1      23.081   8.617   0.227 -0.44 +0.00    +0.145 C 
ATOM     20  O1  UNL     1      24.255   9.302   3.550 -0.63 -0.00    -0.273 OA
ATOM     21  O2  UNL     1      19.468  10.703  -0.325 -0.04 -0.00    -0.267 OA
BRANCH  18  22
ATOM     22  C3  UNL     1      25.661   9.558   1.662 -0.35 +0.00    +0.108 C 
BRANCH  22  23
ATOM     23  C2  UNL     1      26.886   9.572   2.592 +1.27 +0.00    +0.127 C 
ATOM     24  C1  UNL     1      27.760   8.334   2.409 -0.42 +0.00    +0.040 C 
BRANCH  23  25
ATOM     25  O4  UNL     1      26.427   9.621   3.948 -0.14 -0.00    -0.395 OA
ATOM     26  H39 UNL     1      25.954   8.782   4.119 -0.13 +0.00    +0.210 HD
ENDBRANCH  23  25
ENDBRANCH  22  23
BRANCH  22  27
ATOM     27  C4  UNL     1      25.890   8.863   0.304 +0.67 +0.00    +0.044 C 
BRANCH  27  28
ATOM     28  C5  UNL     1      25.778   7.342   0.438 -0.28 +0.00    +0.234 C 
BRANCH  28  29
ATOM     29  N1  UNL     1      25.961   6.665  -0.907 -0.35 -0.00    -0.079 N 
ATOM     30  C6  UNL     1      26.844   5.448  -0.863 -0.23 +0.00    +0.269 C 
ATOM     31  C7  UNL     1      24.627   6.340  -1.530 -0.38 +0.00    +0.269 C 
ATOM     32  H35 UNL     1      26.406   7.351  -1.532 +0.17 +0.00    +0.278 HD
ENDBRANCH  28  29
ENDBRANCH  27  28
ENDBRANCH  22  27
ENDBRANCH  18  22
ENDBRANCH   8  12
ENDBRANCH   2   5
BRANCH   1  33
ATOM     33  C21 UNL     1      13.211   8.028   5.055 -0.34 +0.00    +0.177 C 
ATOM     34  N5  UNL     1      12.711   8.020   6.283 -0.17 -0.00    -0.345 N 
ATOM     35  C22 UNL     1      11.561   7.283   6.202 -0.36 +0.00    +0.120 C 
ATOM     36  H5  UNL     1      13.101   8.467   7.112 +0.13 +0.00    +0.167 HD
ATOM     37  C23 UNL     1      11.317   6.860   4.909 -0.36 +0.00    +0.065 C 
ATOM     38  N6  UNL     1      12.438   7.252   4.211 -0.18 -0.00    -0.331 N 
ATOM     39  C24 UNL     1      12.894   6.760   2.933 -0.21 +0.00    +0.158 C 
BRANCH  37  40
ATOM     40  C25 UNL     1      10.030   6.100   4.455 -0.25 +0.00    +0.043 A 
ATOM     41  C26 UNL     1       9.450   6.323   3.223 -0.20 +0.00    +0.134 A 
ATOM     42  N7  UNL     1       8.314   5.545   3.148 -0.09 -0.00    -0.250 N 
ATOM     43  N8  UNL     1       8.176   4.794   4.268 -0.09 -0.00    -0.288 N 
ATOM     44  C27 UNL     1       9.234   5.082   5.049 -0.20 +0.00    +0.146 A 
ATOM     45  H8  UNL     1       7.420   4.141   4.478 +0.09 +0.00    +0.187 HD
BRANCH  42  46
ATOM     46  C29 UNL     1       7.358   5.465   2.080 -0.11 +0.00    +0.126 A 
ATOM     47  C33 UNL     1       6.258   4.616   2.179 -0.11 +0.00    +0.052 A 
ATOM     48  C32 UNL     1       5.344   4.567   1.121 -0.15 +0.00    +0.028 A 
ATOM     49  C31 UNL     1       5.509   5.383   0.006 -0.19 +0.00    +0.021 A 
ATOM     50  C30 UNL     1       6.668   6.151  -0.028 -0.08 +0.00    +0.113 A 
ATOM     51  N9  UNL     1       7.571   6.231   0.977 -0.07 -0.00    -0.349 N 
ATOM     52  H9  UNL     1       8.383   6.845   0.909 +0.09 +0.00    +0.167 HD
BRANCH  49  53
ATOM     53  N10 UNL     1       4.673   5.247  -1.106 +0.21 -0.00    -0.302 NA
ATOM     54  H37 UNL     1       4.094   6.058  -1.298 -0.52 +0.00    +0.124 HD
ATOM     55  H38 UNL     1       5.140   4.904  -1.941 -0.41 +0.00    +0.124 HD
ENDBRANCH  49  53
ENDBRANCH  42  46
BRANCH  44  56
ATOM     56  C28 UNL     1       9.475   4.297   6.308 -0.17 +0.00    +0.434 C 
ATOM     57  F1  UNL     1       8.307   3.941   6.912 -0.16 -0.00    -0.165 F 
ATOM     58  F2  UNL     1      10.187   4.977   7.247 -0.11 -0.00    -0.165 F 
ATOM     59  F3  UNL     1      10.150   3.140   6.070 -0.18 -0.00    -0.165 F 
ENDBRANCH  44  56
ENDBRANCH  37  40
ENDBRANCH   1  33
TORSDOF 13
TER
