USER    Run = 1
USER    DPF = ligand_489_receptor.dpf
USER  
USER    Estimated Free Energy of Binding    =   +4.61 kcal/mol  [=(1)+(2)+(3)-(4)]
USER    
USER    (1) Final Intermolecular Energy     =   +3.42 kcal/mol
USER        vdW + Hbond + desolv Energy     =   +3.42 kcal/mol
USER        Electrostatic Energy            =   +0.00 kcal/mol
USER    (2) Final Total Internal Energy     =   -1.67 kcal/mol
USER    (3) Torsional Free Energy           =   +1.19 kcal/mol
USER    (4) Unbound System's Energy  [=(2)] =   -1.67 kcal/mol
USER    
USER    
USER    NEWDPF move ligand_489.pdbqt
USER    NEWDPF about 0.000000 0.000000 0.000000
USER    NEWDPF tran0 21.253246 7.532210 4.610133
USER    NEWDPF quaternion0 -0.711357 -0.330136 0.468891 0.406353
USER    NEWDPF axisangle0 -0.778531 -0.361312 0.513169 132.048108
USER    NEWDPF quat0 -0.778531 -0.361312 0.513169 132.048108
USER    NEWDPF dihe0 -109.82 145.37 -31.01 -177.81 94.74 178.30 -178.86 -1.00 148.57 -179.10 -142.67 -179.10 9.23 -122.55 167.82 -62.21 -43.49 -14.17 -112.00 
USER  keepresnum = 1 
USER  
REMARK  19 active torsions:
REMARK  status: ('A' for Active; 'I' for Inactive)
REMARK    1  A    between atoms: C3_3  and  C22_22 
REMARK    2  A    between atoms: C6_6  and  C7_7 
REMARK    3  A    between atoms: C7_7  and  C8_8 
REMARK       I    between atoms: C8_8  and  N1_42 
REMARK    4  A    between atoms: C9_9  and  N1_42 
REMARK    5  A    between atoms: C11_11  and  C13_13 
REMARK       I    between atoms: C13_13  and  N3_44 
REMARK    6  A    between atoms: C14_14  and  N3_44 
REMARK    7  A    between atoms: C16_16  and  C18_18 
REMARK       I    between atoms: C18_18  and  N5_46 
REMARK    8  A    between atoms: C19_19  and  C20_20 
REMARK    9  A    between atoms: C19_19  and  N5_46 
REMARK   10  A    between atoms: C20_20  and  C21_21 
REMARK   11  A    between atoms: C21_21  and  N7_49 
REMARK       I    between atoms: C22_22  and  N8_50 
REMARK   12  A    between atoms: C23_23  and  N8_50 
REMARK   13  A    between atoms: C25_25  and  C27_27 
REMARK       I    between atoms: C27_27  and  N10_52 
REMARK   14  A    between atoms: C28_28  and  N10_52 
REMARK   15  A    between atoms: C30_30  and  C32_32 
REMARK       I    between atoms: C32_32  and  N12_54 
REMARK   16  A    between atoms: C33_33  and  C34_34 
REMARK   17  A    between atoms: C33_33  and  N12_54 
REMARK   18  A    between atoms: C34_34  and  C35_35 
REMARK   19  A    between atoms: C35_35  and  N13_55 
USER                              x       y       z     vdW  Elec       q    Type
USER                           _______ _______ _______ _____ _____    ______ ____
ROOT
ATOM      1  C1  UNL     1      16.439  10.388   4.400 +1.78 +0.00    +0.008 A 
ATOM      2  C2  UNL     1      17.716  10.669   3.909 -0.02 +0.00    +0.017 A 
ATOM      3  C3  UNL     1      18.425   9.702   3.186 -0.39 +0.00    +0.032 A 
ATOM      4  C4  UNL     1      17.856   8.441   2.976 -0.52 +0.00    +0.017 A 
ATOM      5  C5  UNL     1      16.578   8.161   3.469 -0.56 +0.00    +0.008 A 
ATOM      6  C6  UNL     1      15.861   9.129   4.188 -0.30 -0.00    -0.049 A 
ENDROOT
BRANCH   6   7
ATOM      7  C7  UNL     1      14.485   8.815   4.729 -0.08 +0.00    +0.141 C 
BRANCH   7   8
ATOM      8  C8  UNL     1      13.520   8.266   3.687 -0.28 +0.00    +0.226 C 
ATOM      9  O1  UNL     1      12.329   8.123   3.956 -0.29 -0.00    -0.273 OA
ATOM     10  N1  UNL     1      14.140   7.930   2.493 +0.42 -0.00    -0.326 N 
ATOM     11  H23 UNL     1      15.123   8.144   2.390 -0.15 +0.00    +0.169 HD
BRANCH  10  12
ATOM     12  C9  UNL     1      13.514   7.389   1.387 +3.61 +0.00    +0.052 A 
ATOM     13  C10 UNL     1      13.991   7.295   0.103 +1.51 +0.00    +0.118 A 
ATOM     14  N2  UNL     1      13.035   6.691  -0.665 -0.29 -0.00    -0.359 N 
ATOM     15  C11 UNL     1      11.928   6.380   0.098 -0.36 +0.00    +0.103 A 
ATOM     16  H24 UNL     1      13.108   6.489  -1.656 +0.07 +0.00    +0.165 HD
ATOM     17  C12 UNL     1      12.213   6.815   1.385 -0.22 +0.00    +0.066 A 
BRANCH  15  18
ATOM     18  C13 UNL     1      10.773   5.727  -0.495 -0.19 +0.00    +0.272 C 
ATOM     19  O2  UNL     1      10.820   5.305  -1.648 -0.16 -0.00    -0.266 OA
ATOM     20  N3  UNL     1       9.676   5.636   0.337 -0.06 -0.00    -0.320 N 
ATOM     21  H25 UNL     1       9.743   6.008   1.271 +0.08 +0.00    +0.169 HD
BRANCH  20  22
ATOM     22  C14 UNL     1       8.466   5.061  -0.001 -0.13 +0.00    +0.052 A 
ATOM     23  C15 UNL     1       8.370   3.938  -0.790 -0.07 +0.00    +0.118 A 
ATOM     24  N4  UNL     1       7.041   3.633  -0.931 -0.01 -0.00    -0.359 N 
ATOM     25  C16 UNL     1       6.265   4.542  -0.244 -0.10 +0.00    +0.102 A 
ATOM     26  H26 UNL     1       6.660   2.857  -1.460 +0.05 +0.00    +0.165 HD
ATOM     27  C17 UNL     1       7.144   5.440   0.340 -0.15 +0.00    +0.066 A 
BRANCH  25  28
ATOM     28  C18 UNL     1       4.823   4.441  -0.233 -0.13 +0.00    +0.268 C 
ATOM     29  O3  UNL     1       4.149   4.808   0.728 -0.48 -0.00    -0.266 OA
ATOM     30  N5  UNL     1       4.255   3.921  -1.372 -0.09 -0.00    -0.355 N 
ATOM     31  H27 UNL     1       4.854   3.654  -2.140 +0.01 +0.00    +0.162 HD
BRANCH  30  32
ATOM     32  C19 UNL     1       2.822   3.730  -1.513 -0.11 +0.00    +0.130 C 
BRANCH  32  33
ATOM     33  C20 UNL     1       2.400   2.269  -1.367 -0.06 +0.00    +0.089 C 
BRANCH  33  34
ATOM     34  C21 UNL     1       3.568   1.348  -1.647 -0.10 +0.00    +0.049 C 
ATOM     35  N6  UNL     1       3.481   0.375  -2.494 -0.04 -0.00    -0.393 N 
ATOM     36  H28 UNL     1       2.540   0.320  -2.895 +0.02 +0.00    +0.157 HD
ATOM     37  H6  UNL     1       4.247  -0.254  -2.732 +0.02 +0.00    +0.157 HD
BRANCH  34  38
ATOM     38  N7  UNL     1       4.751   1.561  -1.013 -0.05 -0.00    -0.293 NA
ATOM     39  H29 UNL     1       4.791   1.091  -0.115 +0.02 +0.00    +0.125 HD
ATOM     40  H30 UNL     1       5.588   1.386  -1.579 +0.03 +0.00    +0.125 HD
ENDBRANCH  34  38
ENDBRANCH  33  34
ENDBRANCH  32  33
ENDBRANCH  30  32
ENDBRANCH  25  28
ENDBRANCH  20  22
ENDBRANCH  15  18
ENDBRANCH  10  12
ENDBRANCH   7   8
ENDBRANCH   6   7
BRANCH   3  41
ATOM     41  C22 UNL     1      19.786  10.047   2.691 -0.17 +0.00    +0.257 C 
ATOM     42  O4  UNL     1      20.373  11.013   3.175 +1.08 -0.00    -0.267 OA
ATOM     43  N8  UNL     1      20.277   9.240   1.678 +0.69 -0.00    -0.309 N 
ATOM     44  H31 UNL     1      19.697   8.517   1.271 +1.69 +0.00    +0.170 HD
BRANCH  43  45
ATOM     45  C23 UNL     1      21.528   9.428   1.128 -0.11 +0.00    +0.108 A 
ATOM     46  C24 UNL     1      22.600   8.567   1.098 -0.27 +0.00    +0.067 A 
ATOM     47  C25 UNL     1      23.681   9.213   0.414 -0.33 +0.00    +0.051 A 
ATOM     48  C26 UNL     1      23.203  10.465   0.052 +0.53 +0.00    +0.106 A 
ATOM     49  N9  UNL     1      21.907  10.578   0.488 -0.05 -0.00    -0.351 N 
ATOM     50  H32 UNL     1      21.290  11.376   0.366 +0.14 +0.00    +0.166 HD
BRANCH  47  51
ATOM     51  C27 UNL     1      25.004   8.620   0.175 +0.16 +0.00    +0.258 C 
ATOM     52  O5  UNL     1      26.017   9.190   0.571 +0.19 -0.00    -0.267 OA
ATOM     53  N10 UNL     1      24.975   7.415  -0.509 -0.20 -0.00    -0.309 N 
ATOM     54  H33 UNL     1      24.077   7.043  -0.776 +0.12 +0.00    +0.170 HD
BRANCH  53  55
ATOM     55  C28 UNL     1      26.110   6.698  -0.834 -0.31 +0.00    +0.108 A 
ATOM     56  C29 UNL     1      26.301   5.506  -1.503 -0.34 +0.00    +0.067 A 
ATOM     57  C30 UNL     1      27.703   5.231  -1.558 -0.24 +0.00    +0.051 A 
ATOM     58  C31 UNL     1      28.314   6.287  -0.903 -0.21 +0.00    +0.106 A 
ATOM     59  N11 UNL     1      27.351   7.159  -0.474 -0.14 -0.00    -0.351 N 
ATOM     60  H34 UNL     1      27.534   8.014   0.031 +0.10 +0.00    +0.166 HD
BRANCH  57  61
ATOM     61  C32 UNL     1      28.425   4.107  -2.150 -0.13 +0.00    +0.253 C 
ATOM     62  O6  UNL     1      27.854   3.211  -2.768 -0.17 -0.00    -0.268 OA
ATOM     63  N12 UNL     1      29.788   4.116  -1.953 +0.00 -0.00    -0.356 N 
ATOM     64  H35 UNL     1      30.204   4.823  -1.365 +0.06 +0.00    +0.162 HD
BRANCH  63  65
ATOM     65  C33 UNL     1      30.627   3.041  -2.443 -0.06 +0.00    +0.130 C 
BRANCH  65  66
ATOM     66  C34 UNL     1      30.587   1.822  -1.531 -0.18 +0.00    +0.095 C 
BRANCH  66  67
ATOM     67  C35 UNL     1      30.015   2.217  -0.190 -0.27 +0.00    +0.069 C 
ATOM     68  N14 UNL     1      28.663   2.248  -0.034 -0.06 -0.00    -0.389 N 
ATOM     69  H37 UNL     1      28.118   1.733  -0.722 -0.42 +0.00    +0.157 HD
ATOM     70  H38 UNL     1      28.306   2.141   0.908 +0.05 +0.00    +0.157 HD
BRANCH  67  71
ATOM     71  N13 UNL     1      30.820   2.488   0.780 -0.10 -0.00    -0.389 N 
ATOM     72  H36 UNL     1      31.633   1.870   0.730 +0.06 +0.00    +0.157 HD
ATOM     73  H13 UNL     1      30.669   3.206   1.489 +0.05 +0.00    +0.157 HD
ENDBRANCH  67  71
ENDBRANCH  66  67
ENDBRANCH  65  66
ENDBRANCH  63  65
ENDBRANCH  57  61
ENDBRANCH  53  55
ENDBRANCH  47  51
ENDBRANCH  43  45
ENDBRANCH   3  41
TORSDOF 19
TER
