USER    Run = 1
USER    DPF = ligand_431_receptor.dpf
USER  
USER    Estimated Free Energy of Binding    =  +2.50e+004 kcal/mol  [=(1)+(2)+(3)-(4)]
USER    
USER    (1) Final Intermolecular Energy     =  +2.50e+004 kcal/mol
USER        vdW + Hbond + desolv Energy     =  +2.50e+004 kcal/mol
USER        Electrostatic Energy            =   +0.00 kcal/mol
USER    (2) Final Total Internal Energy     =   +4.88 kcal/mol
USER    (3) Torsional Free Energy           =   +1.19 kcal/mol
USER    (4) Unbound System's Energy  [=(2)] =   +4.88 kcal/mol
USER    
USER    
USER    NEWDPF move ligand_431.pdbqt
USER    NEWDPF about 0.000000 0.000000 0.000000
USER    NEWDPF tran0 18.988299 7.403042 4.165656
USER    NEWDPF quaternion0 -0.251755 0.355668 -0.872901 0.219460
USER    NEWDPF axisangle0 -0.258046 0.364555 -0.894713 154.645332
USER    NEWDPF quat0 -0.258046 0.364555 -0.894713 154.645332
USER    NEWDPF dihe0 -180.00 170.03 109.79 -131.04 123.18 177.63 -30.87 83.34 110.46 -1.88 -86.16 -86.83 -12.51 -111.93 36.68 179.91 -27.71 -180.00 137.35 57.77 167.26 -58.57 3.79 -39.95 
USER  keepresnum = 1 
USER  
REMARK  24 active torsions:
REMARK  status: ('A' for Active; 'I' for Inactive)
REMARK    1  A    between atoms: C9_9  and  C11_11 
REMARK    2  A    between atoms: C11_11  and  C12_12 
REMARK    3  A    between atoms: C12_12  and  C13_13 
REMARK    4  A    between atoms: C13_13  and  N4_90 
REMARK       I    between atoms: C14_14  and  N5_91 
REMARK       I    between atoms: C14_14  and  N6_93 
REMARK    5  A    between atoms: C15_15  and  C63_63 
REMARK    6  A    between atoms: C17_17  and  C61_61 
REMARK    7  A    between atoms: C21_21  and  C53_53 
REMARK    8  A    between atoms: C23_23  and  C43_43 
REMARK    9  A    between atoms: C26_26  and  N15_103 
REMARK   10  A    between atoms: C28_28  and  C30_30 
REMARK   11  A    between atoms: C30_30  and  C31_31 
REMARK   12  A    between atoms: C34_34  and  C35_35 
REMARK       I    between atoms: C34_34  and  N15_103 
REMARK   13  A    between atoms: C35_35  and  C36_36 
REMARK   14  A    between atoms: C35_35  and  N16_104 
REMARK   15  A    between atoms: C36_36  and  C37_37 
REMARK   16  A    between atoms: C40_40  and  O11_82 
REMARK       I    between atoms: C43_43  and  N17_105 
REMARK   17  A    between atoms: C44_44  and  C45_45 
REMARK   18  A    between atoms: C44_44  and  C52_52 
REMARK   19  A    between atoms: C44_44  and  N17_105 
REMARK   20  A    between atoms: C45_45  and  C46_46 
REMARK   21  A    between atoms: C49_49  and  O13_84 
REMARK       I    between atoms: C52_52  and  N18_106 
REMARK   22  A    between atoms: C53_53  and  C54_54 
REMARK   23  A    between atoms: C61_61  and  C62_62 
REMARK       I    between atoms: C62_62  and  N19_107 
REMARK   24  A    between atoms: C63_63  and  C64_64 
USER                              x       y       z     vdW  Elec       q    Type
USER                           _______ _______ _______ _____ _____    ______ ____
ROOT
ATOM      1  C1  UNL     1      21.034   4.639   7.288+26.58 +0.00    +0.042 C 
ATOM      2  C2  UNL     1      20.234   5.380   6.222+24.90 +0.00    +0.172 C 
ATOM      3  C3  UNL     1      20.276   4.600   4.892+25.95 +0.00    +0.240 C 
ATOM      4  C4  UNL     1      21.838   3.484   3.343 +1.09 +0.00    +0.185 C 
ATOM      5  C5  UNL     1      23.346   3.134   3.336 +7.01 +0.00    +0.109 C 
ATOM      6  C6  UNL     1      25.587   4.306   2.061+44.53 +0.00    +0.176 C 
ATOM      7  C7  UNL     1      24.821   4.536   0.767 -0.35 +0.00    +0.229 C 
ATOM      8  C8  UNL     1      23.178   5.893  -0.446 -0.19 +0.00    +0.152 C 
ATOM      9  C9  UNL     1      21.967   4.974  -0.118+34.85 +0.00    +0.102 C 
ATOM     10  C10 UNL     1      21.354   3.710   1.899+99.99 +0.00    +0.241 C 
ATOM     11  C15 UNL     1      24.998   7.051   0.902 -0.34 +0.00    +0.183 C 
ATOM     12  C16 UNL     1      24.058   8.174   1.396 -0.31 +0.00    +0.241 C 
ATOM     13  C17 UNL     1      22.345   8.743   3.110 -0.20 +0.00    +0.185 C 
ATOM     14  C18 UNL     1      22.305   8.329   4.591+99.99 +0.00    +0.241 C 
ATOM     15  C19 UNL     1      21.890   9.137   6.908 +2.39 +0.00    +0.172 C 
ATOM     16  C20 UNL     1      21.047  10.257   7.545 +9.04 +0.00    +0.240 C 
ATOM     17  C21 UNL     1      19.107  10.720   9.021+58.01 +0.00    +0.180 C 
ATOM     18  C22 UNL     1      18.400  11.874   8.273+38.29 +0.00    +0.241 C 
ATOM     19  C23 UNL     1      16.977  12.344   6.275+99.99 +0.00    +0.186 C 
ATOM     20  C24 UNL     1      16.980  11.952   4.784+99.99 +0.00    +0.120 C 
ATOM     21  C25 UNL     1      15.153   8.877   3.885 -0.40 +0.00    +0.120 C 
ATOM     22  C26 UNL     1      16.450   8.105   4.172 -0.42 +0.00    +0.186 C 
ATOM     23  C27 UNL     1      16.694   8.044   5.683+52.33 +0.00    +0.242 C 
ATOM     24  C28 UNL     1      16.925   6.676   7.695+30.90 +0.00    +0.182 C 
ATOM     25  C29 UNL     1      18.451   6.480   7.568+99.99 +0.00    +0.241 C 
ATOM     26  C60 UNL     1      23.321   9.231   7.433+99.99 +0.00    +0.042 C 
ATOM     27  O1  UNL     1      19.295   4.015   4.433+38.92 -0.00    -0.271 OA
ATOM     28  O2  UNL     1      24.634   3.592  -0.002 -0.65 -0.00    -0.273 OA
ATOM     29  O3  UNL     1      20.844   2.796   1.251 +5.84 -0.00    -0.271 OA
ATOM     30  O4  UNL     1      24.065   9.323   0.971 -0.27 -0.00    -0.271 OA
ATOM     31  O5  UNL     1      22.653   7.201   4.952+99.99 -0.00    -0.271 OA
ATOM     32  O6  UNL     1      21.360  11.442   7.460 +1.91 -0.00    -0.271 OA
ATOM     33  O7  UNL     1      18.066  12.924   8.817+88.30 -0.00    -0.271 OA
ATOM     34  O8  UNL     1      17.073   9.040   6.307+99.99 -0.00    -0.271 OA
ATOM     35  O9  UNL     1      19.249   7.111   8.261+99.99 -0.00    -0.271 OA
ATOM     36  N1  UNL     1      21.513   4.551   4.286+62.40 -0.00    -0.345 N 
ATOM     37  N2  UNL     1      24.265   5.799   0.555 -0.24 -0.00    -0.336 N 
ATOM     38  N3  UNL     1      21.711   4.917   1.328+99.99 -0.00    -0.353 N 
ATOM     39  N7  UNL     1      23.239   7.785   2.441 +0.06 -0.00    -0.346 N 
ATOM     40  N8  UNL     1      21.851   9.289   5.457 +3.61 -0.00    -0.346 N 
ATOM     41  N9  UNL     1      19.879   9.836   8.140 +5.80 -0.00    -0.346 N 
ATOM     42  N10 UNL     1      17.964  11.531   7.008 +6.75 -0.00    -0.345 N 
ATOM     43  N11 UNL     1      16.393   6.874   6.337 +5.90 -0.00    -0.346 N 
ATOM     44  N12 UNL     1      18.851   5.567   6.620+99.99 -0.00    -0.346 N 
ATOM     45  S1  UNL     1      24.485   4.581   3.503+99.99 -0.00    -0.157 SA
ATOM     46  S2  UNL     1      15.355  11.938   3.938+99.99 -0.00    -0.095 SA
ATOM     47  S3  UNL     1      15.444  10.273   2.722 -0.13 -0.00    -0.095 SA
ATOM     48  H69 UNL     1      22.264   5.146   4.644+99.99 +0.00    +0.163 HD
ATOM     49  H70 UNL     1      22.232   5.564   1.906 +0.64 +0.00    +0.163 HD
ATOM     50  H75 UNL     1      23.526   6.978   2.994 +1.59 +0.00    +0.163 HD
ATOM     51  H76 UNL     1      21.569  10.202   5.088 +1.48 +0.00    +0.163 HD
ATOM     52  H77 UNL     1      19.783   8.835   8.328 +1.98 +0.00    +0.163 HD
ATOM     53  H78 UNL     1      18.090  10.552   6.745 +1.49 +0.00    +0.163 HD
ATOM     54  H79 UNL     1      16.332   6.021   5.783 +3.64 +0.00    +0.163 HD
ATOM     55  H80 UNL     1      18.151   4.949   6.201+99.99 +0.00    +0.163 HD
ENDROOT
BRANCH  19  56
ATOM     56  C43 UNL     1      15.625  12.154   7.001+16.83 +0.00    +0.242 C 
ATOM     57  O12 UNL     1      15.225  12.916   7.879+24.68 -0.00    -0.271 OA
ATOM     58  N17 UNL     1      14.872  11.083   6.562+99.99 -0.00    -0.346 N 
ATOM     59  H85 UNL     1      15.374  10.401   5.994 +1.08 +0.00    +0.163 HD
BRANCH  58  60
ATOM     60  C44 UNL     1      13.761  10.571   7.365 +1.64 +0.00    +0.180 C 
BRANCH  60  61
ATOM     61  C45 UNL     1      12.436  11.173   6.885+99.99 +0.00    +0.073 C 
BRANCH  61  62
ATOM     62  C46 UNL     1      11.245  10.668   7.663+99.99 -0.00    -0.056 A 
ATOM     63  C47 UNL     1      10.463   9.616   7.164 +4.75 +0.00    +0.010 A 
ATOM     64  C48 UNL     1       9.370   9.145   7.891+52.06 +0.00    +0.037 A 
ATOM     65  C49 UNL     1       9.059   9.719   9.118+99.99 +0.00    +0.065 A 
ATOM     66  C50 UNL     1       9.825  10.759   9.633+31.79 +0.00    +0.037 A 
ATOM     67  C51 UNL     1      10.918  11.232   8.905+64.64 +0.00    +0.010 A 
BRANCH  65  68
ATOM     68  O13 UNL     1       7.983   9.225   9.797 +9.14 -0.00    -0.361 OA
ATOM     69  H68 UNL     1       7.561   8.543   9.251 +0.07 +0.00    +0.217 HD
ENDBRANCH  65  68
ENDBRANCH  61  62
ENDBRANCH  60  61
BRANCH  60  70
ATOM     70  C52 UNL     1      13.809   9.046   7.149 +3.50 +0.00    +0.238 C 
ATOM     71  O14 UNL     1      13.578   8.217   8.027 -0.31 -0.00    -0.271 OA
ATOM     72  N18 UNL     1      13.975   8.659   5.846 +0.13 -0.00    -0.368 N 
ATOM     73  H86 UNL     1      13.737   9.317   5.107 +0.12 +0.00    +0.159 HD
ATOM     74  H87 UNL     1      13.811   7.684   5.634 +0.12 +0.00    +0.159 HD
ENDBRANCH  60  70
ENDBRANCH  58  60
ENDBRANCH  19  56
BRANCH  17  75
ATOM     75  C53 UNL     1      19.886  11.244  10.239 +4.84 +0.00    +0.073 C 
BRANCH  75  76
ATOM     76  C54 UNL     1      21.374  11.368   9.995 +0.65 -0.00    -0.056 A 
ATOM     77  C55 UNL     1      21.992  12.626   9.955 -0.14 +0.00    +0.007 A 
ATOM     78  C56 UNL     1      23.367  12.732   9.743+11.77 +0.00    +0.001 A 
ATOM     79  C57 UNL     1      24.137  11.584   9.565 -0.32 +0.00    +0.000 A 
ATOM     80  C58 UNL     1      23.531  10.329   9.595+24.97 +0.00    +0.001 A 
ATOM     81  C59 UNL     1      22.157  10.221   9.807 +0.48 +0.00    +0.007 A 
ENDBRANCH  75  76
ENDBRANCH  17  75
BRANCH  22  82
ATOM     82  N15 UNL     1      16.482   6.791   3.536+10.75 -0.00    -0.345 N 
ATOM     83  C34 UNL     1      17.202   6.547   2.385 +3.91 +0.00    +0.251 C 
ATOM     84  O10 UNL     1      17.925   7.392   1.856 +1.24 -0.00    -0.271 OA
ATOM     85  H82 UNL     1      15.818   6.059   3.783+99.99 +0.00    +0.163 HD
BRANCH  83  86
ATOM     86  C35 UNL     1      17.007   5.133   1.798+99.99 +0.00    +0.313 C 
BRANCH  86  87
ATOM     87  C36 UNL     1      18.167   4.196   2.190+99.99 +0.00    +0.083 C 
BRANCH  87  88
ATOM     88  C37 UNL     1      18.249   2.877   1.451+99.99 -0.00    -0.056 A 
ATOM     89  C38 UNL     1      18.922   1.777   2.003+99.99 +0.00    +0.010 A 
ATOM     90  C39 UNL     1      18.980   0.561   1.317+99.99 +0.00    +0.037 A 
ATOM     91  C40 UNL     1      18.374   0.448   0.071+99.99 +0.00    +0.065 A 
ATOM     92  C41 UNL     1      17.716   1.529  -0.499+99.99 +0.00    +0.037 A 
ATOM     93  C42 UNL     1      17.653   2.743   0.188+99.99 +0.00    +0.010 A 
BRANCH  91  94
ATOM     94  O11 UNL     1      18.402  -0.723  -0.628+99.99 -0.00    -0.361 OA
ATOM     95  H67 UNL     1      17.754  -0.669  -1.349 +9.69 +0.00    +0.217 HD
ENDBRANCH  91  94
ENDBRANCH  87  88
ENDBRANCH  86  87
BRANCH  86  96
ATOM     96  N16 UNL     1      16.811   5.212   0.327+99.99 +0.00    +0.092 N 
ATOM     97  H83 UNL     1      15.964   5.758   0.162+28.26 +0.00    +0.313 HD
ATOM     98  H84 UNL     1      17.559   5.813  -0.060+28.67 +0.00    +0.313 HD
ENDBRANCH  86  96
ENDBRANCH  83  86
ENDBRANCH  22  82
BRANCH  24  99
ATOM     99  C30 UNL     1      16.242   5.539   8.458+99.99 +0.00    +0.093 C 
BRANCH  99 100
ATOM    100  C31 UNL     1      14.802   5.316   8.131 +0.30 +0.00    +0.028 A 
ATOM    101  C32 UNL     1      13.689   5.866   8.729 -0.23 +0.00    +0.114 A 
ATOM    102  N13 UNL     1      12.619   5.346   8.055 -0.20 -0.00    -0.360 N 
ATOM    103  C33 UNL     1      13.108   4.513   7.089 -0.43 +0.00    +0.180 A 
ATOM    104  H81 UNL     1      11.642   5.541   8.231 +0.13 +0.00    +0.166 HD
ATOM    105  N14 UNL     1      14.420   4.469   7.110 -0.06 -0.00    -0.354 N 
ATOM    106  H14 UNL     1      15.030   3.925   6.500 +0.60 +0.00    +0.166 HD
ENDBRANCH  99 100
ENDBRANCH  24  99
BRANCH  13 107
ATOM    107  C61 UNL     1      20.959   8.673   2.480 +1.84 +0.00    +0.137 C 
BRANCH 107 108
ATOM    108  C62 UNL     1      19.919   9.419   3.276 +0.27 +0.00    +0.217 C 
ATOM    109  O15 UNL     1      19.376  10.454   2.906 -0.18 -0.00    -0.274 OA
ATOM    110  N19 UNL     1      19.636   8.850   4.483 +1.49 -0.00    -0.370 N 
ATOM    111  H88 UNL     1      19.013   9.348   5.106 +0.60 +0.00    +0.159 HD
ATOM    112  H89 UNL     1      20.341   8.270   4.946 +0.47 +0.00    +0.159 HD
ENDBRANCH 107 108
ENDBRANCH  13 107
BRANCH  11 113
ATOM    113  C63 UNL     1      26.041   7.504  -0.141 -0.37 +0.00    +0.076 C 
BRANCH 113 114
ATOM    114  C64 UNL     1      27.462   7.649   0.315 -0.35 -0.00    -0.028 A 
ATOM    115  C65 UNL     1      28.083   8.822   0.700 +0.10 +0.00    +0.096 A 
ATOM    116  N20 UNL     1      29.364   8.534   1.083 +0.12 -0.00    -0.365 N 
ATOM    117  C66 UNL     1      29.602   7.186   0.965 -0.29 +0.00    +0.042 A 
ATOM    118  H90 UNL     1      30.035   9.211   1.419 +0.26 +0.00    +0.165 HD
ATOM    119  C67 UNL     1      30.760   6.450   1.241 -0.25 +0.00    +0.030 A 
ATOM    120  C71 UNL     1      28.425   6.601   0.497 -0.27 -0.00    -0.002 A 
ATOM    121  C68 UNL     1      30.716   5.070   1.029 -0.22 +0.00    +0.002 A 
ATOM    122  C69 UNL     1      29.560   4.453   0.562 -0.24 +0.00    +0.001 A 
ATOM    123  C70 UNL     1      28.408   5.204   0.296 -0.20 +0.00    +0.014 A 
ENDBRANCH 113 114
ENDBRANCH  11 113
BRANCH   9 124
ATOM    124  C11 UNL     1      20.705   5.311  -0.929+99.99 +0.00    +0.028 C 
BRANCH 124 125
ATOM    125  C12 UNL     1      20.817   6.571  -1.792 +9.75 +0.00    +0.022 C 
BRANCH 125 126
ATOM    126  C13 UNL     1      21.672   7.651  -1.134 +2.36 +0.00    +0.122 C 
BRANCH 126 127
ATOM    127  N4  UNL     1      20.840   8.584  -0.386 +8.96 -0.00    -0.367 N 
ATOM    128  C14 UNL     1      21.259   9.853  -0.183 +0.02 +0.00    +0.143 C 
ATOM    129  N5  UNL     1      22.426  10.300  -0.471 -0.05 -0.00    -0.376 N 
ATOM    130  N6  UNL     1      20.293  10.602   0.382 -0.30 -0.00    -0.274 NA
ATOM    131  H72 UNL     1      22.482  11.291  -0.238 +0.12 +0.00    +0.158 HD
ATOM    132  H5  UNL     1      23.183   9.747  -0.872 +0.12 +0.00    +0.158 HD
ATOM    133  H73 UNL     1      19.755  10.078   1.064 +0.10 +0.00    +0.127 HD
ATOM    134  H74 UNL     1      20.620  11.472   0.784 +0.10 +0.00    +0.127 HD
ATOM    135  H71 UNL     1      19.865   8.544  -0.661 +0.35 +0.00    +0.162 HD
ENDBRANCH 126 127
ENDBRANCH 125 126
ENDBRANCH 124 125
ENDBRANCH   9 124
TORSDOF 24
TER
