USER    Run = 1
USER    DPF = ligand_89_receptor.dpf
USER  
USER    Estimated Free Energy of Binding    = +108.42 kcal/mol  [=(1)+(2)+(3)-(4)]
USER    
USER    (1) Final Intermolecular Energy     = +107.23 kcal/mol
USER        vdW + Hbond + desolv Energy     = +107.23 kcal/mol
USER        Electrostatic Energy            =   +0.00 kcal/mol
USER    (2) Final Total Internal Energy     =   -2.02 kcal/mol
USER    (3) Torsional Free Energy           =   +1.19 kcal/mol
USER    (4) Unbound System's Energy  [=(2)] =   -2.02 kcal/mol
USER    
USER    
USER    NEWDPF move ligand_89.pdbqt
USER    NEWDPF about 0.000000 0.000000 0.000000
USER    NEWDPF tran0 14.848836 7.724112 3.555534
USER    NEWDPF quaternion0 -0.843317 -0.106216 0.000117 -0.526815
USER    NEWDPF axisangle0 -0.992161 -0.124963 0.000137 -116.418958
USER    NEWDPF quat0 -0.992161 -0.124963 0.000137 -116.418958
USER    NEWDPF dihe0 161.81 179.19 169.70 90.67 160.44 -29.55 179.98 -153.55 -31.44 180.00 180.00 180.00 
USER  keepresnum = 1 
USER  
REMARK  12 active torsions:
REMARK  status: ('A' for Active; 'I' for Inactive)
REMARK    1  A    between atoms: C3_3  and  C4_4 
REMARK    2  A    between atoms: C7_7  and  N3_50 
REMARK    3  A    between atoms: C10_10  and  C11_11 
REMARK       I    between atoms: C10_10  and  N3_50 
REMARK    4  A    between atoms: C13_13  and  N6_54 
REMARK    5  A    between atoms: C15_15  and  C17_17 
REMARK    6  A    between atoms: C20_20  and  C21_21 
REMARK       I    between atoms: C20_20  and  N6_54 
REMARK    7  A    between atoms: C24_24  and  C27_27 
REMARK       I    between atoms: C27_27  and  N7_55 
REMARK    8  A    between atoms: C28_28  and  N7_55 
REMARK    9  A    between atoms: C30_30  and  C44_44 
REMARK   10  A    between atoms: C32_32  and  C34_34 
REMARK       I    between atoms: C34_34  and  N8_56 
REMARK   11  A    between atoms: C35_35  and  N8_56 
REMARK   12  A    between atoms: C38_38  and  C41_41 
USER                              x       y       z     vdW  Elec       q    Type
USER                           _______ _______ _______ _____ _____    ______ ____
ROOT
ATOM      1  C21 UNL     1      13.887   8.147   3.483 -0.38 +0.00    +0.032 A 
ATOM      2  C22 UNL     1      14.423   7.659   4.683 -0.48 +0.00    +0.018 A 
ATOM      3  C23 UNL     1      15.785   7.821   4.962 +0.51 +0.00    +0.018 A 
ATOM      4  C24 UNL     1      16.620   8.471   4.041 -0.49 +0.00    +0.032 A 
ATOM      5  C25 UNL     1      16.090   8.925   2.826 -0.48 +0.00    +0.018 A 
ATOM      6  C26 UNL     1      14.730   8.764   2.549 +1.85 +0.00    +0.018 A 
ENDROOT
BRANCH   1   7
ATOM      7  C20 UNL     1      12.444   7.990   3.139 -0.09 +0.00    +0.256 C 
ATOM      8  N6  UNL     1      12.182   7.768   1.800 +1.57 -0.00    -0.323 N 
ATOM      9  H38 UNL     1      12.977   7.660   1.185 +0.02 +0.00    +0.169 HD
ATOM     10  O2  UNL     1      11.626   8.046   4.048 -0.30 -0.00    -0.267 OA
BRANCH   8  11
ATOM     11  C13 UNL     1      10.919   7.608   1.190 +1.65 +0.00    +0.036 A 
ATOM     12  C12 UNL     1       9.806   7.047   1.820 -0.28 +0.00    +0.046 A 
ATOM     13  C11 UNL     1       8.584   6.960   1.139 -0.29 +0.00    +0.035 A 
ATOM     14  C16 UNL     1       8.465   7.399  -0.183 -0.36 +0.00    +0.032 A 
ATOM     15  C15 UNL     1       9.580   7.942  -0.821 -0.05 +0.00    +0.005 A 
ATOM     16  C14 UNL     1      10.795   8.055  -0.132 +7.84 +0.00    +0.044 A 
BRANCH  13  17
ATOM     17  C10 UNL     1       7.414   6.368   1.834 -0.17 +0.00    +0.256 C 
ATOM     18  N3  UNL     1       7.678   5.156   2.445 -0.03 -0.00    -0.323 N 
ATOM     19  H36 UNL     1       8.585   4.743   2.267 +0.07 +0.00    +0.169 HD
ATOM     20  O1  UNL     1       6.353   6.975   1.801 -0.26 -0.00    -0.267 OA
BRANCH  18  21
ATOM     21  C7  UNL     1       6.793   4.382   3.222 -0.15 +0.00    +0.035 A 
ATOM     22  C6  UNL     1       5.725   5.053   3.834 -0.17 +0.00    +0.030 A 
ATOM     23  C5  UNL     1       4.797   4.359   4.617 -0.19 +0.00    +0.017 A 
ATOM     24  C4  UNL     1       4.926   2.979   4.793 -0.24 +0.00    +0.002 A 
ATOM     25  C9  UNL     1       5.980   2.303   4.175 +0.48 +0.00    +0.017 A 
ATOM     26  C8  UNL     1       6.910   3.002   3.396 -0.24 +0.00    +0.030 A 
BRANCH  24  27
ATOM     27  C3  UNL     1       3.952   2.228   5.623 -0.31 +0.00    +0.086 C 
ATOM     28  N1  UNL     1       3.396   2.765   6.682 -0.20 -0.00    -0.379 N 
ATOM     29  C2  UNL     1       2.509   1.699   7.222 -0.20 +0.00    +0.135 C 
ATOM     30  H1  UNL     1       3.539   3.703   7.053 +0.06 +0.00    +0.160 HD
ATOM     31  C1  UNL     1       2.396   0.640   6.127 +1.68 +0.00    +0.113 C 
ATOM     32  N2  UNL     1       3.555   0.943   5.317 -0.02 -0.00    -0.277 NA
ATOM     33  H35 UNL     1       3.472   0.729   4.330 +0.05 +0.00    +0.129 HD
ENDBRANCH  24  27
ENDBRANCH  18  21
ENDBRANCH  13  17
BRANCH  15  34
ATOM     34  C17 UNL     1       9.490   8.415  -2.223 -0.39 +0.00    +0.086 C 
ATOM     35  N4  UNL     1       8.487   8.074  -2.993 +0.93 -0.00    -0.379 N 
ATOM     36  C18 UNL     1       8.775   8.727  -4.299+15.17 +0.00    +0.135 C 
ATOM     37  H4  UNL     1       7.686   7.490  -2.751 -0.46 +0.00    +0.160 HD
ATOM     38  C19 UNL     1       9.892   9.738  -4.036 -0.07 +0.00    +0.113 C 
ATOM     39  N5  UNL     1      10.432   9.246  -2.786 -0.24 -0.00    -0.277 NA
ATOM     40  H37 UNL     1      10.834   9.953  -2.179 -0.52 +0.00    +0.129 HD
ENDBRANCH  15  34
ENDBRANCH   8  11
ENDBRANCH   1   7
BRANCH   4  41
ATOM     41  C27 UNL     1      18.077   8.655   4.298 -0.20 +0.00    +0.256 C 
ATOM     42  N7  UNL     1      18.885   8.569   3.177 -0.24 -0.00    -0.323 N 
ATOM     43  H39 UNL     1      18.456   8.232   2.323 +0.12 +0.00    +0.169 HD
ATOM     44  O3  UNL     1      18.454   8.818   5.453+13.82 -0.00    -0.267 OA
BRANCH  42  45
ATOM     45  C28 UNL     1      20.282   8.760   3.126 +0.08 +0.00    +0.036 A 
ATOM     46  C29 UNL     1      20.901   9.274   4.270 +6.32 +0.00    +0.044 A 
ATOM     47  C30 UNL     1      22.284   9.490   4.299 +0.17 +0.00    +0.005 A 
ATOM     48  C31 UNL     1      23.057   9.187   3.177 -0.48 +0.00    +0.032 A 
ATOM     49  C32 UNL     1      22.446   8.678   2.023 -0.30 +0.00    +0.035 A 
ATOM     50  C33 UNL     1      21.064   8.445   2.013+12.71 +0.00    +0.046 A 
BRANCH  47  51
ATOM     51  C44 UNL     1      22.907  10.035   5.532 -0.09 +0.00    +0.086 C 
ATOM     52  N11 UNL     1      24.207  10.190   5.624 +4.39 -0.00    -0.379 N 
ATOM     53  C45 UNL     1      24.421  10.765   6.982+34.35 +0.00    +0.135 C 
ATOM     54  H11 UNL     1      24.913   9.967   4.922 +1.83 +0.00    +0.160 HD
ATOM     55  C46 UNL     1      23.105  10.587   7.737+11.13 +0.00    +0.113 C 
ATOM     56  N12 UNL     1      22.180  10.386   6.646 +1.73 -0.00    -0.277 NA
ATOM     57  H42 UNL     1      21.345   9.851   6.853 +0.31 +0.00    +0.129 HD
ENDBRANCH  47  51
BRANCH  49  58
ATOM     58  C34 UNL     1      23.312   8.371   0.844 -0.32 +0.00    +0.256 C 
ATOM     59  N8  UNL     1      24.394   7.545   1.094 -0.17 -0.00    -0.323 N 
ATOM     60  H40 UNL     1      24.475   7.147   2.021 +0.14 +0.00    +0.169 HD
ATOM     61  O4  UNL     1      22.982   8.832  -0.243 -0.35 -0.00    -0.267 OA
BRANCH  59  62
ATOM     62  C35 UNL     1      25.383   7.130   0.178 -0.38 +0.00    +0.035 A 
ATOM     63  C36 UNL     1      25.188   7.049  -1.202 -0.36 +0.00    +0.030 A 
ATOM     64  C37 UNL     1      26.223   6.629  -2.047 +0.06 +0.00    +0.017 A 
ATOM     65  C38 UNL     1      27.468   6.282  -1.515 -0.30 +0.00    +0.002 A 
ATOM     66  C39 UNL     1      27.675   6.375  -0.137 -0.29 +0.00    +0.017 A 
ATOM     67  C40 UNL     1      26.639   6.796   0.703 -0.34 +0.00    +0.030 A 
BRANCH  65  68
ATOM     68  C41 UNL     1      28.574   5.825  -2.396 -0.15 +0.00    +0.086 C 
ATOM     69  N9  UNL     1      28.870   4.554  -2.521 -0.03 -0.00    -0.379 N 
ATOM     70  C42 UNL     1      30.019   4.527  -3.465 -0.09 +0.00    +0.135 C 
ATOM     71  H9  UNL     1      28.413   3.761  -2.071 +0.07 +0.00    +0.160 HD
ATOM     72  C43 UNL     1      30.083   5.914  -4.103 -0.15 +0.00    +0.113 C 
ATOM     73  N10 UNL     1      29.327   6.697  -3.152 -0.64 -0.00    -0.277 NA
ATOM     74  H41 UNL     1      28.843   7.506  -3.524 +0.08 +0.00    +0.129 HD
ENDBRANCH  65  68
ENDBRANCH  59  62
ENDBRANCH  49  58
ENDBRANCH  42  45
ENDBRANCH   4  41
TORSDOF 12
TER
