USER    Run = 1
USER    DPF = ligand_73_receptor.dpf
USER  
USER    Estimated Free Energy of Binding    = +598.22 kcal/mol  [=(1)+(2)+(3)-(4)]
USER    
USER    (1) Final Intermolecular Energy     = +597.02 kcal/mol
USER        vdW + Hbond + desolv Energy     = +597.02 kcal/mol
USER        Electrostatic Energy            =   +0.00 kcal/mol
USER    (2) Final Total Internal Energy     = +128.10 kcal/mol
USER    (3) Torsional Free Energy           =   +1.19 kcal/mol
USER    (4) Unbound System's Energy  [=(2)] = +128.10 kcal/mol
USER    
USER    
USER    NEWDPF move ligand_73.pdbqt
USER    NEWDPF about 0.000000 0.000000 0.000000
USER    NEWDPF tran0 12.847461 6.580453 2.428422
USER    NEWDPF quaternion0 -0.337479 0.804136 0.480131 0.094597
USER    NEWDPF axisangle0 -0.338999 0.807758 0.482294 169.143792
USER    NEWDPF quat0 -0.338999 0.807758 0.482294 169.143792
USER    NEWDPF dihe0 108.98 -41.99 -173.35 -24.17 -178.97 20.46 -33.47 -13.78 122.20 60.08 34.00 -86.89 -176.42 134.62 62.25 -98.76 41.46 14.98 178.24 -50.46 -180.00 -118.87 
USER  keepresnum = 1 
USER  
REMARK  22 active torsions:
REMARK  status: ('A' for Active; 'I' for Inactive)
REMARK    1  A    between atoms: C10_10  and  C31_31 
REMARK    2  A    between atoms: C11_11  and  O10_68 
REMARK    3  A    between atoms: C13_13  and  O9_67 
REMARK    4  A    between atoms: C14_14  and  O8_66 
REMARK    5  A    between atoms: C21_21  and  O3_61 
REMARK    6  A    between atoms: C22_22  and  O3_61 
REMARK    7  A    between atoms: C23_23  and  O7_65 
REMARK    8  A    between atoms: C24_24  and  O6_64 
REMARK    9  A    between atoms: C25_25  and  O5_63 
REMARK   10  A    between atoms: C31_31  and  O21_79 
REMARK   11  A    between atoms: C33_33  and  O20_78 
REMARK   12  A    between atoms: C35_35  and  C36_36 
REMARK   13  A    between atoms: C36_36  and  C37_37 
REMARK   14  A    between atoms: C37_37  and  C38_38 
REMARK   15  A    between atoms: C37_37  and  O13_71 
REMARK   16  A    between atoms: C38_38  and  O12_70 
REMARK   17  A    between atoms: C40_40  and  O13_71 
REMARK   18  A    between atoms: C42_42  and  O19_77 
REMARK   19  A    between atoms: C43_43  and  O15_73 
REMARK   20  A    between atoms: C46_46  and  O15_73 
REMARK   21  A    between atoms: C48_48  and  O18_76 
REMARK   22  A    between atoms: C49_49  and  O17_75 
USER                              x       y       z     vdW  Elec       q    Type
USER                           _______ _______ _______ _____ _____    ______ ____
ROOT
ATOM      1  C1  UNL     1      17.095  10.286   1.753 -0.54 +0.00    +0.017 C 
ATOM      2  C2  UNL     1      18.430   9.811   2.342 -0.49 +0.00    +0.037 C 
ATOM      3  C3  UNL     1      18.638   8.327   2.614 +0.56 -0.00    -0.013 C 
ATOM      4  C4  UNL     1      17.830   7.250   2.566 +0.13 -0.00    -0.065 C 
ATOM      5  C5  UNL     1      16.418   7.300   2.229+11.20 +0.00    +0.013 C 
ATOM      6  C6  UNL     1      15.359   6.940   2.991+27.32 -0.00    -0.061 C 
ATOM      7  C7  UNL     1      15.519   6.489   4.371+36.49 +0.00    +0.019 C 
ATOM      8  C8  UNL     1      14.799   5.789   5.276 +9.97 +0.00    +0.014 C 
ATOM      9  C9  UNL     1      13.433   5.168   5.253 +0.91 +0.00    +0.289 C 
ATOM     10  C10 UNL     1      11.159   5.434   4.527 -0.20 +0.00    +0.223 C 
ATOM     11  C11 UNL     1      10.327   6.752   4.720 -0.26 +0.00    +0.155 C 
ATOM     12  C12 UNL     1      10.008   7.208   6.149 +1.71 +0.00    +0.069 C 
ATOM     13  C13 UNL     1      11.078   7.719   7.122 +3.00 +0.00    +0.152 C 
ATOM     14  C14 UNL     1      11.831   9.010   6.691 +1.68 +0.00    +0.147 C 
ATOM     15  C15 UNL     1      13.167   8.764   5.982 +0.08 +0.00    +0.038 C 
ATOM     16  C16 UNL     1      13.897  10.039   5.537+64.96 +0.00    +0.030 C 
ATOM     17  C17 UNL     1      14.933  10.481   6.538+64.74 -0.00    -0.020 C 
ATOM     18  C18 UNL     1      16.264  10.639   6.382+39.89 -0.00    -0.066 C 
ATOM     19  C19 UNL     1      16.969  10.342   5.136 +0.88 +0.00    +0.005 C 
ATOM     20  C20 UNL     1      18.148  10.877   4.778+21.46 +0.00    +0.006 C 
ATOM     21  C21 UNL     1      18.956  10.708   3.510 +4.07 +0.00    +0.154 C 
ATOM     22  C29 UNL     1      17.079  11.131   7.555+29.33 +0.00    +0.048 C 
ATOM     23  C56 UNL     1      15.468   5.498   6.609+32.97 +0.00    +0.054 C 
ATOM     24  C57 UNL     1      13.998   7.097   2.387 +8.06 +0.00    +0.048 C 
ATOM     25  C58 UNL     1      18.394   5.862   2.780+15.05 +0.00    +0.048 C 
ATOM     26  O1  UNL     1      13.147   4.232   5.992 -0.40 -0.00    -0.260 OA
ATOM     27  O2  UNL     1      12.559   5.813   4.455 -0.11 -0.00    -0.304 OA
ENDROOT
BRANCH  10  28
ATOM     28  C31 UNL     1      10.695   4.689   3.205 +1.66 +0.00    +0.197 C 
ATOM     29  C32 UNL     1      11.090   5.291   1.830 +5.33 +0.00    +0.076 C 
ATOM     30  C33 UNL     1      10.007   6.187   1.228 -0.24 +0.00    +0.133 C 
ATOM     31  C55 UNL     1      12.489   5.898   1.754 +0.68 +0.00    +0.018 C 
ATOM     32  C34 UNL     1       8.620   5.501   1.229 -0.19 +0.00    +0.040 C 
ATOM     33  C35 UNL     1       8.639   4.180   2.045 -0.14 +0.00    +0.134 C 
ATOM     34  C54 UNL     1       8.155   5.299  -0.217 -0.18 +0.00    +0.015 C 
ATOM     35  O11 UNL     1       9.280   4.453   3.300 -0.11 -0.00    -0.346 OA
BRANCH  30  36
ATOM     36  O20 UNL     1       9.940   7.430   1.915 -0.15 -0.00    -0.395 OA
ATOM     37  H95 UNL     1       9.507   7.280   2.773 +0.12 +0.00    +0.210 HD
ENDBRANCH  30  36
BRANCH  33  38
ATOM     38  C36 UNL     1       7.222   3.679   2.367 -0.16 +0.00    +0.067 C 
BRANCH  38  39
ATOM     39  C37 UNL     1       6.076   4.697   2.193 -0.11 +0.00    +0.150 C 
BRANCH  39  40
ATOM     40  C38 UNL     1       6.433   5.958   1.379 -0.19 +0.00    +0.199 C 
BRANCH  40  41
ATOM     41  O12 UNL     1       5.880   5.927   0.055 -0.15 -0.00    -0.393 OA
ATOM     42  C39 UNL     1       5.743   7.248  -0.465 +1.21 +0.00    +0.201 C 
ENDBRANCH  40  41
ENDBRANCH  39  40
BRANCH  39  43
ATOM     43  O13 UNL     1       5.488   5.141   3.421 -0.06 -0.00    -0.354 OA
BRANCH  43  44
ATOM     44  C40 UNL     1       5.695   6.507   3.752 +1.10 +0.00    +0.263 C 
ATOM     45  C41 UNL     1       6.171   6.591   5.200 +6.60 +0.00    +0.101 C 
ATOM     46  C42 UNL     1       5.114   6.082   6.197 -0.21 +0.00    +0.087 C 
ATOM     47  C43 UNL     1       3.701   6.028   5.549 -0.16 +0.00    +0.187 C 
ATOM     48  C53 UNL     1       5.476   4.696   6.752 -0.46 +0.00    +0.049 C 
ATOM     49  C44 UNL     1       3.512   7.195   4.560 +0.08 +0.00    +0.152 C 
ATOM     50  C45 UNL     1       3.391   8.568   5.219 +1.79 +0.00    +0.042 C 
ATOM     51  O14 UNL     1       4.518   7.275   3.535 +0.36 -0.00    -0.354 OA
BRANCH  46  52
ATOM     52  O19 UNL     1       5.124   6.990   7.316 -0.25 -0.00    -0.387 OA
ATOM     53  H94 UNL     1       4.265   7.442   7.355 +0.09 +0.00    +0.210 HD
ENDBRANCH  46  52
BRANCH  47  54
ATOM     54  O15 UNL     1       2.690   6.016   6.567 -0.10 -0.00    -0.350 OA
BRANCH  54  55
ATOM     55  C46 UNL     1       2.520   4.749   7.205 -0.19 +0.00    +0.263 C 
ATOM     56  C47 UNL     1       2.375   3.714   6.090 -0.18 +0.00    +0.095 C 
ATOM     57  C48 UNL     1       3.717   3.074   5.769 -0.27 +0.00    +0.156 C 
ATOM     58  C49 UNL     1       4.303   2.390   7.023+55.38 +0.00    +0.175 C 
ATOM     59  C50 UNL     1       3.909   3.120   8.325+10.23 +0.00    +0.151 C 
ATOM     60  C51 UNL     1       2.780   2.429   9.087+11.65 +0.00    +0.042 C 
ATOM     61  O16 UNL     1       3.613   4.495   8.081 -0.01 -0.00    -0.354 OA
BRANCH  57  62
ATOM     62  O18 UNL     1       3.480   2.117   4.718 -0.11 -0.00    -0.388 OA
ATOM     63  C52 UNL     1       4.520   2.086   3.747 -0.20 +0.00    +0.202 C 
ENDBRANCH  57  62
BRANCH  58  64
ATOM     64  O17 UNL     1       5.740   2.390   6.889+16.31 -0.00    -0.390 OA
ATOM     65  H93 UNL     1       5.959   2.875   6.075 -0.43 +0.00    +0.210 HD
ENDBRANCH  58  64
ENDBRANCH  54  55
ENDBRANCH  47  54
ENDBRANCH  43  44
ENDBRANCH  39  43
ENDBRANCH  38  39
ENDBRANCH  33  38
BRANCH  28  66
ATOM     66  O21 UNL     1      11.308   3.387   3.201+33.79 -0.00    -0.363 OA
ATOM     67  H96 UNL     1      10.548   2.784   3.038 -0.26 +0.00    +0.213 HD
ENDBRANCH  28  66
ENDBRANCH  10  28
BRANCH  11  68
ATOM     68  O10 UNL     1      10.817   7.849   3.943 -0.22 -0.00    -0.393 OA
ATOM     69  H92 UNL     1      11.567   7.478   3.435 +0.13 +0.00    +0.210 HD
ENDBRANCH  11  68
BRANCH  13  70
ATOM     70  O9  UNL     1      11.930   6.627   7.470 -0.09 -0.00    -0.388 OA
ATOM     71  C30 UNL     1      12.717   6.873   8.629 -0.15 +0.00    +0.202 C 
ENDBRANCH  13  70
BRANCH  14  72
ATOM     72  O8  UNL     1      12.102   9.796   7.869 -0.20 -0.00    -0.393 OA
ATOM     73  H91 UNL     1      12.578   9.223   8.493 +0.16 +0.00    +0.210 HD
ENDBRANCH  14  72
BRANCH  21  74
ATOM     74  O3  UNL     1      19.142  12.039   2.975 +0.56 -0.00    -0.349 OA
BRANCH  74  75
ATOM     75  C22 UNL     1      20.497  12.313   2.605 +2.52 +0.00    +0.292 C 
ATOM     76  C23 UNL     1      20.581  12.461   1.074 +1.82 +0.00    +0.204 C 
ATOM     77  C24 UNL     1      20.366  11.100   0.394 -0.49 +0.00    +0.183 C 
ATOM     78  C25 UNL     1      21.359  10.064   0.950 -0.37 +0.00    +0.180 C 
ATOM     79  C26 UNL     1      21.344  10.026   2.495 -0.36 +0.00    +0.152 C 
ATOM     80  C27 UNL     1      20.227   9.164   3.076 -0.28 +0.00    +0.042 C 
ATOM     81  O4  UNL     1      21.390  11.320   3.112 +0.83 -0.00    -0.351 OA
BRANCH  76  82
ATOM     82  O7  UNL     1      21.841  13.029   0.690+78.91 -0.00    -0.388 OA
ATOM     83  H90 UNL     1      22.213  12.445  -0.006 +0.34 +0.00    +0.210 HD
ENDBRANCH  76  82
BRANCH  77  84
ATOM     84  O6  UNL     1      19.018  10.634   0.515 -0.23 -0.00    -0.390 OA
ATOM     85  H89 UNL     1      18.479  11.355   0.899 +0.19 +0.00    +0.210 HD
ENDBRANCH  77  84
BRANCH  78  86
ATOM     86  O5  UNL     1      22.705  10.431   0.565 -0.04 -0.00    -0.385 OA
ATOM     87  C28 UNL     1      23.670   9.448   0.927 -0.30 +0.00    +0.202 C 
ENDBRANCH  78  86
ENDBRANCH  74  75
ENDBRANCH  21  74
TORSDOF 22
TER
