USER    Run = 1
USER    DPF = ligand_311_receptor.dpf
USER  
USER    Estimated Free Energy of Binding    =  +46.45 kcal/mol  [=(1)+(2)+(3)-(4)]
USER    
USER    (1) Final Intermolecular Energy     =  +45.26 kcal/mol
USER        vdW + Hbond + desolv Energy     =  +45.26 kcal/mol
USER        Electrostatic Energy            =   +0.00 kcal/mol
USER    (2) Final Total Internal Energy     =   +9.63 kcal/mol
USER    (3) Torsional Free Energy           =   +1.19 kcal/mol
USER    (4) Unbound System's Energy  [=(2)] =   +9.63 kcal/mol
USER    
USER    
USER    NEWDPF move ligand_311.pdbqt
USER    NEWDPF about 0.000000 0.000000 0.000000
USER    NEWDPF tran0 15.149325 5.521553 3.010121
USER    NEWDPF quaternion0 -0.358280 -0.221186 0.007959 -0.907000
USER    NEWDPF axisangle0 -0.850757 -0.525220 0.018900 -49.812044
USER    NEWDPF quat0 -0.850757 -0.525220 0.018900 -49.812044
USER    NEWDPF dihe0 -110.34 -112.79 40.06 21.49 178.11 -67.21 158.79 -100.55 -180.00 65.41 -113.99 141.41 67.16 176.55 -66.93 64.17 -170.89 -180.00 
USER  keepresnum = 1 
USER  
REMARK  18 active torsions:
REMARK  status: ('A' for Active; 'I' for Inactive)
REMARK    1  A    between atoms: C2_2  and  C3_3 
REMARK    2  A    between atoms: C2_2  and  N11_84 
REMARK       I    between atoms: C3_3  and  N1_73 
REMARK    3  A    between atoms: C4_4  and  C5_5 
REMARK    4  A    between atoms: C4_4  and  C60_60 
REMARK    5  A    between atoms: C4_4  and  N1_73 
REMARK       I    between atoms: C5_5  and  N2_74 
REMARK    6  A    between atoms: C10_10  and  C11_11 
REMARK       I    between atoms: C11_11  and  N3_75 
REMARK    7  A    between atoms: C12_12  and  N3_75 
REMARK    8  A    between atoms: C24_24  and  C26_26 
REMARK       I    between atoms: C26_26  and  N4_76 
REMARK    9  A    between atoms: C27_27  and  N4_76 
REMARK   10  A    between atoms: C32_32  and  C34_34 
REMARK       I    between atoms: C34_34  and  N6_79 
REMARK   11  A    between atoms: C35_35  and  N6_79 
REMARK   12  A    between atoms: C37_37  and  C49_49 
REMARK   13  A    between atoms: C39_39  and  C40_40 
REMARK       I    between atoms: C39_39  and  N7_80 
REMARK   14  A    between atoms: C40_40  and  C41_41 
REMARK   15  A    between atoms: C40_40  and  N8_81 
REMARK   16  A    between atoms: C45_45  and  C46_46 
REMARK       I    between atoms: C45_45  and  N8_81 
REMARK   17  A    between atoms: C46_46  and  N9_82 
REMARK       I    between atoms: C49_49  and  N10_83 
REMARK   18  A    between atoms: C50_50  and  N10_83 
USER                              x       y       z     vdW  Elec       q    Type
USER                           _______ _______ _______ _____ _____    ______ ____
ROOT
ATOM      1  C27 UNL     1      14.336   8.084   2.490 +1.35 +0.00    +0.152 A 
ATOM      2  C28 UNL     1      16.332   8.988   2.671 -0.46 +0.00    +0.052 A 
ATOM      3  C29 UNL     1      16.257   8.380   3.926 -0.50 +0.00    +0.035 A 
ATOM      4  C30 UNL     1      17.303   8.469   4.858 +1.20 +0.00    +0.022 A 
ATOM      5  C31 UNL     1      18.446   9.197   4.504 +1.14 +0.00    +0.018 A 
ATOM      6  C32 UNL     1      18.541   9.825   3.257 -0.27 +0.00    +0.034 A 
ATOM      7  C33 UNL     1      17.491   9.712   2.333 -0.44 +0.00    +0.048 A 
ATOM      8  N5  UNL     1      15.223   8.807   1.863 +0.90 -0.00    -0.335 N 
ATOM      9  H5  UNL     1      15.116   9.182   0.920 -0.45 +0.00    +0.168 HD
ATOM     10  S1  UNL     1      14.744   7.565   4.062 -0.67 -0.00    -0.052 SA
ENDROOT
BRANCH   1  11
ATOM     11  N4  UNL     1      13.105   7.655   2.074 +1.16 -0.00    -0.303 N 
ATOM     12  C26 UNL     1      12.314   6.825   2.835 -0.26 +0.00    +0.257 C 
ATOM     13  O4  UNL     1      12.595   6.318   3.914 -0.25 -0.00    -0.267 OA
ATOM     14  H76 UNL     1      12.835   7.922   1.141 +0.21 +0.00    +0.171 HD
BRANCH  12  15
ATOM     15  C24 UNL     1      10.997   6.493   2.221 -0.31 +0.00    +0.033 A 
ATOM     16  C23 UNL     1      10.448   7.388   1.299 -0.03 +0.00    +0.017 A 
ATOM     17  C22 UNL     1       9.214   7.119   0.709 -0.29 +0.00    +0.009 A 
ATOM     18  C8  UNL     1       8.518   5.943   1.022 -0.18 -0.00    -0.048 A 
ATOM     19  C7  UNL     1       9.062   5.033   1.947 -0.15 -0.00    -0.033 A 
ATOM     20  C9  UNL     1       7.171   5.682   0.388 -0.20 +0.00    +0.074 C 
ATOM     21  C6  UNL     1       8.357   3.742   2.292 -0.15 +0.00    +0.166 C 
ATOM     22  C25 UNL     1      10.312   5.310   2.529 +0.17 +0.00    +0.026 A 
ATOM     23  N2  UNL     1       6.956   3.723   1.879 -0.01 -0.00    -0.332 N 
ATOM     24  C5  UNL     1       6.116   2.870   2.581 -0.12 +0.00    +0.244 C 
ATOM     25  C10 UNL     1       6.712   4.220   0.506 -0.08 +0.00    +0.184 C 
ATOM     26  O2  UNL     1       6.566   2.102   3.442 -0.25 -0.00    -0.271 OA
BRANCH  24  27
ATOM     27  C4  UNL     1       4.581   2.958   2.357 -0.09 +0.00    +0.184 C 
BRANCH  27  28
ATOM     28  C60 UNL     1       3.839   1.620   2.669 -0.21 -0.00    -0.022 C 
ATOM     29  C61 UNL     1       4.786   0.405   2.695 +0.01 +0.00    +0.017 C 
ATOM     30  C62 UNL     1       3.120   1.708   4.030 -0.23 +0.00    +0.017 C 
ATOM     31  C63 UNL     1       2.763   1.371   1.588 -0.16 +0.00    +0.017 C 
ENDBRANCH  27  28
BRANCH  27  32
ATOM     32  N1  UNL     1       4.395   3.388   0.975 -0.03 -0.00    -0.345 N 
ATOM     33  C3  UNL     1       4.583   2.502  -0.064 -0.06 +0.00    +0.251 C 
ATOM     34  O1  UNL     1       5.098   1.399   0.111 -0.12 -0.00    -0.271 OA
ATOM     35  H74 UNL     1       3.680   4.086   0.774 +0.03 +0.00    +0.163 HD
BRANCH  33  36
ATOM     36  C2  UNL     1       4.028   2.991  -1.425 -0.06 +0.00    +0.307 C 
ATOM     37  C1  UNL     1       2.672   3.660  -1.211 -0.10 +0.00    +0.053 C 
BRANCH  36  38
ATOM     38  N11 UNL     1       3.956   1.848  -2.371 -0.05 +0.00    +0.092 N 
ATOM     39  C64 UNL     1       2.703   1.114  -2.253 -0.03 +0.00    +0.307 C 
ATOM     40  H81 UNL     1       4.740   1.220  -2.189 +0.07 +0.00    +0.316 HD
ENDBRANCH  36  38
ENDBRANCH  33  36
ENDBRANCH  27  32
ENDBRANCH  24  27
BRANCH  25  41
ATOM     41  C11 UNL     1       7.415   3.318  -0.545 -0.04 +0.00    +0.241 C 
ATOM     42  O3  UNL     1       7.743   2.156  -0.316 -0.06 -0.00    -0.271 OA
ATOM     43  N3  UNL     1       7.656   3.924  -1.759 -0.02 -0.00    -0.351 N 
ATOM     44  H75 UNL     1       7.674   4.941  -1.822 -0.27 +0.00    +0.163 HD
BRANCH  43  45
ATOM     45  C12 UNL     1       8.256   3.198  -2.869 -0.11 +0.00    +0.118 C 
ATOM     46  C13 UNL     1       7.208   2.786  -3.916 -0.15 +0.00    +0.030 C 
ATOM     47  C14 UNL     1       6.437   1.547  -3.479 -0.13 +0.00    +0.007 C 
ATOM     48  C15 UNL     1       7.384   0.361  -3.317 -0.14 +0.00    +0.039 C 
ATOM     49  C16 UNL     1       8.623   0.690  -2.522 -0.12 -0.00    -0.050 A 
ATOM     50  C17 UNL     1       9.400  -0.363  -2.013 -0.25 +0.00    +0.007 A 
ATOM     51  C21 UNL     1       9.046   2.018  -2.329 -0.02 -0.00    -0.029 A 
ATOM     52  C18 UNL     1      10.565  -0.105  -1.291 -0.34 +0.00    +0.001 A 
ATOM     53  C19 UNL     1      10.972   1.208  -1.076 -0.35 +0.00    +0.001 A 
ATOM     54  C20 UNL     1      10.218   2.262  -1.591 -0.24 +0.00    +0.010 A 
ENDBRANCH  43  45
ENDBRANCH  25  41
ENDBRANCH  12  15
ENDBRANCH   1  11
BRANCH   6  55
ATOM     55  C34 UNL     1      19.750  10.586   2.841 +0.27 +0.00    +0.252 C 
ATOM     56  O5  UNL     1      19.643  11.598   2.156 -0.37 -0.00    -0.268 OA
ATOM     57  N6  UNL     1      20.971  10.099   3.251 +0.27 -0.00    -0.351 N 
ATOM     58  H77 UNL     1      21.030   9.229   3.781 +0.11 +0.00    +0.163 HD
BRANCH  57  59
ATOM     59  C35 UNL     1      22.213  10.721   2.817 +3.49 +0.00    +0.105 C 
ATOM     60  C36 UNL     1      22.874  11.514   3.944 +2.85 +0.00    +0.061 C 
ATOM     61  C37 UNL     1      23.662  10.456   4.725 -0.35 +0.00    +0.181 C 
ATOM     62  N7  UNL     1      24.005   9.443   3.723 -0.32 -0.00    -0.335 N 
ATOM     63  C38 UNL     1      23.295   9.686   2.471 -0.33 +0.00    +0.152 C 
ATOM     64  C39 UNL     1      25.067   8.580   3.928 -0.38 +0.00    +0.244 C 
ATOM     65  O6  UNL     1      25.708   8.655   4.981 +3.80 -0.00    -0.271 OA
BRANCH  61  66
ATOM     66  C49 UNL     1      22.829   9.838   5.871 +0.55 +0.00    +0.241 C 
ATOM     67  O8  UNL     1      22.031   8.916   5.695+10.42 -0.00    -0.271 OA
ATOM     68  N10 UNL     1      23.071  10.401   7.104 +3.66 -0.00    -0.351 N 
ATOM     69  H80 UNL     1      23.904  10.985   7.193 -0.19 +0.00    +0.163 HD
BRANCH  68  70
ATOM     70  C50 UNL     1      22.398   9.954   8.316 +2.82 +0.00    +0.118 C 
ATOM     71  C51 UNL     1      21.300   8.941   7.941 -0.13 +0.00    +0.030 C 
ATOM     72  C52 UNL     1      20.374   8.662   9.114 +3.39 +0.00    +0.007 C 
ATOM     73  C53 UNL     1      19.639   9.938   9.508+15.08 +0.00    +0.039 C 
ATOM     74  C54 UNL     1      20.576  11.102   9.707 -0.32 -0.00    -0.050 A 
ATOM     75  C55 UNL     1      20.128  12.202  10.459 +0.56 +0.00    +0.007 A 
ATOM     76  C59 UNL     1      21.863  11.124   9.132 -0.65 -0.00    -0.029 A 
ATOM     77  C56 UNL     1      20.958  13.300  10.679 -0.55 +0.00    +0.001 A 
ATOM     78  C57 UNL     1      22.242  13.310  10.151 +6.53 +0.00    +0.001 A 
ATOM     79  C58 UNL     1      22.692  12.231   9.392 +0.28 +0.00    +0.010 A 
ENDBRANCH  68  70
ENDBRANCH  61  66
BRANCH  64  80
ATOM     80  C40 UNL     1      25.472   7.619   2.759 -0.37 +0.00    +0.184 C 
BRANCH  80  81
ATOM     81  C41 UNL     1      24.459   7.497   1.565 -0.46 -0.00    -0.022 C 
ATOM     82  C42 UNL     1      24.654   6.133   0.859 -0.52 +0.00    +0.017 C 
ATOM     83  C43 UNL     1      23.008   7.517   2.098 +0.33 +0.00    +0.017 C 
ATOM     84  C44 UNL     1      24.606   8.599   0.502 -0.39 +0.00    +0.017 C 
ENDBRANCH  80  81
BRANCH  80  85
ATOM     85  N8  UNL     1      26.867   7.792   2.331 -0.24 -0.00    -0.345 N 
ATOM     86  C45 UNL     1      27.325   7.434   1.082 -0.28 +0.00    +0.251 C 
ATOM     87  O7  UNL     1      26.578   7.124   0.158 -0.22 -0.00    -0.271 OA
ATOM     88  H78 UNL     1      27.557   7.930   3.059 -0.26 +0.00    +0.163 HD
BRANCH  86  89
ATOM     89  C46 UNL     1      28.861   7.500   0.925 -0.22 +0.00    +0.307 C 
ATOM     90  C47 UNL     1      29.200   7.885  -0.511 -0.27 +0.00    +0.053 C 
BRANCH  89  91
ATOM     91  N9  UNL     1      29.476   6.189   1.226 -0.21 +0.00    +0.092 N 
ATOM     92  C48 UNL     1      30.899   6.170   0.908 -0.12 +0.00    +0.307 C 
ATOM     93  H79 UNL     1      29.372   6.030   2.234 +0.23 +0.00    +0.316 HD
ENDBRANCH  89  91
ENDBRANCH  86  89
ENDBRANCH  80  85
ENDBRANCH  64  80
ENDBRANCH  57  59
ENDBRANCH   6  55
TORSDOF 18
TER
