USER    Run = 1
USER    DPF = ligand_417_receptor.dpf
USER  
USER    Estimated Free Energy of Binding    =  +2.41e+004 kcal/mol  [=(1)+(2)+(3)-(4)]
USER    
USER    (1) Final Intermolecular Energy     =  +2.41e+004 kcal/mol
USER        vdW + Hbond + desolv Energy     =  +2.41e+004 kcal/mol
USER        Electrostatic Energy            =   +0.00 kcal/mol
USER    (2) Final Total Internal Energy     =   +0.00 kcal/mol
USER    (3) Torsional Free Energy           =   +1.19 kcal/mol
USER    (4) Unbound System's Energy  [=(2)] =   +0.00 kcal/mol
USER    
USER    
USER    NEWDPF move ligand_417.pdbqt
USER    NEWDPF about 0.000000 0.000000 0.000000
USER    NEWDPF tran0 15.364831 6.776475 3.540229
USER    NEWDPF quaternion0 -0.750585 0.017543 0.103908 -0.652317
USER    NEWDPF axisangle0 -0.990288 0.023146 0.137091 -98.567018
USER    NEWDPF quat0 -0.990288 0.023146 0.137091 -98.567018
USER  keepresnum = 1 
USER  
REMARK  0 active torsions:
REMARK  status: ('A' for Active; 'I' for Inactive)
REMARK       I    between atoms: C2_2  and  C3_3 
REMARK       I    between atoms: C2_2  and  O13_60 
REMARK       I    between atoms: C3_3  and  C4_4 
REMARK       I    between atoms: C3_3  and  N12_74 
REMARK       I    between atoms: C4_4  and  N1_61 
REMARK       I    between atoms: C5_5  and  C6_6 
REMARK       I    between atoms: C5_5  and  N1_61 
REMARK       I    between atoms: C6_6  and  N2_62 
REMARK       I    between atoms: C7_7  and  C9_9 
REMARK       I    between atoms: C7_7  and  N2_62 
REMARK       I    between atoms: C9_9  and  N3_63 
REMARK       I    between atoms: C10_10  and  C11_11 
REMARK       I    between atoms: C10_10  and  C15_15 
REMARK       I    between atoms: C10_10  and  N3_63 
REMARK       I    between atoms: C11_11  and  C12_12 
REMARK       I    between atoms: C12_12  and  C13_13 
REMARK       I    between atoms: C13_13  and  N4_64 
REMARK       I    between atoms: C14_14  and  N5_66 
REMARK       I    between atoms: C14_14  and  N6_67 
REMARK       I    between atoms: C15_15  and  N7_68 
REMARK       I    between atoms: C16_16  and  C17_17 
REMARK       I    between atoms: C16_16  and  C21_21 
REMARK       I    between atoms: C16_16  and  N7_68 
REMARK       I    between atoms: C17_17  and  C18_18 
REMARK       I    between atoms: C18_18  and  C19_19 
REMARK       I    between atoms: C19_19  and  N8_69 
REMARK       I    between atoms: C20_20  and  N9_71 
REMARK       I    between atoms: C20_20  and  N10_72 
REMARK       I    between atoms: C21_21  and  N11_73 
REMARK       I    between atoms: C22_22  and  C23_23 
REMARK       I    between atoms: C22_22  and  C27_27 
REMARK       I    between atoms: C22_22  and  N11_73 
REMARK       I    between atoms: C23_23  and  C24_24 
REMARK       I    between atoms: C27_27  and  O7_54 
REMARK       I    between atoms: C28_28  and  C29_29 
REMARK       I    between atoms: C28_28  and  N12_74 
REMARK       I    between atoms: C29_29  and  C30_30 
REMARK       I    between atoms: C29_29  and  N13_75 
REMARK       I    between atoms: C30_30  and  C31_31 
REMARK       I    between atoms: C34_34  and  C35_35 
REMARK       I    between atoms: C34_34  and  N13_75 
REMARK       I    between atoms: C35_35  and  C36_36 
REMARK       I    between atoms: C35_35  and  N14_76 
REMARK       I    between atoms: C36_36  and  O10_57 
REMARK       I    between atoms: C37_37  and  C38_38 
REMARK       I    between atoms: C37_37  and  N14_76 
REMARK       I    between atoms: C42_42  and  C43_43 
REMARK       I    between atoms: C42_42  and  N15_77 
REMARK       I    between atoms: C43_43  and  C44_44 
REMARK       I    between atoms: C43_43  and  N19_82 
REMARK       I    between atoms: C44_44  and  C45_45 
REMARK       I    between atoms: C45_45  and  C46_46 
REMARK       I    between atoms: C46_46  and  N16_78 
REMARK       I    between atoms: C47_47  and  N17_80 
REMARK       I    between atoms: C47_47  and  N18_81 
USER                              x       y       z     vdW  Elec       q    Type
USER                           _______ _______ _______ _____ _____    ______ ____
ROOT
ATOM      1  C1  UNL     1      17.495  10.940   0.382 -0.42 +0.00    +0.042 C 
ATOM      2  C2  UNL     1      16.151  10.773   1.084 -0.45 +0.00    +0.146 C 
ATOM      3  C3  UNL     1      16.173  11.251   2.556 -0.28 +0.00    +0.205 C 
ATOM      4  C4  UNL     1      14.761  11.328   3.166+44.73 +0.00    +0.243 C 
ATOM      5  C5  UNL     1      13.026   9.774   3.910+99.99 +0.00    +0.225 C 
ATOM      6  C6  UNL     1      13.761   8.870   4.914 +0.29 +0.00    +0.236 C 
ATOM      7  C7  UNL     1      13.482   7.590   7.033 -0.25 +0.00    +0.172 C 
ATOM      8  C8  UNL     1      14.352   8.417   7.976+24.48 +0.00    +0.042 C 
ATOM      9  C9  UNL     1      12.336   6.915   7.820 -0.01 +0.00    +0.240 C 
ATOM     10  C10 UNL     1      10.030   6.005   7.594 +1.44 +0.00    +0.176 C 
ATOM     11  C11 UNL     1       9.203   7.118   8.264+99.99 +0.00    +0.036 C 
ATOM     12  C12 UNL     1       8.504   8.143   7.358+99.99 +0.00    +0.022 C 
ATOM     13  C13 UNL     1       9.419   9.082   6.567+99.99 +0.00    +0.121 C 
ATOM     14  C14 UNL     1       9.362   8.155   4.392 +1.89 +0.00    +0.121 C 
ATOM     15  C15 UNL     1       9.310   5.173   6.499 -0.25 +0.00    +0.241 C 
ATOM     16  C16 UNL     1       7.241   4.022   5.806 -0.27 +0.00    +0.176 C 
ATOM     17  C17 UNL     1       6.044   3.388   6.530 +0.96 +0.00    +0.036 C 
ATOM     18  C18 UNL     1       5.314   2.317   5.709 +9.99 +0.00    +0.022 C 
ATOM     19  C19 UNL     1       4.263   1.571   6.535 +6.68 +0.00    +0.121 C 
ATOM     20  C20 UNL     1       4.241   0.121   8.388+99.99 +0.00    +0.121 C 
ATOM     21  C21 UNL     1       6.777   4.899   4.616 -0.17 +0.00    +0.241 C 
ATOM     22  C22 UNL     1       6.057   4.808   2.219 -0.10 +0.00    +0.182 C 
ATOM     23  C23 UNL     1       7.211   5.436   1.425 -0.18 +0.00    +0.040 C 
ATOM     24  C24 UNL     1       6.798   6.346   0.249 -0.31 -0.00    -0.020 C 
ATOM     25  C25 UNL     1       5.958   7.542   0.698 +0.24 +0.00    +0.009 C 
ATOM     26  C26 UNL     1       8.050   6.842  -0.480 -0.33 +0.00    +0.009 C 
ATOM     27  C27 UNL     1       5.348   3.728   1.389 -0.08 +0.00    +0.163 C 
ATOM     28  C28 UNL     1      18.273  10.492   3.655 +0.76 +0.00    +0.241 C 
ATOM     29  C29 UNL     1      18.882   9.449   4.623+15.57 +0.00    +0.177 C 
ATOM     30  C30 UNL     1      18.416   9.635   6.077+99.99 +0.00    +0.038 C 
ATOM     31  C31 UNL     1      18.327  11.074   6.635+42.71 -0.00    -0.020 C 
ATOM     32  C32 UNL     1      19.656  11.826   6.638+99.99 +0.00    +0.009 C 
ATOM     33  C33 UNL     1      17.773  11.030   8.065+99.99 +0.00    +0.009 C 
ATOM     34  C34 UNL     1      20.915   8.973   3.347 -0.00 +0.00    +0.243 C 
ATOM     35  C35 UNL     1      22.315   9.527   3.017 -0.38 +0.00    +0.200 C 
ATOM     36  C36 UNL     1      22.229  11.016   2.651+25.12 +0.00    +0.199 C 
ATOM     37  C37 UNL     1      23.572   7.598   2.130 +0.22 +0.00    +0.241 C 
ATOM     38  C38 UNL     1      23.791   6.749   0.860 -0.38 +0.00    +0.179 C 
ATOM     39  C39 UNL     1      22.515   5.944   0.573 +6.16 +0.00    +0.037 C 
ATOM     40  C40 UNL     1      23.013   4.541   0.248 +2.39 +0.00    +0.022 C 
ATOM     41  C41 UNL     1      24.271   4.412   1.090 -0.43 +0.00    +0.127 C 
ATOM     42  C42 UNL     1      26.152   6.136   1.157 -0.11 +0.00    +0.253 C 
ATOM     43  C43 UNL     1      27.256   5.090   1.451+24.69 +0.00    +0.309 C 
ATOM     44  C44 UNL     1      27.698   4.323   0.199 -0.31 +0.00    +0.047 C 
ATOM     45  C45 UNL     1      28.365   5.239  -0.837 -0.25 +0.00    +0.022 C 
ATOM     46  C46 UNL     1      28.850   4.473  -2.067 -0.15 +0.00    +0.121 C 
ATOM     47  C47 UNL     1      30.541   2.924  -2.595 -0.07 +0.00    +0.121 C 
ATOM     48  O1  UNL     1      14.423  12.215   3.946+99.99 -0.00    -0.271 OA
ATOM     49  O2  UNL     1      14.952   8.577   4.801 -0.24 -0.00    -0.272 OA
ATOM     50  O3  UNL     1      12.402   6.653   9.019 -0.14 -0.00    -0.271 OA
ATOM     51  O4  UNL     1       9.894   4.749   5.499 -0.18 -0.00    -0.271 OA
ATOM     52  O5  UNL     1       6.549   6.106   4.709 -0.03 -0.00    -0.271 OA
ATOM     53  O6  UNL     1       4.694   3.902   0.374 -0.01 -0.00    -0.648 OA
ATOM     54  O7  UNL     1       5.537   2.470   1.858 +0.09 -0.00    -0.775 OA
ATOM     55  O8  UNL     1      18.952  11.372   3.119 +0.11 -0.00    -0.271 OA
ATOM     56  O9  UNL     1      20.322   8.176   2.619 +4.65 -0.00    -0.271 OA
ATOM     57  O10 UNL     1      21.328  11.253   1.566 +1.85 -0.00    -0.398 OA
ATOM     58  O11 UNL     1      23.938   7.258   3.255+18.42 -0.00    -0.271 OA
ATOM     59  O12 UNL     1      26.471   7.319   0.992 -0.23 -0.00    -0.271 OA
ATOM     60  O13 UNL     1      15.752   9.390   1.014 -0.04 -0.00    -0.393 OA
ATOM     61  N1  UNL     1      13.978  10.215   2.913+12.45 -0.00    -0.350 N 
ATOM     62  N2  UNL     1      12.964   8.411   5.935 -0.12 -0.00    -0.347 N 
ATOM     63  N3  UNL     1      11.272   6.526   7.044 -0.01 -0.00    -0.346 N 
ATOM     64  N4  UNL     1      10.060   8.395   5.440 +1.32 -0.00    -0.372 N 
ATOM     65  H4  UNL     1      11.039   8.115   5.490 +0.10 +0.00    +0.161 HD
ATOM     66  N5  UNL     1       9.892   7.465   3.363 -0.22 -0.00    -0.279 NA
ATOM     67  N6  UNL     1       8.078   8.468   4.105+25.30 -0.00    -0.279 NA
ATOM     68  N7  UNL     1       7.997   4.836   6.759 -0.19 -0.00    -0.346 N 
ATOM     69  N8  UNL     1       4.947   0.750   7.527+99.99 -0.00    -0.372 N 
ATOM     70  H8  UNL     1       5.965   0.678   7.534+99.99 +0.00    +0.161 HD
ATOM     71  N9  UNL     1       4.842  -0.631   9.333+99.99 -0.00    -0.279 NA
ATOM     72  N10 UNL     1       2.900   0.073   8.542+99.99 -0.00    -0.279 NA
ATOM     73  N11 UNL     1       6.574   4.201   3.448 -0.04 -0.00    -0.345 N 
ATOM     74  N12 UNL     1      16.926  10.364   3.446 -0.19 -0.00    -0.344 N 
ATOM     75  N13 UNL     1      20.337   9.503   4.491+50.57 -0.00    -0.346 N 
ATOM     76  N14 UNL     1      22.862   8.761   1.902 -0.18 -0.00    -0.344 N 
ATOM     77  N15 UNL     1      24.837   5.746   1.042 -0.21 -0.00    -0.337 N 
ATOM     78  N16 UNL     1      29.948   3.591  -1.680 +0.00 -0.00    -0.372 N 
ATOM     79  H16 UNL     1      30.234   3.510  -0.704 +0.07 +0.00    +0.161 HD
ATOM     80  N17 UNL     1      31.575   2.116  -2.276 -0.05 -0.00    -0.279 NA
ATOM     81  N18 UNL     1      30.314   2.880  -3.926 -0.01 -0.00    -0.279 NA
ATOM     82  N19 UNL     1      26.839   4.153   2.519+99.99 +0.00    +0.092 N 
ATOM     83  H63 UNL     1       5.051   1.909   1.216 +0.05 +0.00    +0.167 HD
ATOM     84  H64 UNL     1      20.431  11.350   1.958 +0.18 +0.00    +0.209 HD
ATOM     85  H65 UNL     1      16.083   9.030   0.171 +0.07 +0.00    +0.210 HD
ATOM     86  H66 UNL     1      14.454   9.476   2.392 -0.44 +0.00    +0.163 HD
ATOM     87  H67 UNL     1      11.985   8.698   5.960 +0.13 +0.00    +0.163 HD
ATOM     88  H68 UNL     1      11.219   6.843   6.079 +0.12 +0.00    +0.163 HD
ATOM     89  H69 UNL     1       9.621   7.818   2.454 +0.06 +0.00    +0.126 HD
ATOM     90  H70 UNL     1      10.885   7.289   3.442 +0.08 +0.00    +0.126 HD
ATOM     91  H71 UNL     1       7.566   8.890   4.868+99.99 +0.00    +0.126 HD
ATOM     92  H72 UNL     1       7.559   7.623   3.850 +0.10 +0.00    +0.126 HD
ATOM     93  H73 UNL     1       7.457   5.452   7.349 +0.09 +0.00    +0.163 HD
ATOM     94  H74 UNL     1       4.476  -0.450  10.260 +0.54 +0.00    +0.126 HD
ATOM     95  H75 UNL     1       5.845  -0.470   9.312+19.35 +0.00    +0.126 HD
ATOM     96  H76 UNL     1       2.585  -0.844   8.838+27.95 +0.00    +0.126 HD
ATOM     97  H77 UNL     1       2.376   0.388   7.735 +0.46 +0.00    +0.126 HD
ATOM     98  H78 UNL     1       6.793   3.209   3.404 +0.06 +0.00    +0.163 HD
ATOM     99  H79 UNL     1      16.424   9.574   3.859 +0.12 +0.00    +0.163 HD
ATOM    100  H80 UNL     1      20.796  10.304   4.899+99.99 +0.00    +0.163 HD
ATOM    101  H81 UNL     1      22.340   8.841   1.036 +0.12 +0.00    +0.163 HD
ATOM    102  H82 UNL     1      31.838   2.277  -1.307 +0.03 +0.00    +0.126 HD
ATOM    103  H83 UNL     1      32.371   2.262  -2.883 +0.02 +0.00    +0.126 HD
ATOM    104  H84 UNL     1      29.419   3.260  -4.204 +0.04 +0.00    +0.126 HD
ATOM    105  H85 UNL     1      30.441   1.947  -4.300 +0.03 +0.00    +0.126 HD
ATOM    106  H86 UNL     1      27.657   3.631   2.829+42.84 +0.00    +0.313 HD
ATOM    107  H87 UNL     1      26.533   4.710   3.321+99.99 +0.00    +0.313 HD
ENDROOT
TORSDOF 40
TER
