USER    Run = 1
USER    DPF = ligand_91_receptor.dpf
USER  
USER    Estimated Free Energy of Binding    =  -13.80 kcal/mol  [=(1)+(2)+(3)-(4)]
USER    Estimated Inhibition Constant, Ki   =   76.00 pM (picomolar)  [Temperature = 298.15 K]
USER    
USER    (1) Final Intermolecular Energy     =  -15.00 kcal/mol
USER        vdW + Hbond + desolv Energy     =  -15.00 kcal/mol
USER        Electrostatic Energy            =   +0.00 kcal/mol
USER    (2) Final Total Internal Energy     =   -1.25 kcal/mol
USER    (3) Torsional Free Energy           =   +1.19 kcal/mol
USER    (4) Unbound System's Energy  [=(2)] =   -1.25 kcal/mol
USER    
USER    
USER    NEWDPF move ligand_91.pdbqt
USER    NEWDPF about 0.000000 0.000000 0.000000
USER    NEWDPF tran0 15.613894 7.351932 4.118945
USER    NEWDPF quaternion0 0.282992 0.150102 0.061519 -0.945304
USER    NEWDPF axisangle0 0.867570 0.460167 0.188599 -38.075364
USER    NEWDPF quat0 0.867570 0.460167 0.188599 -38.075364
USER    NEWDPF dihe0 -67.80 109.30 -153.56 90.73 115.15 -5.42 -180.00 -24.92 -180.00 104.80 
USER  keepresnum = 1 
USER  
REMARK  10 active torsions:
REMARK  status: ('A' for Active; 'I' for Inactive)
REMARK    1  A    between atoms: C3_3  and  N4_31 
REMARK    2  A    between atoms: C5_5  and  N1_28 
REMARK    3  A    between atoms: C8_8  and  C9_9 
REMARK       I    between atoms: C8_8  and  N1_28 
REMARK    4  A    between atoms: C12_12  and  N2_29 
REMARK    5  A    between atoms: C19_19  and  C20_20 
REMARK    6  A    between atoms: C19_19  and  N3_30 
REMARK    7  A    between atoms: C20_20  and  O2_39 
REMARK    8  A    between atoms: C21_21  and  C22_22 
REMARK       I    between atoms: C21_21  and  N4_31 
REMARK    9  A    between atoms: C25_25  and  N8_37 
REMARK   10  A    between atoms: C26_26  and  N7_36 
USER                              x       y       z     vdW  Elec       q    Type
USER                           _______ _______ _______ _____ _____    ______ ____
ROOT
ATOM      1  C1  UNL     1      19.776  12.596   0.817 -0.56 +0.00    +0.050 C 
ATOM      2  C2  UNL     1      18.674  11.713   1.343 -0.61 -0.00    -0.035 A 
ATOM      3  C3  UNL     1      18.913  10.636   2.222 -0.44 +0.00    +0.043 A 
ATOM      4  C4  UNL     1      17.825   9.868   2.661 -0.42 +0.00    +0.059 A 
ATOM      5  C5  UNL     1      16.512  10.140   2.244 -0.45 +0.00    +0.037 A 
ATOM      6  C6  UNL     1      16.289  11.206   1.379 -0.52 +0.00    +0.030 A 
ATOM      7  C7  UNL     1      17.359  11.983   0.932 -0.54 +0.00    +0.011 A 
ENDROOT
BRANCH   3   8
ATOM      8  N4  UNL     1      20.245  10.380   2.635 -0.14 -0.00    -0.322 N 
ATOM      9  C21 UNL     1      21.287   9.855   1.891 -0.28 +0.00    +0.259 C 
ATOM     10  O3  UNL     1      21.241   9.560   0.701 -0.25 -0.00    -0.267 OA
ATOM     11  H25 UNL     1      20.470  10.675   3.574 +0.24 +0.00    +0.169 HD
BRANCH   9  12
ATOM     12  C22 UNL     1      22.523   9.672   2.641 -0.37 +0.00    +0.072 A 
ATOM     13  C23 UNL     1      22.750   9.961   3.974 -0.40 +0.00    +0.162 A 
ATOM     14  O4  UNL     1      24.012   9.623   4.341 -0.76 -0.00    -0.304 OA
ATOM     15  C24 UNL     1      24.623   9.097   3.244 -0.46 +0.00    +0.164 A 
ATOM     16  C27 UNL     1      23.750   9.105   2.170 -0.41 +0.00    +0.076 A 
ATOM     17  N5  UNL     1      25.883   8.650   3.262 -0.36 -0.00    -0.312 N 
ATOM     18  C26 UNL     1      24.260   8.595   0.975 -0.35 +0.00    +0.116 A 
ATOM     19  N6  UNL     1      25.523   8.123   0.961 -0.17 -0.00    -0.319 N 
ATOM     20  C25 UNL     1      26.269   8.188   2.074 -0.39 +0.00    +0.158 A 
ATOM     21  H6  UNL     1      25.909   7.719   0.107 +0.12 +0.00    +0.170 HD
ATOM     22  H5  UNL     1      26.479   8.661   4.090 -0.45 +0.00    +0.170 HD
BRANCH  18  23
ATOM     23  N7  UNL     1      23.544   8.545  -0.208 -0.18 -0.00    -0.385 N 
ATOM     24  H26 UNL     1      22.638   8.108  -0.103 +0.11 +0.00    +0.157 HD
ATOM     25  H27 UNL     1      23.594   9.380  -0.792 +0.12 +0.00    +0.157 HD
ENDBRANCH  18  23
BRANCH  20  26
ATOM     26  N8  UNL     1      27.553   7.686   1.984 -0.24 -0.00    -0.274 NA
ATOM     27  H28 UNL     1      28.037   8.096   1.198 +0.07 +0.00    +0.127 HD
ATOM     28  H29 UNL     1      28.003   7.726   2.888 -0.15 +0.00    +0.127 HD
ENDBRANCH  20  26
ENDBRANCH   9  12
ENDBRANCH   3   8
BRANCH   5  29
ATOM     29  N1  UNL     1      15.491   9.306   2.747 -0.19 -0.00    -0.323 N 
ATOM     30  C8  UNL     1      15.618   8.279   3.665 -0.39 +0.00    +0.256 C 
ATOM     31  O1  UNL     1      16.637   7.944   4.257 -0.60 -0.00    -0.267 OA
ATOM     32  H24 UNL     1      14.552   9.541   2.450 -0.46 +0.00    +0.169 HD
BRANCH  30  33
ATOM     33  C9  UNL     1      14.354   7.551   3.969 -0.46 +0.00    +0.032 A 
ATOM     34  C10 UNL     1      14.063   7.071   5.247 -0.46 +0.00    +0.019 A 
ATOM     35  C11 UNL     1      12.860   6.390   5.483 -0.39 +0.00    +0.030 A 
ATOM     36  C12 UNL     1      11.909   6.174   4.470 -0.30 +0.00    +0.030 A 
ATOM     37  C13 UNL     1      12.225   6.684   3.199 -0.34 +0.00    +0.030 A 
ATOM     38  C14 UNL     1      13.422   7.368   2.948 -0.27 +0.00    +0.019 A 
BRANCH  36  39
ATOM     39  N2  UNL     1      10.729   5.496   4.715 -0.07 -0.00    -0.378 N 
ATOM     40  C15 UNL     1       9.856   5.033   3.624 -0.19 +0.00    +0.153 C 
ATOM     41  C16 UNL     1       8.980   3.837   4.073 -0.20 +0.00    +0.292 C 
ATOM     42  N3  UNL     1       8.162   4.047   5.287 -0.28 +0.00    +0.093 N 
ATOM     43  C17 UNL     1       8.687   5.170   6.094 -0.20 +0.00    +0.292 C 
ATOM     44  C18 UNL     1      10.229   5.285   6.083 -0.28 +0.00    +0.153 C 
BRANCH  42  45
ATOM     45  C19 UNL     1       6.734   4.240   5.002 -0.17 +0.00    +0.298 C 
BRANCH  45  46
ATOM     46  C20 UNL     1       5.921   4.677   6.231 -0.34 +0.00    +0.194 C 
BRANCH  46  47
ATOM     47  O2  UNL     1       5.436   3.536   6.935 -0.75 -0.00    -0.399 OA
ATOM     48  H30 UNL     1       5.713   2.747   6.439 -0.42 +0.00    +0.209 HD
ENDBRANCH  46  47
ENDBRANCH  45  46
ENDBRANCH  42  45
ENDBRANCH  36  39
ENDBRANCH  30  33
ENDBRANCH   5  29
TORSDOF 10
TER
