USER    Run = 1
USER    DPF = ligand_93_receptor.dpf
USER  
USER    Estimated Free Energy of Binding    =  +2.87e+003 kcal/mol  [=(1)+(2)+(3)-(4)]
USER    
USER    (1) Final Intermolecular Energy     =  +2.87e+003 kcal/mol
USER        vdW + Hbond + desolv Energy     =  +2.87e+003 kcal/mol
USER        Electrostatic Energy            =   +0.00 kcal/mol
USER    (2) Final Total Internal Energy     =   +0.00 kcal/mol
USER    (3) Torsional Free Energy           =   +1.19 kcal/mol
USER    (4) Unbound System's Energy  [=(2)] =   +0.00 kcal/mol
USER    
USER    
USER    NEWDPF move ligand_93.pdbqt
USER    NEWDPF about 0.000000 0.000000 0.000000
USER    NEWDPF tran0 10.433792 5.127806 3.360136
USER    NEWDPF quaternion0 0.544448 0.483800 0.255854 0.635651
USER    NEWDPF axisangle0 0.705265 0.626703 0.331428 101.063413
USER    NEWDPF quat0 0.705265 0.626703 0.331428 101.063413
USER  keepresnum = 1 
USER  
REMARK  0 active torsions:
REMARK  status: ('A' for Active; 'I' for Inactive)
REMARK       I    between atoms: C2_2  and  C4_4 
REMARK       I    between atoms: C4_4  and  C5_5 
REMARK       I    between atoms: C5_5  and  C6_6 
REMARK       I    between atoms: C5_5  and  N3_59 
REMARK       I    between atoms: C6_6  and  N1_57 
REMARK       I    between atoms: C7_7  and  C8_8 
REMARK       I    between atoms: C7_7  and  C15_15 
REMARK       I    between atoms: C7_7  and  N1_57 
REMARK       I    between atoms: C8_8  and  C9_9 
REMARK       I    between atoms: C15_15  and  N2_58 
REMARK       I    between atoms: C16_16  and  C17_17 
REMARK       I    between atoms: C16_16  and  N3_59 
REMARK       I    between atoms: C17_17  and  C18_18 
REMARK       I    between atoms: C17_17  and  N6_63 
REMARK       I    between atoms: C18_18  and  C19_19 
REMARK       I    between atoms: C22_22  and  C23_23 
REMARK       I    between atoms: C22_22  and  N6_63 
REMARK       I    between atoms: C23_23  and  N7_64 
REMARK       I    between atoms: C24_24  and  C25_25 
REMARK       I    between atoms: C24_24  and  N7_64 
REMARK       I    between atoms: C25_25  and  C26_26 
REMARK       I    between atoms: C25_25  and  N8_65 
REMARK       I    between atoms: C29_29  and  C30_30 
REMARK       I    between atoms: C29_29  and  N8_65 
REMARK       I    between atoms: C30_30  and  N9_66 
REMARK       I    between atoms: C32_32  and  C33_33 
REMARK       I    between atoms: C32_32  and  N9_66 
REMARK       I    between atoms: C33_33  and  C34_34 
REMARK       I    between atoms: C33_33  and  N11_68 
REMARK       I    between atoms: C34_34  and  C35_35 
REMARK       I    between atoms: C43_43  and  C44_44 
REMARK       I    between atoms: C43_43  and  N11_68 
REMARK       I    between atoms: C44_44  and  C45_45 
REMARK       I    between atoms: C44_44  and  N12_69 
REMARK       I    between atoms: C45_45  and  C46_46 
REMARK       I    between atoms: C46_46  and  C47_47 
REMARK       I    between atoms: C47_47  and  O9_80 
REMARK       I    between atoms: C48_48  and  C49_49 
REMARK       I    between atoms: C48_48  and  N12_69 
REMARK       I    between atoms: C49_49  and  C50_50 
REMARK       I    between atoms: C49_49  and  N13_70 
REMARK       I    between atoms: C50_50  and  C51_51 
USER                              x       y       z     vdW  Elec       q    Type
USER                           _______ _______ _______ _____ _____    ______ ____
ROOT
ATOM      1  C1  UNL     1      15.645   3.445   7.077+89.34 +0.00    +0.009 C 
ATOM      2  C2  UNL     1      14.301   3.480   7.810 +8.76 -0.00    -0.021 C 
ATOM      3  C3  UNL     1      14.372   2.514   9.001+99.99 +0.00    +0.009 C 
ATOM      4  C4  UNL     1      13.927   4.894   8.312 -0.40 +0.00    +0.030 C 
ATOM      5  C5  UNL     1      13.109   5.790   7.355 -0.50 +0.00    +0.113 C 
ATOM      6  C6  UNL     1      13.783   6.123   6.000 -0.31 +0.00    +0.295 C 
ATOM      7  C7  UNL     1      15.751   6.970   4.818 +1.09 +0.00    +0.315 C 
ATOM      8  C8  UNL     1      15.309   8.295   4.165 -0.49 +0.00    +0.084 C 
ATOM      9  C9  UNL     1      15.580   8.401   2.677 -0.34 -0.00    -0.056 A 
ATOM     10  C10 UNL     1      15.082   7.443   1.782+70.52 +0.00    +0.009 A 
ATOM     11  C11 UNL     1      15.342   7.546   0.414 +9.17 +0.00    +0.024 A 
ATOM     12  C12 UNL     1      16.086   8.619  -0.071 -0.47 +0.00    +0.034 A 
ATOM     13  C13 UNL     1      16.574   9.589   0.802 -0.49 +0.00    +0.024 A 
ATOM     14  C14 UNL     1      16.318   9.482   2.172 -0.47 +0.00    +0.009 A 
ATOM     15  C15 UNL     1      17.281   6.914   5.085+36.34 +0.00    +0.249 C 
ATOM     16  C16 UNL     1      10.666   5.981   6.899 -0.15 +0.00    +0.241 C 
ATOM     17  C17 UNL     1       9.429   5.186   6.424 -0.28 +0.00    +0.182 C 
ATOM     18  C18 UNL     1       9.594   4.537   5.034 -0.32 +0.00    +0.093 C 
ATOM     19  C19 UNL     1      10.506   5.207   4.053 -0.25 +0.00    +0.028 A 
ATOM     20  C20 UNL     1      11.470   4.707   3.202+10.02 +0.00    +0.114 A 
ATOM     21  C21 UNL     1      11.406   6.808   2.814 -0.25 +0.00    +0.180 A 
ATOM     22  C22 UNL     1       7.707   6.949   5.834+99.99 +0.00    +0.236 C 
ATOM     23  C23 UNL     1       6.439   7.617   6.371+99.99 +0.00    +0.225 C 
ATOM     24  C24 UNL     1       5.145   5.834   7.493 +0.02 +0.00    +0.241 C 
ATOM     25  C25 UNL     1       3.989   4.827   7.284 -0.27 +0.00    +0.180 C 
ATOM     26  C26 UNL     1       3.109   4.592   8.533 +4.75 +0.00    +0.009 C 
ATOM     27  C27 UNL     1       2.373   5.875   8.927 +6.53 +0.00    +0.012 C 
ATOM     28  C28 UNL     1       3.837   4.016   9.752+99.99 +0.00    +0.012 C 
ATOM     29  C29 UNL     1       5.031   3.490   5.483 -0.22 +0.00    +0.240 C 
ATOM     30  C30 UNL     1       5.678   2.134   5.143+21.71 +0.00    +0.172 C 
ATOM     31  C31 UNL     1       4.605   1.064   4.976 +0.28 +0.00    +0.042 C 
ATOM     32  C32 UNL     1       7.626   1.484   3.759 +7.68 +0.00    +0.241 C 
ATOM     33  C33 UNL     1       8.333   1.633   2.381 +1.57 +0.00    +0.181 C 
ATOM     34  C34 UNL     1       9.650   0.830   2.451+42.67 +0.00    +0.075 C 
ATOM     35  C35 UNL     1      10.576   0.984   1.280 -0.02 -0.00    -0.028 A 
ATOM     36  C36 UNL     1      10.236   1.140  -0.050 -0.25 +0.00    +0.096 A 
ATOM     37  C37 UNL     1      12.484   1.229   0.053+30.53 +0.00    +0.042 A 
ATOM     38  C38 UNL     1      13.846   1.354  -0.246+76.39 +0.00    +0.030 A 
ATOM     39  C39 UNL     1      14.754   1.231   0.809+80.90 +0.00    +0.002 A 
ATOM     40  C40 UNL     1      14.316   0.992   2.108+20.61 +0.00    +0.001 A 
ATOM     41  C41 UNL     1      12.949   0.878   2.390+16.79 +0.00    +0.014 A 
ATOM     42  C42 UNL     1      12.009   1.007   1.345+12.47 -0.00    -0.002 A 
ATOM     43  C43 UNL     1       7.564   3.845   1.515 -0.07 +0.00    +0.241 C 
ATOM     44  C44 UNL     1       8.038   5.270   1.127 -0.11 +0.00    +0.177 C 
ATOM     45  C45 UNL     1       6.950   6.077   0.402 -0.26 +0.00    +0.045 C 
ATOM     46  C46 UNL     1       7.159   7.585   0.507 -0.43 +0.00    +0.112 C 
ATOM     47  C47 UNL     1       7.994   8.121  -0.616 -0.32 +0.00    +0.139 C 
ATOM     48  C48 UNL     1       9.572   4.730  -0.778 -0.09 +0.00    +0.251 C 
ATOM     49  C49 UNL     1      11.056   4.674  -1.226 +0.06 +0.00    +0.313 C 
ATOM     50  C50 UNL     1      11.760   6.042  -1.286 -0.37 +0.00    +0.083 C 
ATOM     51  C51 UNL     1      11.425   7.036  -2.378 -0.25 -0.00    -0.056 A 
ATOM     52  C52 UNL     1      10.275   6.980  -3.172 -0.30 +0.00    +0.007 A 
ATOM     53  C53 UNL     1      10.016   7.969  -4.126 -0.35 +0.00    +0.001 A 
ATOM     54  C54 UNL     1      10.900   9.029  -4.301 -0.45 +0.00    +0.000 A 
ATOM     55  C55 UNL     1      12.046   9.106  -3.517 +9.43 +0.00    +0.001 A 
ATOM     56  C56 UNL     1      12.302   8.121  -2.562+87.71 +0.00    +0.007 A 
ATOM     57  N1  UNL     1      15.069   6.810   6.132 +0.03 +0.00    +0.099 N 
ATOM     58  N2  UNL     1      18.115   7.158   4.036 +2.22 -0.00    -0.368 N 
ATOM     59  N3  UNL     1      11.785   5.198   7.127 -0.14 -0.00    -0.353 N 
ATOM     60  N4  UNL     1      11.976   5.699   2.400 +0.70 -0.00    -0.360 N 
ATOM     61  H4  UNL     1      12.652   5.597   1.643 +0.01 +0.00    +0.166 HD
ATOM     62  N5  UNL     1      10.495   6.558   3.797 -0.10 -0.00    -0.354 N 
ATOM     63  N6  UNL     1       8.177   5.923   6.621 +0.35 -0.00    -0.346 N 
ATOM     64  N7  UNL     1       5.332   6.679   6.418 +0.34 -0.00    -0.351 N 
ATOM     65  N8  UNL     1       4.575   3.581   6.787 -0.19 -0.00    -0.346 N 
ATOM     66  N9  UNL     1       6.497   2.242   3.949 -0.01 -0.00    -0.346 N 
ATOM     67  N10 UNL     1      11.388   1.304  -0.774 -0.15 -0.00    -0.365 N 
ATOM     68  N11 UNL     1       8.564   3.046   2.039 -0.08 -0.00    -0.346 N 
ATOM     69  N12 UNL     1       9.351   5.245   0.476 -0.03 -0.00    -0.346 N 
ATOM     70  N13 UNL     1      11.179   3.874  -2.479 +4.85 +0.00    +0.092 N 
ATOM     71 CL1  UNL     1      16.401   8.749  -1.757 +7.59 -0.00    -0.084 Cl
ATOM     72  O1  UNL     1      17.760   6.586   6.172+55.05 -0.00    -0.271 OA
ATOM     73  O2  UNL     1      10.658   7.201   7.045 +0.61 -0.00    -0.271 OA
ATOM     74  O3  UNL     1       8.246   7.328   4.798 +7.96 -0.00    -0.272 OA
ATOM     75  O4  UNL     1       5.923   5.806   8.445 +3.88 -0.00    -0.271 OA
ATOM     76  O5  UNL     1       4.912   4.414   4.682 -0.11 -0.00    -0.271 OA
ATOM     77  O6  UNL     1       8.003   0.684   4.616+99.99 -0.00    -0.271 OA
ATOM     78  O7  UNL     1       6.384   3.499   1.551 -0.05 -0.00    -0.271 OA
ATOM     79  O8  UNL     1       7.611   8.311  -1.758 +0.89 -0.00    -0.650 OA
ATOM     80  O9  UNL     1       9.261   8.391  -0.250 +1.63 -0.00    -0.776 OA
ATOM     81  O10 UNL     1       8.671   4.264  -1.476 -0.08 -0.00    -0.271 OA
ATOM     82  H60 UNL     1      15.703   6.283   6.741 +0.14 +0.00    +0.317 HD
ATOM     83  H61 UNL     1      17.793   7.200   3.079 +0.08 +0.00    +0.159 HD
ATOM     84  H62 UNL     1      19.105   7.028   4.198 +0.13 +0.00    +0.159 HD
ATOM     85  H63 UNL     1      11.761   4.240   6.805 +0.12 +0.00    +0.163 HD
ATOM     86  H64 UNL     1       9.877   7.241   4.230 +0.10 +0.00    +0.166 HD
ATOM     87  H65 UNL     1       7.740   5.848   7.541 +0.09 +0.00    +0.163 HD
ATOM     88  H66 UNL     1       5.004   6.317   5.520 +0.07 +0.00    +0.163 HD
ATOM     89  H67 UNL     1       5.005   2.967   7.468 +0.33 +0.00    +0.163 HD
ATOM     90  H68 UNL     1       6.139   2.794   3.165 +0.07 +0.00    +0.163 HD
ATOM     91  H69 UNL     1      11.432   1.540  -1.758 +0.10 +0.00    +0.165 HD
ATOM     92  H70 UNL     1       9.492   3.287   1.706 -0.42 +0.00    +0.163 HD
ATOM     93  H71 UNL     1      10.156   5.524   1.031 +0.02 +0.00    +0.163 HD
ATOM     94  H72 UNL     1      10.227   3.557  -2.709 +0.15 +0.00    +0.313 HD
ATOM     95  H73 UNL     1      11.413   4.506  -3.247 +0.23 +0.00    +0.313 HD
ATOM     96  H74 UNL     1       9.678   8.705  -1.083 +0.01 +0.00    +0.167 HD
ENDROOT
TORSDOF 34
TER
