USER    Run = 1
USER    DPF = ligand_21_receptor.dpf
USER  
USER    Estimated Free Energy of Binding    =   -6.91 kcal/mol  [=(1)+(2)+(3)-(4)]
USER    Estimated Inhibition Constant, Ki   =    8.66 uM (micromolar)  [Temperature = 298.15 K]
USER    
USER    (1) Final Intermolecular Energy     =   -8.10 kcal/mol
USER        vdW + Hbond + desolv Energy     =   -8.10 kcal/mol
USER        Electrostatic Energy            =   +0.00 kcal/mol
USER    (2) Final Total Internal Energy     =   -2.22 kcal/mol
USER    (3) Torsional Free Energy           =   +1.19 kcal/mol
USER    (4) Unbound System's Energy  [=(2)] =   -2.22 kcal/mol
USER    
USER    
USER    NEWDPF move ligand_21.pdbqt
USER    NEWDPF about 0.000000 0.000000 0.000000
USER    NEWDPF tran0 17.277871 9.285172 1.675995
USER    NEWDPF quaternion0 -0.120283 0.432870 -0.891548 -0.057428
USER    NEWDPF axisangle0 -0.120482 0.433585 -0.893022 -173.415633
USER    NEWDPF quat0 -0.120482 0.433585 -0.893022 -173.415633
USER    NEWDPF dihe0 93.53 -167.04 180.00 -179.39 21.56 -137.94 -180.00 170.60 62.81 179.10 -156.82 0.74 13.81 173.48 12.98 -107.85 -9.14 34.95 
USER  keepresnum = 1 
USER  
REMARK  18 active torsions:
REMARK  status: ('A' for Active; 'I' for Inactive)
REMARK    1  A    between atoms: C3_3  and  N5_42 
REMARK    2  A    between atoms: C5_5  and  C6_6 
REMARK       I    between atoms: C6_6  and  N2_38 
REMARK    3  A    between atoms: C7_7  and  C8_8 
REMARK    4  A    between atoms: C7_7  and  N2_38 
REMARK    5  A    between atoms: C8_8  and  C9_9 
REMARK    6  A    between atoms: C9_9  and  N4_41 
REMARK    7  A    between atoms: C10_10  and  C11_11 
REMARK       I    between atoms: C10_10  and  N5_42 
REMARK    8  A    between atoms: C13_13  and  N7_44 
REMARK    9  A    between atoms: C16_16  and  C17_17 
REMARK       I    between atoms: C16_16  and  N7_44 
REMARK   10  A    between atoms: C19_19  and  N10_48 
REMARK   11  A    between atoms: C21_21  and  C22_22 
REMARK       I    between atoms: C21_21  and  N10_48 
REMARK   12  A    between atoms: C23_23  and  N13_52 
REMARK   13  A    between atoms: C26_26  and  C27_27 
REMARK       I    between atoms: C26_26  and  N13_52 
REMARK   14  A    between atoms: C30_30  and  N14_53 
REMARK   15  A    between atoms: C33_33  and  C34_34 
REMARK   16  A    between atoms: C33_33  and  N14_53 
REMARK   17  A    between atoms: C35_35  and  C36_36 
REMARK   18  A    between atoms: C35_35  and  N14_53 
USER                              x       y       z     vdW  Elec       q    Type
USER                           _______ _______ _______ _____ _____    ______ ____
ROOT
ATOM      1  C17 UNL     1      17.358   8.940   2.022 -0.39 +0.00    +0.122 A 
ATOM      2  C18 UNL     1      18.579   8.491   2.502 +0.29 +0.00    +0.086 A 
ATOM      3  C19 UNL     1      19.569   9.275   1.874 +0.71 +0.00    +0.125 A 
ATOM      4  C20 UNL     1      16.803  10.769   0.360 -0.22 +0.00    +0.178 C 
ATOM      5  N8  UNL     1      19.021  10.164   1.050 -0.23 -0.00    -0.283 N 
ATOM      6  H8  UNL     1      19.499  10.856   0.471 +0.16 +0.00    +0.189 HD
ATOM      7  N9  UNL     1      17.696   9.949   1.150 -0.22 -0.00    -0.290 N 
ENDROOT
BRANCH   1   8
ATOM      8  C16 UNL     1      15.998   8.518   2.306 -0.31 +0.00    +0.274 C 
ATOM      9  N7  UNL     1      15.788   8.114   3.612 -0.30 -0.00    -0.320 N 
ATOM     10  H40 UNL     1      16.560   8.140   4.261 +0.11 +0.00    +0.169 HD
ATOM     11  O3  UNL     1      15.124   8.529   1.443 +0.58 -0.00    -0.266 OA
BRANCH   9  12
ATOM     12  C13 UNL     1      14.586   7.668   4.128 -0.46 +0.00    +0.053 A 
ATOM     13  C12 UNL     1      13.290   7.659   3.563 -0.40 +0.00    +0.066 A 
ATOM     14  C11 UNL     1      12.398   7.106   4.479 -0.33 +0.00    +0.105 A 
ATOM     15  N6  UNL     1      13.161   6.775   5.587 -0.17 -0.00    -0.354 N 
ATOM     16  C14 UNL     1      14.476   7.114   5.381 -0.33 +0.00    +0.120 A 
ATOM     17  C15 UNL     1      12.670   6.168   6.808 -0.38 +0.00    +0.156 C 
BRANCH  14  18
ATOM     18  C10 UNL     1      10.956   6.877   4.372 -0.22 +0.00    +0.273 C 
ATOM     19  N5  UNL     1      10.439   6.042   5.345 -0.10 -0.00    -0.320 N 
ATOM     20  H39 UNL     1      11.067   5.649   6.029 +0.12 +0.00    +0.169 HD
ATOM     21  O2  UNL     1      10.284   7.393   3.483 -0.26 -0.00    -0.266 OA
BRANCH  19  22
ATOM     22  C3  UNL     1       9.114   5.668   5.460 -0.20 +0.00    +0.053 A 
ATOM     23  C2  UNL     1       8.608   5.071   6.591 -0.30 +0.00    +0.120 A 
ATOM     24  N1  UNL     1       7.277   4.811   6.384 -0.18 -0.00    -0.354 N 
ATOM     25  C1  UNL     1       6.448   4.067   7.309 -0.27 +0.00    +0.156 C 
ATOM     26  C5  UNL     1       6.892   5.286   5.147 -0.21 +0.00    +0.104 A 
ATOM     27  C4  UNL     1       8.042   5.780   4.546 -0.17 +0.00    +0.066 A 
BRANCH  26  28
ATOM     28  C6  UNL     1       5.568   5.234   4.561 -0.13 +0.00    +0.268 C 
ATOM     29  N2  UNL     1       5.555   4.835   3.238 -0.03 -0.00    -0.355 N 
ATOM     30  H35 UNL     1       6.376   4.335   2.922 +0.07 +0.00    +0.162 HD
ATOM     31  O1  UNL     1       4.541   5.473   5.185 -0.13 -0.00    -0.266 OA
BRANCH  29  32
ATOM     32  C7  UNL     1       4.302   4.549   2.564 -0.13 +0.00    +0.130 C 
BRANCH  32  33
ATOM     33  C8  UNL     1       4.259   5.106   1.146 -0.10 +0.00    +0.089 C 
BRANCH  33  34
ATOM     34  C9  UNL     1       5.440   6.021   0.932 -0.21 +0.00    +0.049 C 
ATOM     35  N3  UNL     1       5.671   7.025   1.711 -0.12 -0.00    -0.393 N 
ATOM     36  H36 UNL     1       4.961   7.077   2.452 +0.05 +0.00    +0.157 HD
ATOM     37  H3  UNL     1       6.450   7.676   1.605 +0.07 +0.00    +0.157 HD
BRANCH  34  38
ATOM     38  N4  UNL     1       6.284   5.803  -0.111 -0.09 -0.00    -0.293 NA
ATOM     39  H37 UNL     1       6.671   6.624  -0.561 -0.41 +0.00    +0.125 HD
ATOM     40  H38 UNL     1       5.886   5.143  -0.773 -0.31 +0.00    +0.125 HD
ENDBRANCH  34  38
ENDBRANCH  33  34
ENDBRANCH  32  33
ENDBRANCH  29  32
ENDBRANCH  26  28
ENDBRANCH  19  22
ENDBRANCH  14  18
ENDBRANCH   9  12
ENDBRANCH   1   8
BRANCH   3  41
ATOM     41  N10 UNL     1      20.931   9.229   2.006 +0.01 -0.00    -0.305 N 
ATOM     42  C21 UNL     1      21.719  10.154   2.648 -0.07 +0.00    +0.291 C 
ATOM     43  O4  UNL     1      21.308  11.169   3.205 +0.39 -0.00    -0.264 OA
ATOM     44  H41 UNL     1      21.392   8.427   1.585 +0.21 +0.00    +0.170 HD
BRANCH  42  45
ATOM     45  C22 UNL     1      23.129   9.794   2.597 -0.16 +0.00    +0.178 A 
ATOM     46  N11 UNL     1      23.597   8.856   1.789 -0.19 -0.00    -0.323 N 
ATOM     47  C23 UNL     1      24.936   8.788   2.016 -0.39 +0.00    +0.125 A 
ATOM     48  H11 UNL     1      23.059   8.296   1.128 +0.13 +0.00    +0.169 HD
ATOM     49  C24 UNL     1      25.314   9.701   2.971 -0.48 +0.00    +0.140 A 
ATOM     50  N12 UNL     1      24.155  10.333   3.336 -0.27 -0.00    -0.339 N 
ATOM     51  C25 UNL     1      24.040  11.379   4.324 +1.23 +0.00    +0.157 C 
BRANCH  47  52
ATOM     52  N13 UNL     1      25.792   7.931   1.371 -0.19 -0.00    -0.308 N 
ATOM     53  C26 UNL     1      25.391   6.984   0.451 -0.27 +0.00    +0.257 C 
ATOM     54  O5  UNL     1      24.247   6.712   0.109 -0.29 -0.00    -0.267 OA
ATOM     55  H42 UNL     1      26.758   7.971   1.655 +0.12 +0.00    +0.170 HD
BRANCH  53  56
ATOM     56  C27 UNL     1      26.505   6.193  -0.145 -0.34 +0.00    +0.032 A 
ATOM     57  C28 UNL     1      27.815   6.643   0.032 -0.29 +0.00    +0.019 A 
ATOM     58  C29 UNL     1      28.886   5.927  -0.517 -0.19 +0.00    +0.030 A 
ATOM     59  C30 UNL     1      28.685   4.740  -1.235 -0.18 +0.00    +0.030 A 
ATOM     60  C31 UNL     1      27.359   4.301  -1.386 -0.29 +0.00    +0.030 A 
ATOM     61  C32 UNL     1      26.277   5.010  -0.848 -0.39 +0.00    +0.019 A 
BRANCH  59  62
ATOM     62  N14 UNL     1      29.730   3.997  -1.793 +0.01 -0.00    -0.379 N 
BRANCH  62  63
ATOM     63  C33 UNL     1      29.568   2.545  -2.022 -0.14 +0.00    +0.138 C 
BRANCH  63  64
ATOM     64  C34 UNL     1      29.547   2.211  -3.516 -0.11 +0.00    +0.134 C 
ATOM     65 CL1  UNL     1      27.918   2.460  -4.194 -0.31 -0.00    -0.129 Cl
ENDBRANCH  63  64
ENDBRANCH  62  63
BRANCH  62  66
ATOM     66  C35 UNL     1      30.597   4.718  -2.757 -0.05 +0.00    +0.138 C 
BRANCH  66  67
ATOM     67  C36 UNL     1      29.840   5.593  -3.764 -0.14 +0.00    +0.134 C 
ATOM     68 CL2  UNL     1      30.279   7.318  -3.635 -0.31 -0.00    -0.129 Cl
ENDBRANCH  66  67
ENDBRANCH  62  66
ENDBRANCH  59  62
ENDBRANCH  53  56
ENDBRANCH  47  52
ENDBRANCH  42  45
ENDBRANCH   3  41
TORSDOF 18
TER
