USER    Run = 1
USER    DPF = ligand_406_receptor.dpf
USER  
USER    Estimated Free Energy of Binding    =  +71.39 kcal/mol  [=(1)+(2)+(3)-(4)]
USER    
USER    (1) Final Intermolecular Energy     =  +70.19 kcal/mol
USER        vdW + Hbond + desolv Energy     =  +70.19 kcal/mol
USER        Electrostatic Energy            =   +0.00 kcal/mol
USER    (2) Final Total Internal Energy     =  +22.03 kcal/mol
USER    (3) Torsional Free Energy           =   +1.19 kcal/mol
USER    (4) Unbound System's Energy  [=(2)] =  +22.03 kcal/mol
USER    
USER    
USER    NEWDPF move ligand_406.pdbqt
USER    NEWDPF about 0.000000 0.000000 0.000000
USER    NEWDPF tran0 13.701945 6.826007 5.349084
USER    NEWDPF quaternion0 0.613089 0.230603 0.123992 -0.745365
USER    NEWDPF axisangle0 0.919649 0.345910 0.185991 -83.619009
USER    NEWDPF quat0 0.919649 0.345910 0.185991 -83.619009
USER    NEWDPF dihe0 60.43 74.26 163.52 161.64 -179.97 87.43 -96.79 -173.79 56.49 -45.63 84.65 -35.66 -179.91 170.11 44.88 -164.69 -140.13 -180.00 -153.76 153.95 
USER  keepresnum = 1 
USER  
REMARK  20 active torsions:
REMARK  status: ('A' for Active; 'I' for Inactive)
REMARK    1  A    between atoms: C4_4  and  N9_57 
REMARK    2  A    between atoms: C5_5  and  N8_56 
REMARK    3  A    between atoms: C7_7  and  N1_43 
REMARK    4  A    between atoms: C8_8  and  N2_45 
REMARK    5  A    between atoms: C15_15  and  N5_51 
REMARK    6  A    between atoms: C18_18  and  S1_75 
REMARK    7  A    between atoms: C22_22  and  N6_52 
REMARK    8  A    between atoms: C23_23  and  O8_69 
REMARK    9  A    between atoms: C24_24  and  N7_54 
REMARK   10  A    between atoms: C31_31  and  N10_59 
REMARK   11  A    between atoms: C33_33  and  S3_77 
REMARK   12  A    between atoms: C34_34  and  N11_61 
REMARK   13  A    between atoms: C37_37  and  N11_61 
REMARK   14  A    between atoms: N3_47  and  N4_49 
REMARK   15  A    between atoms: N5_51  and  O1_62 
REMARK   16  A    between atoms: N5_51  and  O2_63 
REMARK   17  A    between atoms: N8_56  and  S2_76 
REMARK   18  A    between atoms: O6_67  and  S1_75 
REMARK   19  A    between atoms: O12_73  and  S3_77 
REMARK   20  A    between atoms: O13_74  and  S3_77 
USER                              x       y       z     vdW  Elec       q    Type
USER                           _______ _______ _______ _____ _____    ______ ____
ROOT
ATOM      1  C8  UNL     1      11.561   5.029   4.531 -0.02 +0.00    +0.086 C 
ATOM      2  C9  UNL     1      11.007   4.747   5.715 -0.38 +0.00    +0.069 C 
ATOM      3  C10 UNL     1       9.683   4.086   5.778 -0.39 +0.00    +0.102 C 
ATOM      4  C21 UNL     1       9.082   3.601   4.466 -0.26 +0.00    +0.230 C 
ATOM      5  C22 UNL     1       9.706   4.090   3.202 +0.07 +0.00    +0.136 C 
ATOM      6  C23 UNL     1      10.882   4.737   3.275 +1.81 +0.00    +0.126 C 
ATOM      7  N3  UNL     1       8.989   3.872   6.857 -0.26 -0.00    -0.296 N 
ATOM      8  H3  UNL     1       8.078   3.415   6.846 +0.02 +0.00    +0.187 HD
ATOM      9  O7  UNL     1       8.134   2.823   4.486 -0.19 -0.00    -0.283 OA
ENDROOT
BRANCH   1  10
ATOM     10  N2  UNL     1      12.762   5.694   4.464 +0.39 -0.00    -0.297 N 
ATOM     11  N1  UNL     1      12.673   6.936   4.348 -0.21 -0.00    -0.300 N 
ATOM     12  H1  UNL     1      11.796   7.455   4.362 +0.13 +0.00    +0.187 HD
ATOM     13  H2  UNL     1      13.660   5.211   4.505 +0.26 +0.00    +0.187 HD
BRANCH  11  14
ATOM     14  C7  UNL     1      13.948   7.524   4.194 -0.45 +0.00    +0.056 A 
ATOM     15  C2  UNL     1      15.078   6.890   4.747 +0.28 -0.00    -0.032 A 
ATOM     16  C1  UNL     1      14.934   5.613   5.527+16.49 +0.00    +0.050 C 
ATOM     17  C3  UNL     1      16.353   7.449   4.555 -0.13 +0.00    +0.041 A 
ATOM     18  C4  UNL     1      16.523   8.633   3.828 -0.48 +0.00    +0.070 A 
ATOM     19  C5  UNL     1      15.387   9.257   3.282 -0.36 +0.00    +0.052 A 
ATOM     20  C6  UNL     1      14.118   8.700   3.449 -0.09 +0.00    +0.058 A 
BRANCH  18  21
ATOM     21  N9  UNL     1      17.829   9.125   3.630 -0.28 -0.00    -0.299 N 
ATOM     22  N10 UNL     1      18.511   8.319   2.959 -0.22 -0.00    -0.300 N 
ATOM     23  H10 UNL     1      18.172   7.421   2.613 +0.11 +0.00    +0.187 HD
ATOM     24  H9  UNL     1      18.172  10.017   3.985 +0.14 +0.00    +0.187 HD
BRANCH  22  25
ATOM     25  C31 UNL     1      19.811   8.818   2.747 +0.50 +0.00    +0.049 A 
ATOM     26  C32 UNL     1      20.675   8.929   3.839 +0.86 +0.00    +0.057 A 
ATOM     27  C33 UNL     1      21.961   9.452   3.668 -0.17 +0.00    +0.087 A 
ATOM     28  C34 UNL     1      22.418   9.863   2.409 -0.23 +0.00    +0.035 A 
ATOM     29  C35 UNL     1      21.536   9.782   1.325 -0.40 +0.00    +0.027 A 
ATOM     30  C36 UNL     1      20.247   9.263   1.493 +1.97 +0.00    +0.033 A 
BRANCH  27  31
ATOM     31  S3  UNL     1      22.964   9.604   5.062 -0.34 +0.00    +0.124 S 
ATOM     32  O11 UNL     1      23.889   8.259   5.079 +0.68 -0.00    -0.604 OA
BRANCH  31  33
ATOM     33  O12 UNL     1      22.165   9.653   6.446 +0.12 -0.00    -0.298 OA
ATOM     34  H33 UNL     1      22.429  10.435   6.979 -0.25 +0.00    +0.231 HD
ENDBRANCH  31  33
BRANCH  31  35
ATOM     35  O13 UNL     1      23.946  10.863   5.005 -0.09 -0.00    -0.298 OA
ATOM     36  H34 UNL     1      23.743  11.452   4.240 +0.05 +0.00    +0.231 HD
ENDBRANCH  31  35
ENDBRANCH  27  31
BRANCH  28  37
ATOM     37  N11 UNL     1      23.703  10.426   2.209 +1.29 -0.00    -0.258 NA
ATOM     38  H28 UNL     1      23.661  11.101   1.431 +0.97 +0.00    +0.134 HD
BRANCH  37  39
ATOM     39  C37 UNL     1      24.910   9.686   2.118 -0.51 +0.00    +0.012 A 
ATOM     40  C38 UNL     1      25.852   9.808   3.149 -0.38 +0.00    +0.024 A 
ATOM     41  C39 UNL     1      27.045   9.081   3.121 +0.11 +0.00    +0.002 A 
ATOM     42  C40 UNL     1      27.299   8.203   2.072 -0.50 +0.00    +0.000 A 
ATOM     43  C41 UNL     1      26.357   8.043   1.060 -0.43 +0.00    +0.002 A 
ATOM     44  C42 UNL     1      25.165   8.772   1.088 -0.35 +0.00    +0.024 A 
ENDBRANCH  37  39
ENDBRANCH  28  37
ENDBRANCH  22  25
ENDBRANCH  18  21
BRANCH  19  45
ATOM     45  N8  UNL     1      15.526  10.431   2.459 -0.28 -0.00    -0.184 NA
ATOM     46  H27 UNL     1      15.893  11.216   3.013 +0.09 +0.00    +0.146 HD
BRANCH  45  47
ATOM     47  S2  UNL     1      16.560  10.255   1.120 -0.53 +0.00    +0.210 S 
ATOM     48  C30 UNL     1      16.323   8.528   0.771 -0.44 +0.00    +0.180 C 
ATOM     49  O9  UNL     1      15.958  11.015   0.046 +0.40 -0.00    -0.211 OA
ATOM     50  O10 UNL     1      17.936  10.447   1.521 -0.32 -0.00    -0.211 OA
ENDBRANCH  45  47
ENDBRANCH  19  45
ENDBRANCH  11  14
ENDBRANCH   1  10
BRANCH   6  51
ATOM     51  O8  UNL     1      11.528   5.160   2.119 +2.95 -0.00    -0.356 OA
ATOM     52  H32 UNL     1      11.002   4.840   1.360 -0.28 +0.00    +0.218 HD
ENDBRANCH   6  51
BRANCH   5  53
ATOM     53  N6  UNL     1       9.088   3.794   2.013 -0.03 -0.00    -0.294 N 
ATOM     54  N7  UNL     1       8.759   4.802   1.350 -0.04 -0.00    -0.300 N 
ATOM     55  H7  UNL     1       8.943   5.768   1.621 +0.09 +0.00    +0.187 HD
ATOM     56  H6  UNL     1       8.913   2.839   1.700 +0.00 +0.00    +0.187 HD
BRANCH  54  57
ATOM     57  C24 UNL     1       8.099   4.406   0.175 -0.11 +0.00    +0.048 A 
ATOM     58  C25 UNL     1       6.701   4.392   0.106 -0.11 +0.00    +0.031 A 
ATOM     59  C26 UNL     1       6.053   3.969  -1.057 -0.10 +0.00    +0.002 A 
ATOM     60  C27 UNL     1       6.801   3.549  -2.156 -0.10 +0.00    +0.000 A 
ATOM     61  C28 UNL     1       8.195   3.550  -2.094 -0.14 +0.00    +0.002 A 
ATOM     62  C29 UNL     1       8.840   3.974  -0.931 -0.12 +0.00    +0.031 A 
ENDBRANCH  54  57
ENDBRANCH   5  53
BRANCH   7  63
ATOM     63  N4  UNL     1       9.591   4.317   8.023 -0.27 -0.00    -0.296 N 
ATOM     64  C11 UNL     1      10.172   5.480   7.961 +0.11 +0.00    +0.109 C 
ATOM     65  C12 UNL     1      10.245   6.450   6.834 +0.07 +0.00    +0.008 A 
ATOM     66  C20 UNL     1      10.946   5.888   9.202 +7.95 +0.00    +0.202 C 
ATOM     67  C13 UNL     1      11.383   7.286   6.745 -0.18 +0.00    +0.002 A 
ATOM     68  C17 UNL     1       9.192   6.575   5.920 +2.98 +0.00    +0.017 A 
ATOM     69  C14 UNL     1      11.413   8.221   5.690 -0.26 +0.00    +0.048 A 
ATOM     70  C18 UNL     1      12.429   7.162   7.786 -0.19 +0.00    +0.087 C 
ATOM     71  C15 UNL     1      10.370   8.342   4.751 -0.24 +0.00    +0.088 A 
ATOM     72  C16 UNL     1       9.262   7.503   4.882 +5.92 +0.00    +0.035 A 
ATOM     73  C19 UNL     1      12.234   6.550   8.962 +0.90 +0.00    +0.083 C 
ATOM     74  O3  UNL     1      10.545   5.643  10.328+17.13 -0.00    -0.286 OA
ATOM     75  H4  UNL     1       9.580   3.764   8.880 +0.14 +0.00    +0.187 HD
BRANCH  71  76
ATOM     76  N5  UNL     1      10.448   9.290   3.699 +0.01 -0.00    -0.129 N 
BRANCH  76  77
ATOM     77  O1  UNL     1       9.530   9.263   2.665 +6.91 -0.00    -0.263 OA
ATOM     78  H29 UNL     1       8.691   9.273   3.159 -0.01 +0.00    +0.247 HD
ENDBRANCH  76  77
BRANCH  76  79
ATOM     79  O2  UNL     1      11.643   9.923   3.410 +5.22 -0.00    -0.263 OA
ATOM     80  H30 UNL     1      12.133   9.212   2.957 -0.12 +0.00    +0.247 HD
ENDBRANCH  76  79
ENDBRANCH  71  76
BRANCH  70  81
ATOM     81  S1  UNL     1      13.982   7.851   7.472 +2.17 +0.00    +0.130 S 
ATOM     82  O4  UNL     1      15.016   6.836   7.518 +1.23 -0.00    -0.598 OA
ATOM     83  O5  UNL     1      13.940   8.786   6.371 +0.58 -0.00    -0.598 OA
BRANCH  81  84
ATOM     84  O6  UNL     1      14.197   8.714   8.819 +0.53 -0.00    -0.292 OA
ATOM     85  H31 UNL     1      14.174   9.663   8.574 -0.19 +0.00    +0.232 HD
ENDBRANCH  81  84
ENDBRANCH  70  81
ENDBRANCH   7  63
TORSDOF 20
TER
