USER    Run = 1
USER    DPF = ligand_374_receptor.dpf
USER  
USER    Estimated Free Energy of Binding    =  +1.64e+003 kcal/mol  [=(1)+(2)+(3)-(4)]
USER    
USER    (1) Final Intermolecular Energy     =  +1.64e+003 kcal/mol
USER        vdW + Hbond + desolv Energy     =  +1.64e+003 kcal/mol
USER        Electrostatic Energy            =   +0.00 kcal/mol
USER    (2) Final Total Internal Energy     =   +1.32 kcal/mol
USER    (3) Torsional Free Energy           =   +1.19 kcal/mol
USER    (4) Unbound System's Energy  [=(2)] =   +1.32 kcal/mol
USER    
USER    
USER    NEWDPF move ligand_374.pdbqt
USER    NEWDPF about 0.000000 0.000000 0.000000
USER    NEWDPF tran0 21.717419 10.549233 2.092197
USER    NEWDPF quaternion0 0.022829 0.682203 -0.728858 -0.053328
USER    NEWDPF axisangle0 0.022861 0.683175 -0.729897 -173.886112
USER    NEWDPF quat0 0.022861 0.683175 -0.729897 -173.886112
USER    NEWDPF dihe0 -180.00 72.78 -103.19 -149.19 165.25 -115.25 164.29 -121.99 -84.73 -137.03 89.58 93.67 10.56 148.68 173.64 94.22 180.00 121.87 114.51 -180.00 -17.86 87.16 67.67 56.98 180.00 2.45 180.00 -101.32 180.00 
USER  keepresnum = 1 
USER  
REMARK  29 active torsions:
REMARK  status: ('A' for Active; 'I' for Inactive)
REMARK    1  A    between atoms: C4_4  and  N2_70 
REMARK    2  A    between atoms: C6_6  and  C7_7 
REMARK       I    between atoms: C6_6  and  N2_70 
REMARK    3  A    between atoms: C7_7  and  C8_8 
REMARK    4  A    between atoms: C8_8  and  C9_9 
REMARK    5  A    between atoms: C9_9  and  C10_10 
REMARK    6  A    between atoms: C10_10  and  C11_11 
REMARK       I    between atoms: C11_11  and  N3_71 
REMARK    7  A    between atoms: C12_12  and  N3_71 
REMARK    8  A    between atoms: C17_17  and  C18_18 
REMARK    9  A    between atoms: C17_17  and  N4_72 
REMARK       I    between atoms: C18_18  and  N5_73 
REMARK   10  A    between atoms: C19_19  and  C20_20 
REMARK   11  A    between atoms: C19_19  and  N5_73 
REMARK   12  A    between atoms: C23_23  and  N6_74 
REMARK       I    between atoms: C26_26  and  N6_74 
REMARK       I    between atoms: C26_26  and  N8_77 
REMARK       I    between atoms: C27_27  and  N7_75 
REMARK   13  A    between atoms: C27_27  and  O7_89 
REMARK   14  A    between atoms: C28_28  and  C29_29 
REMARK   15  A    between atoms: C28_28  and  O7_89 
REMARK       I    between atoms: C35_35  and  N8_77 
REMARK   16  A    between atoms: C35_35  and  O9_91 
REMARK   17  A    between atoms: C36_36  and  C37_37 
REMARK   18  A    between atoms: C36_36  and  O9_91 
REMARK   19  A    between atoms: C43_43  and  C44_44 
REMARK   20  A    between atoms: C43_43  and  N1_69 
REMARK       I    between atoms: C44_44  and  N9_78 
REMARK   21  A    between atoms: C45_45  and  C46_46 
REMARK   22  A    between atoms: C45_45  and  N9_78 
REMARK   23  A    between atoms: C49_49  and  N10_79 
REMARK       I    between atoms: C52_52  and  N10_79 
REMARK       I    between atoms: C52_52  and  N12_82 
REMARK       I    between atoms: C53_53  and  N11_80 
REMARK   24  A    between atoms: C53_53  and  O12_94 
REMARK   25  A    between atoms: C54_54  and  C55_55 
REMARK   26  A    between atoms: C54_54  and  O12_94 
REMARK       I    between atoms: C61_61  and  N12_82 
REMARK   27  A    between atoms: C61_61  and  O14_96 
REMARK   28  A    between atoms: C62_62  and  C63_63 
REMARK   29  A    between atoms: C62_62  and  O14_96 
USER                              x       y       z     vdW  Elec       q    Type
USER                           _______ _______ _______ _____ _____    ______ ____
ROOT
ATOM      1  C8  UNL     1      20.131  10.261   4.024+99.99 +0.00    +0.010 C 
ENDROOT
BRANCH   1   2
ATOM      2  C7  UNL     1      20.560   8.967   3.333 -0.12 +0.00    +0.103 C 
BRANCH   2   3
ATOM      3  C6  UNL     1      19.411   7.997   3.121 +2.80 +0.00    +0.218 C 
ATOM      4  N2  UNL     1      18.177   8.576   3.334 -0.26 -0.00    -0.348 N 
ATOM      5  H67 UNL     1      18.156   9.494   3.757 +0.12 +0.00    +0.163 HD
ATOM      6  O2  UNL     1      19.566   6.819   2.817+99.99 -0.00    -0.274 OA
BRANCH   4   7
ATOM      7  C4  UNL     1      16.967   7.761   3.421 -0.49 +0.00    +0.176 C 
ATOM      8  C3  UNL     1      15.839   8.676   3.943 -0.38 +0.00    +0.243 C 
ATOM      9  N1  UNL     1      14.935   9.188   3.011 -0.07 -0.00    -0.342 N 
ATOM     10  O1  UNL     1      15.810   9.046   5.122 +1.65 -0.00    -0.271 OA
ATOM     11  C2  UNL     1      14.695   8.508   1.746+18.82 +0.00    +0.126 C 
ATOM     12  C1  UNL     1      15.980   8.002   1.117 +1.37 +0.00    +0.022 C 
ATOM     13  C5  UNL     1      16.670   7.069   2.095+10.44 +0.00    +0.036 C 
BRANCH   9  14
ATOM     14  C43 UNL     1      13.838  10.015   3.528+61.41 +0.00    +0.228 C 
BRANCH  14  15
ATOM     15  C44 UNL     1      12.586   9.152   3.714 +2.56 +0.00    +0.235 C 
ATOM     16  N9  UNL     1      11.432   9.895   3.872+10.18 -0.00    -0.355 N 
ATOM     17  H72 UNL     1      11.576  10.896   4.014+15.03 +0.00    +0.162 HD
ATOM     18  O10 UNL     1      12.636   7.929   3.814 -0.30 -0.00    -0.272 OA
BRANCH  16  19
ATOM     19  C45 UNL     1      10.278   9.328   4.524 +0.87 +0.00    +0.161 C 
BRANCH  19  20
ATOM     20  C46 UNL     1       9.331   8.758   3.494 +0.14 -0.00    -0.040 A 
ATOM     21  C47 UNL     1       8.123   9.402   3.200+10.86 +0.00    +0.010 A 
ATOM     22  C48 UNL     1       7.228   8.848   2.279 +3.46 +0.00    +0.024 A 
ATOM     23  C49 UNL     1       7.529   7.653   1.612 -0.39 +0.00    +0.015 A 
ATOM     24  C50 UNL     1       8.708   6.981   1.957 -0.31 +0.00    +0.024 A 
ATOM     25  C51 UNL     1       9.603   7.531   2.881 -0.37 +0.00    +0.010 A 
BRANCH  23  26
ATOM     26  N10 UNL     1       6.580   7.116   0.697 -0.27 -0.00    -0.230 NA
ATOM     27  C52 UNL     1       6.890   6.024  -0.087 -0.10 +0.00    +0.170 C 
ATOM     28  N11 UNL     1       6.619   4.788   0.160 -0.06 -0.00    -0.278 N 
ATOM     29  N12 UNL     1       7.556   6.339  -1.255 +3.15 -0.00    -0.278 N 
ATOM     30  C53 UNL     1       5.908   4.536   1.293 -0.04 +0.00    +0.367 C 
ATOM     31  H11 UNL     1       6.922   4.038  -0.460 +0.05 +0.00    +0.173 HD
ATOM     32  O11 UNL     1       6.396   4.222   2.370 -0.07 -0.00    -0.238 OA
ATOM     33  C61 UNL     1       8.027   5.495  -2.230 +3.44 +0.00    +0.367 C 
ATOM     34  H74 UNL     1       7.870   7.288  -1.370 -0.28 +0.00    +0.173 HD
ATOM     35  O13 UNL     1       7.819   4.301  -2.368 -0.11 -0.00    -0.238 OA
ATOM     36  H73 UNL     1       6.196   7.887   0.158 +0.04 +0.00    +0.136 HD
BRANCH  30  37
ATOM     37  O12 UNL     1       4.579   4.652   1.038 -0.23 -0.00    -0.299 OA
BRANCH  37  38
ATOM     38  C54 UNL     1       3.904   3.443   0.691 -0.08 +0.00    +0.219 C 
BRANCH  38  39
ATOM     39  C55 UNL     1       4.510   2.899  -0.578 -0.09 -0.00    -0.034 A 
ATOM     40  C56 UNL     1       5.166   1.658  -0.572 -0.13 +0.00    +0.009 A 
ATOM     41  C57 UNL     1       5.773   1.171  -1.728 -0.12 +0.00    +0.001 A 
ATOM     42  C58 UNL     1       5.725   1.913  -2.906 -0.09 +0.00    +0.000 A 
ATOM     43  C59 UNL     1       5.065   3.141  -2.929 -0.10 +0.00    +0.001 A 
ATOM     44  C60 UNL     1       4.461   3.633  -1.771 -0.12 +0.00    +0.009 A 
ENDBRANCH  38  39
ENDBRANCH  37  38
ENDBRANCH  30  37
BRANCH  33  45
ATOM     45  O14 UNL     1       8.774   6.237  -3.090 -0.12 -0.00    -0.299 OA
BRANCH  45  46
ATOM     46  C62 UNL     1       9.646   7.166  -2.439 -0.25 +0.00    +0.219 C 
BRANCH  46  47
ATOM     47  C63 UNL     1      10.658   6.368  -1.658 -0.27 -0.00    -0.034 A 
ATOM     48  C64 UNL     1      11.886   6.941  -1.295 -0.28 +0.00    +0.009 A 
ATOM     49  C65 UNL     1      12.833   6.197  -0.590 -0.40 +0.00    +0.001 A 
ATOM     50  C66 UNL     1      12.566   4.872  -0.247 +2.43 +0.00    +0.000 A 
ATOM     51  C67 UNL     1      11.353   4.289  -0.613 +0.39 +0.00    +0.001 A 
ATOM     52  C68 UNL     1      10.406   5.032  -1.319 -0.21 +0.00    +0.009 A 
ENDBRANCH  46  47
ENDBRANCH  45  46
ENDBRANCH  33  45
ENDBRANCH  23  26
ENDBRANCH  19  20
ENDBRANCH  16  19
ENDBRANCH  14  15
ENDBRANCH   9  14
ENDBRANCH   4   7
ENDBRANCH   2   3
ENDBRANCH   1   2
BRANCH   1  53
ATOM     53  C9  UNL     1      20.046  11.425   3.037 +6.10 +0.00    +0.010 C 
BRANCH  53  54
ATOM     54  C10 UNL     1      20.379  10.990   1.613 -0.47 +0.00    +0.103 C 
BRANCH  54  55
ATOM     55  C11 UNL     1      19.142  10.499   0.886 -0.40 +0.00    +0.218 C 
ATOM     56  N3  UNL     1      19.261  10.547  -0.483 +0.82 -0.00    -0.348 N 
ATOM     57  H68 UNL     1      20.195  10.584  -0.885 +0.29 +0.00    +0.163 HD
ATOM     58  O3  UNL     1      18.131  10.099   1.452 -0.27 -0.00    -0.274 OA
BRANCH  56  59
ATOM     59  C12 UNL     1      18.209  10.029  -1.351+15.30 +0.00    +0.176 C 
ATOM     60  C13 UNL     1      18.652   8.649  -1.880+50.16 +0.00    +0.243 C 
ATOM     61  N4  UNL     1      18.066   8.200  -3.061 +0.95 -0.00    -0.342 N 
ATOM     62  O4  UNL     1      19.440   7.949  -1.235+33.54 -0.00    -0.271 OA
ATOM     63  C14 UNL     1      17.571   9.143  -4.060 +0.66 +0.00    +0.126 C 
ATOM     64  C15 UNL     1      16.919  10.372  -3.451+89.80 +0.00    +0.022 C 
ATOM     65  C16 UNL     1      17.884  11.013  -2.470+69.53 +0.00    +0.036 C 
BRANCH  61  66
ATOM     66  C17 UNL     1      18.495   6.890  -3.561+99.99 +0.00    +0.228 C 
BRANCH  66  67
ATOM     67  C18 UNL     1      19.362   6.190  -2.508+11.34 +0.00    +0.235 C 
ATOM     68  N5  UNL     1      20.712   6.428  -2.667+23.28 -0.00    -0.355 N 
ATOM     69  H69 UNL     1      20.980   6.838  -3.562 +1.47 +0.00    +0.162 HD
ATOM     70  O5  UNL     1      18.895   5.407  -1.685+99.99 -0.00    -0.272 OA
BRANCH  68  71
ATOM     71  C19 UNL     1      21.700   5.579  -2.046+99.99 +0.00    +0.161 C 
BRANCH  71  72
ATOM     72  C20 UNL     1      22.849   6.415  -1.539 +0.73 -0.00    -0.040 A 
ATOM     73  C21 UNL     1      24.017   5.807  -1.067 -0.43 +0.00    +0.011 A 
ATOM     74  C22 UNL     1      25.066   6.582  -0.565 -0.43 +0.00    +0.030 A 
ATOM     75  C23 UNL     1      24.969   7.980  -0.508 -0.21 +0.00    +0.049 A 
ATOM     76  C24 UNL     1      23.792   8.583  -0.964 -0.18 +0.00    +0.030 A 
ATOM     77  C25 UNL     1      22.743   7.809  -1.475 +2.15 +0.00    +0.011 A 
BRANCH  75  78
ATOM     78  N6  UNL     1      26.068   8.699   0.018 +0.28 -0.00    -0.191 N 
ATOM     79  C26 UNL     1      27.072   8.195   0.814 +0.04 +0.00    +0.691 C 
ATOM     80  N7  UNL     1      27.547   8.730   1.888 -0.27 -0.00    -0.135 N 
ATOM     81  N8  UNL     1      27.667   7.038   0.349 -0.25 -0.00    -0.135 N 
ATOM     82  C27 UNL     1      27.030   9.896   2.365+11.60 +0.00    +0.379 C 
ATOM     83  H7  UNL     1      28.315   8.276   2.384 +0.06 +0.00    +0.189 HD
ATOM     84  O6  UNL     1      26.174  10.583   1.817 +1.63 -0.00    -0.238 OA
ATOM     85  C35 UNL     1      28.771   6.395   0.846 -0.04 +0.00    +0.379 C 
ATOM     86  H71 UNL     1      27.432   6.772  -0.594 +0.11 +0.00    +0.189 HD
ATOM     87  O8  UNL     1      29.197   6.420   1.989 +0.36 -0.00    -0.238 OA
ATOM     88  H70 UNL     1      25.750   9.624   0.324 +0.36 +0.00    +0.184 HD
BRANCH  82  89
ATOM     89  O7  UNL     1      27.614  10.200   3.549 +6.23 -0.00    -0.299 OA
BRANCH  89  90
ATOM     90  C28 UNL     1      26.942   9.656   4.685+99.99 +0.00    +0.219 C 
BRANCH  90  91
ATOM     91  C29 UNL     1      25.556   9.186   4.308 +9.80 -0.00    -0.034 A 
ATOM     92  C30 UNL     1      25.381   8.370   3.179 -0.58 +0.00    +0.009 A 
ATOM     93  C31 UNL     1      24.115   7.894   2.834 +0.35 +0.00    +0.001 A 
ATOM     94  C32 UNL     1      23.010   8.217   3.618 +1.96 +0.00    +0.000 A 
ATOM     95  C33 UNL     1      23.170   9.014   4.749 +0.97 +0.00    +0.001 A 
ATOM     96  C34 UNL     1      24.436   9.490   5.095 +4.92 +0.00    +0.009 A 
ENDBRANCH  90  91
ENDBRANCH  89  90
ENDBRANCH  82  89
BRANCH  85  97
ATOM     97  O9  UNL     1      29.291   5.634  -0.152 -0.09 -0.00    -0.299 OA
BRANCH  97  98
ATOM     98  C36 UNL     1      28.787   4.296  -0.238 -0.18 +0.00    +0.219 C 
BRANCH  98  99
ATOM     99  C37 UNL     1      28.859   3.797  -1.659 -0.17 -0.00    -0.034 A 
ATOM    100  C38 UNL     1      28.427   4.605  -2.720 -0.10 +0.00    +0.009 A 
ATOM    101  C39 UNL     1      28.482   4.138  -4.035 +1.07 +0.00    +0.001 A 
ATOM    102  C40 UNL     1      28.961   2.857  -4.300 -0.16 +0.00    +0.000 A 
ATOM    103  C41 UNL     1      29.376   2.039  -3.251 -0.14 +0.00    +0.001 A 
ATOM    104  C42 UNL     1      29.326   2.506  -1.937 -0.18 +0.00    +0.009 A 
ENDBRANCH  98  99
ENDBRANCH  97  98
ENDBRANCH  85  97
ENDBRANCH  75  78
ENDBRANCH  71  72
ENDBRANCH  68  71
ENDBRANCH  66  67
ENDBRANCH  61  66
ENDBRANCH  56  59
ENDBRANCH  54  55
ENDBRANCH  53  54
ENDBRANCH   1  53
TORSDOF 29
TER
