USER    Run = 1
USER    DPF = ligand_439_receptor.dpf
USER  
USER    Estimated Free Energy of Binding    =  +4.01e+006 kcal/mol  [=(1)+(2)+(3)-(4)]
USER    
USER    (1) Final Intermolecular Energy     =  +4.01e+006 kcal/mol
USER        vdW + Hbond + desolv Energy     =  +2.16e+006 kcal/mol
USER        Electrostatic Energy            =  +1.86e+006 kcal/mol
USER    (2) Final Total Internal Energy     =   +0.00 kcal/mol
USER    (3) Torsional Free Energy           =   +1.19 kcal/mol
USER    (4) Unbound System's Energy  [=(2)] =   +0.00 kcal/mol
USER    
USER    
USER    NEWDPF move ligand_439.pdbqt
USER    NEWDPF about 0.000000 0.000000 0.000000
USER    NEWDPF tran0 16.125758 6.977965 4.349331
USER    NEWDPF quaternion0 0.761597 -0.032674 -0.184940 0.620242
USER    NEWDPF axisangle0 0.970916 -0.041654 -0.235770 103.332454
USER    NEWDPF quat0 0.970916 -0.041654 -0.235770 103.332454
USER  keepresnum = 1 
USER  
REMARK  0 active torsions:
REMARK  status: ('A' for Active; 'I' for Inactive)
REMARK       I    between atoms: C7_7  and  C8_8 
REMARK       I    between atoms: C7_7  and  N1_70 
REMARK       I    between atoms: C9_9  and  O12_92 
REMARK       I    between atoms: C11_11  and  O11_91 
REMARK       I    between atoms: C12_12  and  C14_14 
REMARK       I    between atoms: C14_14  and  N2_71 
REMARK       I    between atoms: C15_15  and  N2_71 
REMARK       I    between atoms: C18_18  and  N3_72 
REMARK       I    between atoms: C21_21  and  C22_22 
REMARK       I    between atoms: C21_21  and  N3_72 
REMARK       I    between atoms: C24_24  and  C30_30 
REMARK       I    between atoms: C25_25  and  O5_85 
REMARK       I    between atoms: C27_27  and  O4_84 
REMARK       I    between atoms: C30_30  and  N4_73 
REMARK       I    between atoms: C31_31  and  N4_73 
REMARK       I    between atoms: C34_34  and  N5_74 
REMARK       I    between atoms: C37_37  and  C38_38 
REMARK       I    between atoms: C37_37  and  N5_74 
REMARK       I    between atoms: C40_40  and  C54_54 
REMARK       I    between atoms: C41_41  and  O9_89 
REMARK       I    between atoms: C43_43  and  O8_88 
REMARK       I    between atoms: C44_44  and  C45_45 
REMARK       I    between atoms: C44_44  and  O8_88 
REMARK       I    between atoms: C45_45  and  C46_46 
REMARK       I    between atoms: C46_46  and  C47_47 
REMARK       I    between atoms: C47_47  and  C48_48 
REMARK       I    between atoms: C48_48  and  N6_75 
REMARK       I    between atoms: C49_49  and  C50_50 
REMARK       I    between atoms: C49_49  and  O9_89 
REMARK       I    between atoms: C50_50  and  C51_51 
REMARK       I    between atoms: C51_51  and  C52_52 
REMARK       I    between atoms: C52_52  and  C53_53 
REMARK       I    between atoms: C53_53  and  N7_76 
REMARK       I    between atoms: C54_54  and  N8_77 
REMARK       I    between atoms: C57_57  and  N9_78 
REMARK       I    between atoms: C60_60  and  C61_61 
REMARK       I    between atoms: C60_60  and  O11_91 
REMARK       I    between atoms: C61_61  and  C62_62 
REMARK       I    between atoms: C62_62  and  C63_63 
REMARK       I    between atoms: C63_63  and  C64_64 
REMARK       I    between atoms: C64_64  and  N10_79 
REMARK       I    between atoms: C65_65  and  C66_66 
REMARK       I    between atoms: C65_65  and  O12_92 
REMARK       I    between atoms: C66_66  and  C67_67 
REMARK       I    between atoms: C67_67  and  C68_68 
REMARK       I    between atoms: C68_68  and  C69_69 
REMARK       I    between atoms: C69_69  and  N11_80 
USER                              x       y       z     vdW  Elec       q    Type
USER                           _______ _______ _______ _____ _____    ______ ____
ROOT
ATOM      1  C1  UNL     1       1.541  -0.891  10.967+99.99+99.99    +0.010 C 
ATOM      2  C2  UNL     1       2.915  -0.138  10.634 +0.69 -0.00    -0.015 C 
ATOM      3  C3  UNL     1       2.685   1.390  10.586+99.99 +0.00    +0.024 C 
ATOM      4  C4  UNL     1       3.786   2.104   9.796+99.99 +0.00    +0.126 C 
ATOM      5  C5  UNL     1       3.365   0.221   8.132+99.99 +0.00    +0.126 C 
ATOM      6  C6  UNL     1       3.569  -0.698   9.342+99.99 +0.00    +0.024 C 
ATOM      7  C7  UNL     1       4.285   2.422   7.338+99.99 +0.00    +0.256 C 
ATOM      8  C8  UNL     1       5.202   3.562   7.560 +3.65 +0.00    +0.066 A 
ATOM      9  C9  UNL     1       4.912   4.827   7.021 -0.36 +0.00    +0.087 A 
ATOM     10  C10 UNL     1       5.794   5.896   7.259 -0.34 +0.00    +0.075 A 
ATOM     11  C11 UNL     1       6.945   5.724   8.051 +0.49 +0.00    +0.087 A 
ATOM     12  C12 UNL     1       7.247   4.443   8.561+11.35 +0.00    +0.066 A 
ATOM     13  C13 UNL     1       6.365   3.378   8.319+34.94 +0.00    +0.040 A 
ATOM     14  C14 UNL     1       8.462   4.203   9.372 +2.61 +0.00    +0.254 C 
ATOM     15  C15 UNL     1      10.859   4.833   9.958+61.28 +0.00    +0.084 C 
ATOM     16  C16 UNL     1      11.528   6.218  10.061 +4.64 +0.00    +0.027 C 
ATOM     17  C17 UNL     1      12.261   6.618   8.773 +0.70 +0.00    +0.027 C 
ATOM     18  C18 UNL     1      13.270   5.537   8.340 -0.56 +0.00    +0.084 C 
ATOM     19  C19 UNL     1      12.565   4.179   8.181 -0.59 +0.00    +0.027 C 
ATOM     20  C20 UNL     1      11.857   3.766   9.477+17.49 +0.00    +0.027 C 
ATOM     21  C21 UNL     1      15.075   5.247   6.575+12.07 +0.00    +0.254 C 
ATOM     22  C22 UNL     1      15.499   5.420   5.167+99.99 +0.00    +0.066 A 
ATOM     23  C23 UNL     1      16.868   5.497   4.872+99.99 +0.00    +0.040 A 
ATOM     24  C24 UNL     1      17.316   5.687   3.556+99.99 +0.00    +0.066 A 
ATOM     25  C25 UNL     1      16.379   5.757   2.505+99.99 +0.00    +0.086 A 
ATOM     26  C26 UNL     1      15.005   5.669   2.801+99.99 +0.00    +0.075 A 
ATOM     27  C27 UNL     1      14.556   5.491   4.123+99.99 +0.00    +0.086 A 
ATOM     28  C28 UNL     1      12.136   5.402   3.469 +5.75 +0.00    +0.210 C 
ATOM     29  C29 UNL     1      16.003   5.982   0.035+99.99 +0.00    +0.210 C 
ATOM     30  C30 UNL     1      18.771   5.792   3.299+32.69 +0.00    +0.254 C 
ATOM     31  C31 UNL     1      20.699   6.756   1.952+99.99 +0.00    +0.084 C 
ATOM     32  C32 UNL     1      21.478   7.668   2.915+15.96 +0.00    +0.027 C 
ATOM     33  C33 UNL     1      21.132   9.146   2.711 -0.35 +0.00    +0.027 C 
ATOM     34  C34 UNL     1      21.400   9.590   1.261 -0.31 +0.00    +0.084 C 
ATOM     35  C35 UNL     1      20.608   8.705   0.277+78.85 +0.00    +0.027 C 
ATOM     36  C36 UNL     1      20.874   7.203   0.486+99.99 +0.00    +0.027 C 
ATOM     37  C37 UNL     1      23.753  10.531   1.505 +5.74 +0.00    +0.254 C 
ATOM     38  C38 UNL     1      25.192  10.492   1.160 +7.90 +0.00    +0.066 A 
ATOM     39  C39 UNL     1      25.857  11.699   0.902+47.99 +0.00    +0.040 A 
ATOM     40  C40 UNL     1      27.204  11.719   0.511+99.99 +0.00    +0.066 A 
ATOM     41  C41 UNL     1      27.914  10.508   0.405+99.99 +0.00    +0.087 A 
ATOM     42  C42 UNL     1      27.257   9.297   0.693 +0.74 +0.00    +0.075 A 
ATOM     43  C43 UNL     1      25.903   9.277   1.081 +0.15 +0.00    +0.087 A 
ATOM     44  C44 UNL     1      25.835   6.777   1.291 -0.32 +0.00    +0.175 C 
ATOM     45  C45 UNL     1      24.846   5.709   1.765 -0.05 +0.00    +0.027 C 
ATOM     46  C46 UNL     1      24.650   5.715   3.292+99.99 +0.00    +0.004 C 
ATOM     47  C47 UNL     1      25.752   4.931   4.023+99.99 +0.00    +0.030 C 
ATOM     48  C48 UNL     1      25.640   5.049   5.554+47.77 +0.00    +0.267 C 
ATOM     49  C49 UNL     1      30.097   9.419  -0.259 +0.09 +0.00    +0.175 C 
ATOM     50  C50 UNL     1      29.709   8.804  -1.612 +0.87 +0.00    +0.027 C 
ATOM     51  C51 UNL     1      30.483   7.511  -1.924 -0.21 +0.00    +0.004 C 
ATOM     52  C52 UNL     1      32.003   7.692  -2.093 -0.10 +0.00    +0.030 C 
ATOM     53  C53 UNL     1      32.373   8.592  -3.279 -0.08 +0.00    +0.267 C 
ATOM     54  C54 UNL     1      27.860  13.023   0.253+18.70 +0.00    +0.256 C 
ATOM     55  C55 UNL     1      29.915  14.137  -0.658+99.99 +0.00    +0.128 C 
ATOM     56  C56 UNL     1      31.200  13.618  -1.332+99.99 +0.00    +0.055 C 
ATOM     57  C57 UNL     1      30.942  12.693  -2.544+99.99 +0.00    +0.221 C 
ATOM     58  C58 UNL     1      29.572  12.974  -3.179+99.99 +0.00    +0.055 C 
ATOM     59  C59 UNL     1      28.456  12.695  -2.164+48.69 +0.00    +0.128 C 
ATOM     60  C60 UNL     1       7.545   8.176   8.074+99.99 +0.00    +0.175 C 
ATOM     61  C61 UNL     1       6.456   8.737   8.996 +5.66 +0.00    +0.027 C 
ATOM     62  C62 UNL     1       6.083  10.170   8.604 +6.57 +0.00    +0.004 C 
ATOM     63  C63 UNL     1       4.978  10.717   9.516+54.16 +0.00    +0.030 C 
ATOM     64  C64 UNL     1       4.595  12.155   9.151+99.99 +0.00    +0.267 C 
ATOM     65  C65 UNL     1       3.100   6.233   5.967 -0.17 +0.00    +0.175 C 
ATOM     66  C66 UNL     1       2.561   6.940   7.224 -0.25 +0.00    +0.027 C 
ATOM     67  C67 UNL     1       1.854   6.002   8.218+99.99+99.99    +0.004 C 
ATOM     68  C68 UNL     1       0.638   5.290   7.609+99.99+99.99    +0.030 C 
ATOM     69  C69 UNL     1      -0.073   4.428   8.664+99.99+99.99    +0.267 C 
ATOM     70  N1  UNL     1       3.870   1.571   8.425+80.83 -0.00    -0.348 N 
ATOM     71  N2  UNL     1       9.691   4.883   9.072 +0.80 -0.00    -0.352 N 
ATOM     72  N3  UNL     1      13.909   5.919   7.077 -0.27 -0.00    -0.352 N 
ATOM     73  N4  UNL     1      19.279   6.712   2.319+99.99 -0.00    -0.352 N 
ATOM     74  N5  UNL     1      22.838   9.566   0.959 -0.18 -0.00    -0.352 N 
ATOM     75  N6  UNL     1      24.444   4.390   6.081+99.99 +0.00    +0.078 N 
ATOM     76  N7  UNL     1      33.815   8.556  -3.503+99.99+99.99    +0.078 N 
ATOM     77  N8  UNL     1      28.800  13.195  -0.823+99.99 -0.00    -0.348 N 
ATOM     78  N9  UNL     1      32.002  12.852  -3.539+99.99 +0.00    +0.083 N 
ATOM     79  N10 UNL     1       3.987  12.212   7.824 -0.10 +0.00    +0.078 N 
ATOM     80  N11 UNL     1      -1.213   3.718   8.089+99.99+99.99    +0.078 N 
ATOM     81  O1  UNL     1       3.857   2.200   6.172 -0.61 -0.00    -0.267 OA
ATOM     82  O2  UNL     1       8.422   3.365  10.315 +5.49 -0.00    -0.268 OA
ATOM     83  O3  UNL     1      15.762   4.523   7.346+28.05 -0.00    -0.268 OA
ATOM     84  O4  UNL     1      13.190   5.349   4.424 +3.10 -0.00    -0.355 OA
ATOM     85  O5  UNL     1      16.839   5.885   1.184+66.52 -0.00    -0.355 OA
ATOM     86  O6  UNL     1      19.570   5.088   3.974+31.70 -0.00    -0.268 OA
ATOM     87  O7  UNL     1      23.320  11.464   2.236+99.99 -0.00    -0.268 OA
ATOM     88  O8  UNL     1      25.256   8.076   1.422 -0.19 -0.00    -0.350 OA
ATOM     89  O9  UNL     1      29.274  10.547   0.041 +6.69 -0.00    -0.350 OA
ATOM     90  O10 UNL     1      27.578  14.006   0.992 +6.10 -0.00    -0.267 OA
ATOM     91  O11 UNL     1       7.794   6.802   8.368 +0.48 -0.00    -0.350 OA
ATOM     92  O12 UNL     1       3.729   4.989   6.281 -0.13 -0.00    -0.350 OA
ATOM     93  H93 UNL     1       9.796   5.303   8.122 +0.12 +0.00    +0.163 HD
ATOM     94  H94 UNL     1      13.530   6.729   6.534 +0.13 +0.00    +0.163 HD
ATOM     95  H95 UNL     1      18.642   7.462   1.971 +0.76 +0.00    +0.163 HD
ATOM     96  H96 UNL     1      23.193   8.921   0.218 +0.12 +0.00    +0.163 HD
ATOM     97  H97 UNL     1      24.363   3.433   5.669+44.27 +0.00    +0.312 HD
ATOM     98  H98 UNL     1      23.598   4.938   5.803+99.99 +0.00    +0.312 HD
ATOM     99  H99 UNL     1      34.017   9.125  -4.357+99.99+99.99    +0.312 HD
ATOM    100  HA0 UNL     1      34.281   9.045  -2.705+99.99+99.99    +0.312 HD
ATOM    101  HA1 UNL     1      31.853  12.147  -4.296+19.32 +0.00    +0.313 HD
ATOM    102  HA2 UNL     1      32.913  12.599  -3.089+99.99+99.99    +0.313 HD
ATOM    103  HA3 UNL     1       3.803  13.217   7.601 +0.07 +0.00    +0.312 HD
ATOM    104  HA4 UNL     1       3.054  11.741   7.872 +0.15 +0.00    +0.312 HD
ATOM    105  HA5 UNL     1      -0.873   3.107   7.311+99.99+99.99    +0.312 HD
ATOM    106  HA6 UNL     1      -1.874   4.416   7.678+99.99+99.99    +0.312 HD
ENDROOT
TORSDOF 41
TER
