USER    Run = 1
USER    DPF = ligand_158_receptor.dpf
USER  
USER    Estimated Free Energy of Binding    = +282.86 kcal/mol  [=(1)+(2)+(3)-(4)]
USER    
USER    (1) Final Intermolecular Energy     = +281.66 kcal/mol
USER        vdW + Hbond + desolv Energy     = +281.66 kcal/mol
USER        Electrostatic Energy            =   +0.00 kcal/mol
USER    (2) Final Total Internal Energy     =   -4.08 kcal/mol
USER    (3) Torsional Free Energy           =   +1.19 kcal/mol
USER    (4) Unbound System's Energy  [=(2)] =   -4.08 kcal/mol
USER    
USER    
USER    NEWDPF move ligand_158.pdbqt
USER    NEWDPF about 0.000000 0.000000 0.000000
USER    NEWDPF tran0 17.709688 10.754124 -1.220671
USER    NEWDPF quaternion0 0.972728 0.180217 -0.140681 0.039140
USER    NEWDPF axisangle0 0.973473 0.180355 -0.140789 175.513745
USER    NEWDPF quat0 0.973473 0.180355 -0.140789 175.513745
USER    NEWDPF dihe0 -180.00 100.69 -161.03 179.25 134.42 128.05 144.03 167.13 0.37 24.12 70.78 -137.72 -166.08 42.77 -73.76 179.96 -0.88 -176.15 
USER  keepresnum = 1 
USER  
REMARK  18 active torsions:
REMARK  status: ('A' for Active; 'I' for Inactive)
REMARK    1  A    between atoms: C3_3  and  C35_35 
REMARK    2  A    between atoms: C5_5  and  N2_47 
REMARK    3  A    between atoms: C6_6  and  C7_7 
REMARK       I    between atoms: C6_6  and  N2_47 
REMARK    4  A    between atoms: C9_9  and  N4_49 
REMARK       I    between atoms: C11_11  and  N4_49 
REMARK       I    between atoms: C11_11  and  N5_50 
REMARK    5  A    between atoms: C12_12  and  N5_50 
REMARK    6  A    between atoms: C14_14  and  C17_17 
REMARK       I    between atoms: C17_17  and  N7_52 
REMARK    7  A    between atoms: C18_18  and  N7_52 
REMARK    8  A    between atoms: C20_20  and  C23_23 
REMARK       I    between atoms: C23_23  and  N9_54 
REMARK    9  A    between atoms: C24_24  and  N9_54 
REMARK   10  A    between atoms: C27_27  and  S1_73 
REMARK   11  A    between atoms: C33_33  and  S2_74 
REMARK       I    between atoms: C35_35  and  N10_55 
REMARK   12  A    between atoms: C36_36  and  N10_55 
REMARK   13  A    between atoms: C39_39  and  S3_75 
REMARK   14  A    between atoms: C45_45  and  S4_76 
REMARK   15  A    between atoms: O7_62  and  S1_73 
REMARK   16  A    between atoms: O10_65  and  S2_74 
REMARK   17  A    between atoms: O14_69  and  S3_75 
REMARK   18  A    between atoms: O17_72  and  S4_76 
USER                              x       y       z     vdW  Elec       q    Type
USER                           _______ _______ _______ _____ _____    ______ ____
ROOT
ATOM      1  C11 UNL     1      17.954   9.731  -0.998 +1.42 +0.00    +0.327 C 
ATOM      2  N4  UNL     1      16.565   9.664  -0.993 +4.35 -0.00    -0.294 N 
ATOM      3  N5  UNL     1      18.351  10.994  -1.417 +6.91 -0.00    -0.294 N 
ATOM      4  O2  UNL     1      18.707   8.822  -0.679 +1.11 -0.00    -0.247 OA
ATOM      5  H32 UNL     1      16.115  10.543  -0.780 +1.35 +0.00    +0.172 HD
ATOM      6  H33 UNL     1      17.726  11.423  -2.088 +7.87 +0.00    +0.172 HD
ENDROOT
BRANCH   2   7
ATOM      7  C9  UNL     1      15.829   8.522  -0.719 +0.33 +0.00    +0.111 A 
ATOM      8  C10 UNL     1      14.572   8.506  -0.139+13.95 +0.00    +0.067 A 
ATOM      9  C7  UNL     1      14.147   7.154   0.012 +2.30 +0.00    +0.051 A 
ATOM     10  C8  UNL     1      15.168   6.389  -0.520+45.63 +0.00    +0.109 A 
ATOM     11  N3  UNL     1      16.155   7.215  -1.007 +1.10 -0.00    -0.346 N 
ATOM     12  C34 UNL     1      17.251   6.711  -1.807+11.17 +0.00    +0.157 C 
BRANCH   9  13
ATOM     13  C6  UNL     1      12.924   6.595   0.601 +0.04 +0.00    +0.258 C 
ATOM     14  N2  UNL     1      12.773   6.895   1.943 -0.19 -0.00    -0.309 N 
ATOM     15  H31 UNL     1      13.329   7.662   2.295 -0.17 +0.00    +0.170 HD
ATOM     16  O1  UNL     1      12.123   5.970  -0.086 -0.38 -0.00    -0.267 OA
BRANCH  14  17
ATOM     17  C5  UNL     1      11.723   6.496   2.754 -0.27 +0.00    +0.110 A 
ATOM     18  C4  UNL     1      11.102   5.262   2.682 +2.05 +0.00    +0.067 A 
ATOM     19  C3  UNL     1      10.130   5.170   3.716 -0.21 +0.00    +0.051 A 
ATOM     20  C2  UNL     1      10.132   6.405   4.340 -0.23 +0.00    +0.109 A 
ATOM     21  N1  UNL     1      11.059   7.219   3.720 -0.15 -0.00    -0.346 N 
ATOM     22  C1  UNL     1      11.123   8.640   3.990 -0.21 +0.00    +0.157 C 
BRANCH  19  23
ATOM     23  C35 UNL     1       9.280   4.013   4.008 -0.21 +0.00    +0.257 C 
ATOM     24  N10 UNL     1       7.946   4.334   4.208 -0.09 -0.00    -0.322 N 
ATOM     25  H36 UNL     1       7.763   5.325   4.309 +0.09 +0.00    +0.169 HD
ATOM     26  O11 UNL     1       9.767   2.892   4.096 -0.27 -0.00    -0.267 OA
BRANCH  24  27
ATOM     27  C36 UNL     1       6.863   3.436   4.382 -0.22 +0.00    +0.047 C 
ATOM     28  C37 UNL     1       5.615   3.866   4.986 -0.29 +0.00    +0.026 C 
ATOM     29  C38 UNL     1       4.484   2.997   4.814 -0.29 +0.00    +0.001 C 
ATOM     30  C45 UNL     1       5.366   5.058   5.766 -0.31 +0.00    +0.085 C 
ATOM     31  C39 UNL     1       4.666   1.721   4.209 -0.30 +0.00    +0.083 C 
ATOM     32  C42 UNL     1       3.205   3.428   5.254 -0.22 +0.00    +0.014 C 
ATOM     33  C40 UNL     1       5.905   1.302   3.737 -0.10 +0.00    +0.028 C 
ATOM     34  C41 UNL     1       6.986   2.161   3.810 +0.13 +0.00    +0.032 C 
ATOM     35  C43 UNL     1       2.997   4.635   5.907 -0.21 +0.00    +0.002 C 
ATOM     36  C44 UNL     1       4.080   5.436   6.190 -0.31 +0.00    +0.026 C 
BRANCH  31  37
ATOM     37  S3  UNL     1       3.315   0.568   4.048 -0.38 +0.00    +0.130 S 
ATOM     38  O12 UNL     1       3.877  -0.764   4.040 -0.22 -0.00    -0.598 OA
ATOM     39  O13 UNL     1       2.444   1.043   2.996 +0.03 -0.00    -0.598 OA
BRANCH  37  40
ATOM     40  O14 UNL     1       2.436   0.709   5.395 -0.15 -0.00    -0.292 OA
ATOM     41  H39 UNL     1       3.051   0.628   6.154 +0.11 +0.00    +0.232 HD
ENDBRANCH  37  40
ENDBRANCH  31  37
BRANCH  30  42
ATOM     42  S4  UNL     1       6.682   6.055   6.448 +0.62 +0.00    +0.130 S 
ATOM     43  O15 UNL     1       7.621   5.204   7.147 -0.09 -0.00    -0.598 OA
ATOM     44  O16 UNL     1       7.135   6.983   5.439+12.59 -0.00    -0.598 OA
BRANCH  42  45
ATOM     45  O17 UNL     1       5.966   6.912   7.616 -0.19 -0.00    -0.292 OA
ATOM     46  H40 UNL     1       5.894   7.837   7.290 +0.21 +0.00    +0.232 HD
ENDBRANCH  42  45
ENDBRANCH  30  42
ENDBRANCH  24  27
ENDBRANCH  19  23
ENDBRANCH  14  17
ENDBRANCH   9  13
ENDBRANCH   2   7
BRANCH   3  47
ATOM     47  C12 UNL     1      19.662  11.441  -1.454+37.09 +0.00    +0.111 A 
ATOM     48  C13 UNL     1      20.688  10.951  -0.668 +4.73 +0.00    +0.067 A 
ATOM     49  C14 UNL     1      21.880  11.680  -0.946 +1.54 +0.00    +0.051 A 
ATOM     50  C15 UNL     1      21.545  12.563  -1.958+12.98 +0.00    +0.109 A 
ATOM     51  N6  UNL     1      20.216  12.386  -2.288+12.93 -0.00    -0.346 N 
ATOM     52  C16 UNL     1      19.623  13.020  -3.447+78.19 +0.00    +0.157 C 
BRANCH  49  53
ATOM     53  C17 UNL     1      23.181  11.482  -0.296 +3.02 +0.00    +0.258 C 
ATOM     54  N7  UNL     1      23.255  10.333   0.466 +0.04 -0.00    -0.309 N 
ATOM     55  H34 UNL     1      22.531   9.646   0.302 +0.13 +0.00    +0.170 HD
ATOM     56  O3  UNL     1      24.091  12.281  -0.491 +8.18 -0.00    -0.267 OA
BRANCH  54  57
ATOM     57  C18 UNL     1      24.344   9.886   1.196 +0.19 +0.00    +0.110 A 
ATOM     58  C19 UNL     1      25.024   8.710   0.934 -0.30 +0.00    +0.067 A 
ATOM     59  C20 UNL     1      26.111   8.578   1.846 -0.46 +0.00    +0.051 A 
ATOM     60  C21 UNL     1      26.041   9.692   2.659 -0.31 +0.00    +0.109 A 
ATOM     61  N8  UNL     1      24.937  10.443   2.307 -0.19 -0.00    -0.346 N 
ATOM     62  C22 UNL     1      24.475  11.539   3.131 +8.83 +0.00    +0.157 C 
BRANCH  59  63
ATOM     63  C23 UNL     1      27.093   7.488   1.859 -0.21 +0.00    +0.257 C 
ATOM     64  N9  UNL     1      27.752   7.276   0.655 -0.15 -0.00    -0.322 N 
ATOM     65  H35 UNL     1      27.622   8.008  -0.036 +0.10 +0.00    +0.169 HD
ATOM     66  O4  UNL     1      27.307   6.867   2.896 +7.87 -0.00    -0.267 OA
BRANCH  64  67
ATOM     67  C24 UNL     1      28.633   6.205   0.349 -0.22 +0.00    +0.047 A 
ATOM     68  C25 UNL     1      29.901   6.422  -0.326 -0.15 +0.00    +0.026 A 
ATOM     69  C26 UNL     1      30.565   5.258  -0.847 -0.08 +0.00    +0.001 A 
ATOM     70  C33 UNL     1      30.600   7.670  -0.530 -0.14 +0.00    +0.085 A 
ATOM     71  C27 UNL     1      30.039   3.967  -0.568 -0.11 +0.00    +0.083 A 
ATOM     72  C30 UNL     1      31.738   5.420  -1.632 -0.02 +0.00    +0.014 A 
ATOM     73  C28 UNL     1      28.868   3.793   0.162 -0.29 +0.00    +0.028 A 
ATOM     74  C29 UNL     1      28.169   4.903   0.597 +0.02 +0.00    +0.032 A 
ATOM     75  C31 UNL     1      32.313   6.658  -1.887 -0.03 +0.00    +0.002 A 
ATOM     76  C32 UNL     1      31.760   7.781  -1.317 -0.10 +0.00    +0.026 A 
BRANCH  71  77
ATOM     77  S1  UNL     1      30.870   2.486  -1.117 -0.20 +0.00    +0.130 S 
ATOM     78  O5  UNL     1      29.877   1.441  -1.242 +0.02 -0.00    -0.598 OA
ATOM     79  O6  UNL     1      32.057   2.323  -0.310 -0.01 -0.00    -0.598 OA
BRANCH  77  80
ATOM     80  O7  UNL     1      31.355   2.771  -2.630 -0.02 -0.00    -0.292 OA
ATOM     81  H37 UNL     1      32.017   3.493  -2.595 +0.04 +0.00    +0.232 HD
ENDBRANCH  77  80
ENDBRANCH  71  77
BRANCH  70  82
ATOM     82  S2  UNL     1      30.161   9.169   0.329 +0.38 +0.00    +0.130 S 
ATOM     83  O8  UNL     1      31.062   9.283   1.454 +0.78 -0.00    -0.598 OA
ATOM     84  O9  UNL     1      28.725   9.212   0.500 +0.40 -0.00    -0.598 OA
BRANCH  82  85
ATOM     85  O10 UNL     1      30.477  10.360  -0.706 -0.57 -0.00    -0.292 OA
ATOM     86  H38 UNL     1      31.446  10.381  -0.858 +0.07 +0.00    +0.232 HD
ENDBRANCH  82  85
ENDBRANCH  70  82
ENDBRANCH  64  67
ENDBRANCH  59  63
ENDBRANCH  54  57
ENDBRANCH  49  53
ENDBRANCH   3  47
TORSDOF 18
TER
