USER    Run = 1
USER    DPF = ligand_78_receptor.dpf
USER  
USER    Estimated Free Energy of Binding    =  +4.33e+005 kcal/mol  [=(1)+(2)+(3)-(4)]
USER    
USER    (1) Final Intermolecular Energy     =  +4.33e+005 kcal/mol
USER        vdW + Hbond + desolv Energy     =  +2.97e+005 kcal/mol
USER        Electrostatic Energy            =  +1.36e+005 kcal/mol
USER    (2) Final Total Internal Energy     =   +0.00 kcal/mol
USER    (3) Torsional Free Energy           =   +1.19 kcal/mol
USER    (4) Unbound System's Energy  [=(2)] =   +0.00 kcal/mol
USER    
USER    
USER    NEWDPF move ligand_78.pdbqt
USER    NEWDPF about 0.000000 0.000000 0.000000
USER    NEWDPF tran0 17.365077 7.664426 2.871928
USER    NEWDPF quaternion0 0.976510 -0.004845 -0.215404 -0.002453
USER    NEWDPF axisangle0 0.976513 -0.004845 -0.215405 -179.718875
USER    NEWDPF quat0 0.976513 -0.004845 -0.215405 -179.718875
USER  keepresnum = 1 
USER  
REMARK  0 active torsions:
REMARK  status: ('A' for Active; 'I' for Inactive)
REMARK       I    between atoms: C2_2  and  C3_3 
REMARK       I    between atoms: C3_3  and  C5_5 
REMARK       I    between atoms: C5_5  and  C6_6 
REMARK       I    between atoms: C5_5  and  N6_82 
REMARK       I    between atoms: C6_6  and  N1_77 
REMARK       I    between atoms: C7_7  and  C8_8 
REMARK       I    between atoms: C7_7  and  C12_12 
REMARK       I    between atoms: C7_7  and  N1_77 
REMARK       I    between atoms: C8_8  and  C10_10 
REMARK       I    between atoms: C12_12  and  N2_78 
REMARK       I    between atoms: C13_13  and  C14_14 
REMARK       I    between atoms: C13_13  and  C17_17 
REMARK       I    between atoms: C13_13  and  N2_78 
REMARK       I    between atoms: C14_14  and  C15_15 
REMARK       I    between atoms: C15_15  and  C16_16 
REMARK       I    between atoms: C16_16  and  O4_61 
REMARK       I    between atoms: C17_17  and  N3_79 
REMARK       I    between atoms: C18_18  and  C19_19 
REMARK       I    between atoms: C18_18  and  C22_22 
REMARK       I    between atoms: C18_18  and  N3_79 
REMARK       I    between atoms: C19_19  and  C20_20 
REMARK       I    between atoms: C20_20  and  C21_21 
REMARK       I    between atoms: C21_21  and  O7_64 
REMARK       I    between atoms: C22_22  and  N4_80 
REMARK       I    between atoms: C23_23  and  C24_24 
REMARK       I    between atoms: C23_23  and  C26_26 
REMARK       I    between atoms: C23_23  and  N4_80 
REMARK       I    between atoms: C24_24  and  C25_25 
REMARK       I    between atoms: C25_25  and  N5_81 
REMARK       I    between atoms: C26_26  and  O11_68 
REMARK       I    between atoms: C27_27  and  C28_28 
REMARK       I    between atoms: C27_27  and  N6_82 
REMARK       I    between atoms: C28_28  and  C29_29 
REMARK       I    between atoms: C28_28  and  N8_84 
REMARK       I    between atoms: C29_29  and  C30_30 
REMARK       I    between atoms: C30_30  and  N7_83 
REMARK       I    between atoms: C31_31  and  C32_32 
REMARK       I    between atoms: C31_31  and  N8_84 
REMARK       I    between atoms: C32_32  and  C33_33 
REMARK       I    between atoms: C32_32  and  N10_86 
REMARK       I    between atoms: C33_33  and  C34_34 
REMARK       I    between atoms: C34_34  and  C35_35 
REMARK       I    between atoms: C35_35  and  C36_36 
REMARK       I    between atoms: C36_36  and  N9_85 
REMARK       I    between atoms: C37_37  and  C38_38 
REMARK       I    between atoms: C37_37  and  N10_86 
REMARK       I    between atoms: C38_38  and  C39_39 
REMARK       I    between atoms: C38_38  and  N12_88 
REMARK       I    between atoms: C39_39  and  C40_40 
REMARK       I    between atoms: C40_40  and  C41_41 
REMARK       I    between atoms: C41_41  and  C42_42 
REMARK       I    between atoms: C42_42  and  N11_87 
REMARK       I    between atoms: C43_43  and  C44_44 
REMARK       I    between atoms: C43_43  and  N12_88 
REMARK       I    between atoms: C44_44  and  C45_45 
REMARK       I    between atoms: C44_44  and  N13_89 
REMARK       I    between atoms: C48_48  and  C49_49 
REMARK       I    between atoms: C48_48  and  N13_89 
REMARK       I    between atoms: C49_49  and  C50_50 
REMARK       I    between atoms: C49_49  and  N14_90 
REMARK       I    between atoms: C50_50  and  O18_75 
REMARK       I    between atoms: C52_52  and  C53_53 
REMARK       I    between atoms: C52_52  and  N14_90 
REMARK       I    between atoms: C53_53  and  C54_54 
REMARK       I    between atoms: C53_53  and  N18_95 
REMARK       I    between atoms: C54_54  and  C55_55 
REMARK       I    between atoms: C55_55  and  C56_56 
REMARK       I    between atoms: C56_56  and  N15_91 
REMARK       I    between atoms: C57_57  and  N16_93 
REMARK       I    between atoms: C57_57  and  N17_94 
USER                              x       y       z     vdW  Elec       q    Type
USER                           _______ _______ _______ _____ _____    ______ ____
ROOT
ATOM      1  C1  UNL     1      19.723   8.429  -2.120+99.99 +0.00    +0.005 C 
ATOM      2  C2  UNL     1      19.533   9.558  -1.116+99.99 +0.00    +0.002 C 
ATOM      3  C3  UNL     1      18.265   9.419  -0.248 -0.15 +0.00    +0.013 C 
ATOM      4  C4  UNL     1      18.094  10.696   0.590 -0.58 +0.00    +0.012 C 
ATOM      5  C5  UNL     1      18.208   8.132   0.612+32.63 +0.00    +0.180 C 
ATOM      6  C6  UNL     1      19.194   8.144   1.809+88.47 +0.00    +0.241 C 
ATOM      7  C7  UNL     1      21.569   7.769   2.467+21.75 +0.00    +0.180 C 
ATOM      8  C8  UNL     1      21.761   6.390   3.154+72.96 +0.00    +0.013 C 
ATOM      9  C9  UNL     1      20.761   6.225   4.309+99.99 +0.00    +0.012 C 
ATOM     10  C10 UNL     1      21.648   5.158   2.228+99.99 +0.00    +0.002 C 
ATOM     11  C11 UNL     1      22.696   5.083   1.130 +2.05 +0.00    +0.005 C 
ATOM     12  C12 UNL     1      22.843   8.265   1.745 -0.17 +0.00    +0.241 C 
ATOM     13  C13 UNL     1      25.235   8.795   2.025 -0.43 +0.00    +0.177 C 
ATOM     14  C14 UNL     1      25.968   9.886   2.814 -0.36 +0.00    +0.045 C 
ATOM     15  C15 UNL     1      27.401  10.157   2.374+99.99 +0.00    +0.112 C 
ATOM     16  C16 UNL     1      27.510  10.413   0.898+99.99 +0.00    +0.139 C 
ATOM     17  C17 UNL     1      25.924   7.417   2.133 -0.32 +0.00    +0.241 C 
ATOM     18  C18 UNL     1      27.322   5.753   0.922 +0.44 +0.00    +0.177 C 
ATOM     19  C19 UNL     1      27.288   5.375  -0.569 -0.33 +0.00    +0.045 C 
ATOM     20  C20 UNL     1      27.296   3.866  -0.827 -0.18 +0.00    +0.112 C 
ATOM     21  C21 UNL     1      28.614   3.174  -0.615 -0.25 +0.00    +0.139 C 
ATOM     22  C22 UNL     1      28.758   5.699   1.483 +6.09 +0.00    +0.241 C 
ATOM     23  C23 UNL     1      30.867   6.928   1.840 -0.28 +0.00    +0.191 C 
ATOM     24  C24 UNL     1      31.795   7.778   0.974 -0.18 +0.00    +0.138 C 
ATOM     25  C25 UNL     1      31.442   9.246   0.987 +0.09 +0.00    +0.217 C 
ATOM     26  C26 UNL     1      30.890   7.424   3.292+46.95 +0.00    +0.164 C 
ATOM     27  C27 UNL     1      16.456   6.680   1.586+99.99 +0.00    +0.241 C 
ATOM     28  C28 UNL     1      15.113   6.672   2.336+99.99 +0.00    +0.184 C 
ATOM     29  C29 UNL     1      15.388   6.758   3.841+11.52 +0.00    +0.131 C 
ATOM     30  C30 UNL     1      15.666   8.172   4.306 -0.38 +0.00    +0.197 C 
ATOM     31  C31 UNL     1      13.267   7.540   0.889+15.68 +0.00    +0.241 C 
ATOM     32  C32 UNL     1      12.336   8.765   0.701+99.99 +0.00    +0.176 C 
ATOM     33  C33 UNL     1      12.774   9.543  -0.553+99.99 +0.00    +0.035 C 
ATOM     34  C34 UNL     1      14.156  10.197  -0.446+84.08 +0.00    +0.004 C 
ATOM     35  C35 UNL     1      14.506  11.093  -1.638+99.99 +0.00    +0.030 C 
ATOM     36  C36 UNL     1      13.662  12.366  -1.698 +7.54 +0.00    +0.267 C 
ATOM     37  C37 UNL     1      11.813  10.809   2.107+99.99 +0.00    +0.241 C 
ATOM     38  C38 UNL     1      11.803  11.354   3.563+99.99 +0.00    +0.176 C 
ATOM     39  C39 UNL     1      12.642  12.640   3.666+99.99 +0.00    +0.035 C 
ATOM     40  C40 UNL     1      14.139  12.434   3.400+99.99 +0.00    +0.004 C 
ATOM     41  C41 UNL     1      14.905  13.760   3.433+99.99 +0.00    +0.030 C 
ATOM     42  C42 UNL     1      16.370  13.619   3.011+18.61 +0.00    +0.267 C 
ATOM     43  C43 UNL     1      11.297   9.582   5.213+99.99 +0.00    +0.241 C 
ATOM     44  C44 UNL     1      11.909   8.433   6.041 -0.02 +0.00    +0.180 C 
ATOM     45  C45 UNL     1      12.090   8.827   7.520 -0.23 +0.00    +0.009 C 
ATOM     46  C46 UNL     1      10.772   9.041   8.272+99.99 +0.00    +0.012 C 
ATOM     47  C47 UNL     1      12.939   7.786   8.256 -0.50 +0.00    +0.012 C 
ATOM     48  C48 UNL     1      11.121   6.613   4.602 -0.23 +0.00    +0.243 C 
ATOM     49  C49 UNL     1      10.057   5.507   4.427 -0.20 +0.00    +0.205 C 
ATOM     50  C50 UNL     1      10.592   4.260   3.688 +0.53 +0.00    +0.146 C 
ATOM     51  C51 UNL     1      11.071   4.522   2.267+99.99 +0.00    +0.042 C 
ATOM     52  C52 UNL     1       8.296   4.500   5.863 -0.25 +0.00    +0.251 C 
ATOM     53  C53 UNL     1       8.041   3.998   7.307 -0.37 +0.00    +0.308 C 
ATOM     54  C54 UNL     1       6.934   2.940   7.381 +5.88 +0.00    +0.047 C 
ATOM     55  C55 UNL     1       5.531   3.554   7.272 +1.18 +0.00    +0.022 C 
ATOM     56  C56 UNL     1       4.430   2.493   7.301+99.99 +0.00    +0.121 C 
ATOM     57  C57 UNL     1       3.518   0.977   8.847+47.52 +0.00    +0.121 C 
ATOM     58  O1  UNL     1      18.855   8.467   2.949 -0.30 -0.00    -0.271 OA
ATOM     59  O2  UNL     1      22.908   8.357   0.520 -0.31 -0.00    -0.271 OA
ATOM     60  O3  UNL     1      27.562   9.542   0.041 +3.07 -0.00    -0.650 OA
ATOM     61  O4  UNL     1      27.460  11.715   0.579+99.99 -0.00    -0.776 OA
ATOM     62  O5  UNL     1      25.726   6.670   3.090 -0.07 -0.00    -0.271 OA
ATOM     63  O6  UNL     1      28.755   2.021  -0.240 +0.06 -0.00    -0.650 OA
ATOM     64  O7  UNL     1      29.682   3.910  -0.970 +0.13 -0.00    -0.776 OA
ATOM     65  O8  UNL     1      29.241   4.662   1.935 +5.57 -0.00    -0.271 OA
ATOM     66  O9  UNL     1      30.416   9.711   1.469+49.14 -0.00    -0.274 OA
ATOM     67  O10 UNL     1      31.900   7.643   3.944+99.99 -0.00    -0.648 OA
ATOM     68  O11 UNL     1      29.673   7.606   3.844 +2.76 -0.00    -0.775 OA
ATOM     69  O12 UNL     1      17.190   5.695   1.541+16.93 -0.00    -0.271 OA
ATOM     70  O13 UNL     1      14.836   9.079   4.232 -0.21 -0.00    -0.280 OA
ATOM     71  O14 UNL     1      13.239   6.553   0.161 -0.40 -0.00    -0.271 OA
ATOM     72  O15 UNL     1      11.474  11.513   1.160+99.99 -0.00    -0.271 OA
ATOM     73  O16 UNL     1      10.084   9.761   5.126 +1.61 -0.00    -0.271 OA
ATOM     74  O17 UNL     1      11.862   7.011   3.703 -0.25 -0.00    -0.271 OA
ATOM     75  O18 UNL     1      11.649   3.653   4.448 +0.40 -0.00    -0.393 OA
ATOM     76  O19 UNL     1       7.510   4.381   4.931 -0.17 -0.00    -0.271 OA
ATOM     77  N1  UNL     1      20.479   7.781   1.500+99.99 -0.00    -0.346 N 
ATOM     78  N2  UNL     1      23.892   8.606   2.576 -0.19 -0.00    -0.346 N 
ATOM     79  N3  UNL     1      26.746   7.093   1.079 -0.13 -0.00    -0.346 N 
ATOM     80  N4  UNL     1      29.519   6.833   1.272 -0.14 -0.00    -0.344 N 
ATOM     81  N5  UNL     1      32.354  10.052   0.371 -0.09 -0.00    -0.370 N 
ATOM     82  N6  UNL     1      16.858   7.919   1.133 -0.13 -0.00    -0.346 N 
ATOM     83  N7  UNL     1      16.902   8.400   4.824 +0.23 -0.00    -0.273 NA
ATOM     84  N8  UNL     1      14.215   7.724   1.875 +2.18 -0.00    -0.346 N 
ATOM     85  N9  UNL     1      14.140  13.231  -2.773+99.99 +0.00    +0.078 N 
ATOM     86  N10 UNL     1      12.301   9.526   1.967+99.99 -0.00    -0.346 N 
ATOM     87  N11 UNL     1      17.139  12.751   3.896+24.44 +0.00    +0.078 N 
ATOM     88  N12 UNL     1      12.225  10.368   4.561+99.99 -0.00    -0.346 N 
ATOM     89  N13 UNL     1      11.091   7.248   5.837 -0.13 -0.00    -0.346 N 
ATOM     90  N14 UNL     1       9.514   5.139   5.741 -0.09 -0.00    -0.344 N 
ATOM     91  N15 UNL     1       4.419   1.853   8.614+99.99 -0.00    -0.372 N 
ATOM     92  H15 UNL     1       5.109   2.098   9.324+99.99 +0.00    +0.161 HD
ATOM     93  N16 UNL     1       2.532   0.507   8.051+19.23 -0.00    -0.279 NA
ATOM     94  N17 UNL     1       3.459   0.376  10.056 +8.14 -0.00    -0.279 NA
ATOM     95  N18 UNL     1       9.318   3.446   7.837 -0.50 +0.00    +0.092 N 
ATOM     96  H75 UNL     1      27.538  11.744  -0.397 +1.73 +0.00    +0.167 HD
ATOM     97  H76 UNL     1      30.435   3.336  -0.716 +0.06 +0.00    +0.167 HD
ATOM     98  H77 UNL     1      29.864   7.867   4.768+11.22 +0.00    +0.167 HD
ATOM     99  H78 UNL     1      11.982   2.903   3.924 +0.22 +0.00    +0.210 HD
ATOM    100  H79 UNL     1      20.734   7.569   0.542+99.99 +0.00    +0.163 HD
ATOM    101  H80 UNL     1      23.872   8.222   3.516 +0.13 +0.00    +0.163 HD
ATOM    102  H81 UNL     1      26.945   7.798   0.366 +0.11 +0.00    +0.163 HD
ATOM    103  H82 UNL     1      28.999   7.703   1.207 +0.08 +0.00    +0.163 HD
ATOM    104  H83 UNL     1      33.288   9.736   0.150+99.99+99.99    +0.159 HD
ATOM    105  H84 UNL     1      32.198  11.051   0.424 -0.02 +0.00    +0.159 HD
ATOM    106  H85 UNL     1      16.307   8.714   1.426 +0.07 +0.00    +0.163 HD
ATOM    107  H86 UNL     1      17.697   7.943   4.371 +0.07 +0.00    +0.127 HD
ATOM    108  H87 UNL     1      17.117   9.369   5.024 +0.08 +0.00    +0.127 HD
ATOM    109  H88 UNL     1      14.107   8.560   2.444 -0.43 +0.00    +0.163 HD
ATOM    110  H89 UNL     1      15.091  13.532  -2.573 +0.99 +0.00    +0.312 HD
ATOM    111  H90 UNL     1      13.570  14.077  -2.795+94.78 +0.00    +0.312 HD
ATOM    112  H91 UNL     1      12.139   8.936   2.784 -0.23 +0.00    +0.163 HD
ATOM    113  H92 UNL     1      17.040  13.075   4.857+99.99 +0.00    +0.312 HD
ATOM    114  H93 UNL     1      16.752  11.809   3.874 +0.28 +0.00    +0.312 HD
ATOM    115  H94 UNL     1      13.183  10.018   4.498 +4.86 +0.00    +0.163 HD
ATOM    116  H95 UNL     1      10.186   7.202   6.296 +0.11 +0.00    +0.163 HD
ATOM    117  H96 UNL     1      10.189   4.845   6.449 +0.12 +0.00    +0.163 HD
ATOM    118  H97 UNL     1       2.376  -0.486   8.182+21.68 +0.00    +0.126 HD
ATOM    119  H98 UNL     1       2.651   0.727   7.071 +0.08 +0.00    +0.126 HD
ATOM    120  H99 UNL     1       4.087   0.849  10.699 +5.41 +0.00    +0.126 HD
ATOM    121  HA0 UNL     1       2.518   0.367  10.429 -0.06 +0.00    +0.126 HD
ATOM    122  HA1 UNL     1       9.538   2.595   7.312 +0.22 +0.00    +0.313 HD
ATOM    123  HA2 UNL     1       9.152   3.128   8.793 +0.25 +0.00    +0.313 HD
ENDROOT
TORSDOF 56
TER
