USER    Run = 1
USER    DPF = ligand_416_receptor.dpf
USER  
USER    Estimated Free Energy of Binding    =   -0.23 kcal/mol  [=(1)+(2)+(3)-(4)]
USER    Estimated Inhibition Constant, Ki   =  682.87 mM (millimolar)  [Temperature = 298.15 K]
USER    
USER    (1) Final Intermolecular Energy     =   -1.42 kcal/mol
USER        vdW + Hbond + desolv Energy     =   -1.42 kcal/mol
USER        Electrostatic Energy            =   +0.00 kcal/mol
USER    (2) Final Total Internal Energy     =   -1.41 kcal/mol
USER    (3) Torsional Free Energy           =   +1.19 kcal/mol
USER    (4) Unbound System's Energy  [=(2)] =   -1.41 kcal/mol
USER    
USER    
USER    NEWDPF move ligand_416.pdbqt
USER    NEWDPF about 0.000000 0.000000 0.000000
USER    NEWDPF tran0 15.470383 7.358486 3.428040
USER    NEWDPF quaternion0 0.206793 -0.052490 -0.127688 0.968596
USER    NEWDPF axisangle0 0.831691 -0.211106 -0.513541 28.794310
USER    NEWDPF quat0 0.831691 -0.211106 -0.513541 28.794310
USER    NEWDPF dihe0 98.08 14.22 -35.89 98.00 84.39 -66.68 6.27 30.30 -11.83 21.48 147.91 -133.28 
USER  keepresnum = 1 
USER  
REMARK  12 active torsions:
REMARK  status: ('A' for Active; 'I' for Inactive)
REMARK    1  A    between atoms: C2_2  and  O1_37 
REMARK    2  A    between atoms: C5_5  and  O1_37 
REMARK       I    between atoms: C5_5  and  N1_44 
REMARK    3  A    between atoms: C8_8  and  N2_45 
REMARK       I    between atoms: C10_10  and  N2_45 
REMARK       I    between atoms: C10_10  and  N3_46 
REMARK    4  A    between atoms: C15_15  and  N4_47 
REMARK    5  A    between atoms: C16_16  and  C17_17 
REMARK       I    between atoms: C16_16  and  N4_47 
REMARK    6  A    between atoms: C20_20  and  N5_48 
REMARK    7  A    between atoms: C23_23  and  C24_24 
REMARK       I    between atoms: C23_23  and  N5_48 
REMARK    8  A    between atoms: C26_26  and  C28_28 
REMARK    9  A    between atoms: C30_30  and  C31_31 
REMARK   10  A    between atoms: C32_32  and  N8_52 
REMARK   11  A    between atoms: C34_34  and  N11_57 
REMARK   12  A    between atoms: O6_42  and  N11_57 
USER                              x       y       z     vdW  Elec       q    Type
USER                           _______ _______ _______ _____ _____    ______ ____
ROOT
ATOM      1  C17 UNL     1      14.510   7.385   3.213 +0.29 +0.00    +0.053 A 
ATOM      2  C18 UNL     1      14.319   7.024   4.552 -0.40 +0.00    +0.051 A 
ATOM      3  C19 UNL     1      13.036   6.693   5.016 -0.39 +0.00    +0.054 A 
ATOM      4  C20 UNL     1      11.930   6.706   4.160 -0.35 +0.00    +0.036 A 
ATOM      5  C21 UNL     1      12.120   7.048   2.823 -0.38 +0.00    +0.030 A 
ATOM      6  C22 UNL     1      13.398   7.379   2.354 +0.40 +0.00    +0.021 A 
ATOM      7 CL1  UNL     1      15.601   6.922   5.710 +2.45 -0.00    -0.083 Cl
ENDROOT
BRANCH   4   8
ATOM      8  N5  UNL     1      10.686   6.366   4.715 -0.11 -0.00    -0.320 N 
ATOM      9  C23 UNL     1      10.107   6.808   5.892 +0.20 +0.00    +0.290 C 
ATOM     10  O5  UNL     1      10.609   7.612   6.669 -0.07 -0.00    -0.264 OA
ATOM     11  H37 UNL     1      10.093   5.712   4.207 +0.10 +0.00    +0.169 HD
BRANCH   9  12
ATOM     12  C24 UNL     1       8.795   6.194   6.090 +1.60 +0.00    +0.177 A 
ATOM     13  N6  UNL     1       8.360   5.880   7.302 -0.05 -0.00    -0.345 N 
ATOM     14  C25 UNL     1       7.151   5.265   7.114 -0.36 +0.00    +0.120 A 
ATOM     15  H6  UNL     1       8.829   6.058   8.190 +0.12 +0.00    +0.167 HD
ATOM     16  C26 UNL     1       6.824   5.192   5.777 -0.29 +0.00    +0.065 A 
ATOM     17  N7  UNL     1       7.852   5.859   5.138 -0.02 -0.00    -0.331 N 
ATOM     18  C27 UNL     1       7.915   6.214   3.739 -0.18 +0.00    +0.158 C 
BRANCH  16  19
ATOM     19  C28 UNL     1       5.566   4.494   5.158 -0.25 +0.00    +0.043 A 
ATOM     20  C29 UNL     1       5.551   3.810   3.968 -0.13 +0.00    +0.134 A 
ATOM     21  N8  UNL     1       4.270   3.339   3.768 -0.06 -0.00    -0.250 N 
ATOM     22  N9  UNL     1       3.455   3.679   4.801 -0.06 -0.00    -0.288 N 
ATOM     23  C30 UNL     1       4.232   4.378   5.654 -0.20 +0.00    +0.146 A 
ATOM     24  H9  UNL     1       2.467   3.453   4.908 +0.06 +0.00    +0.187 HD
BRANCH  21  25
ATOM     25  C32 UNL     1       3.827   2.591   2.637 -0.08 +0.00    +0.126 A 
ATOM     26  C36 UNL     1       3.439   1.264   2.808 -0.18 +0.00    +0.053 A 
ATOM     27  C35 UNL     1       3.006   0.550   1.689 -0.16 +0.00    +0.036 A 
ATOM     28  C34 UNL     1       2.987   1.146   0.427 -0.12 +0.00    +0.069 A 
ATOM     29  C33 UNL     1       3.365   2.488   0.375 -0.07 +0.00    +0.121 A 
ATOM     30  N10 UNL     1       3.796   3.228   1.438 -0.02 -0.00    -0.349 N 
ATOM     31  H10 UNL     1       4.079   4.203   1.338 +0.04 +0.00    +0.167 HD
BRANCH  28  32
ATOM     32  N11 UNL     1       2.470   0.431  -0.670 -0.08 -0.00    -0.268 N 
ATOM     33  H38 UNL     1       2.398  -0.568  -0.493 +0.07 +0.00    +0.194 HD
BRANCH  32  34
ATOM     34  O6  UNL     1       2.950   0.687  -1.989 -0.08 -0.00    -0.289 OA
ATOM     35  H6  UNL     1       2.611   1.420  -2.491 +0.04 +0.00    +0.244 HD
ENDBRANCH  32  34
ENDBRANCH  28  32
ENDBRANCH  21  25
BRANCH  23  36
ATOM     36  C31 UNL     1       3.669   4.931   6.931 -0.16 +0.00    +0.434 C 
ATOM     37  F1  UNL     1       3.615   3.990   7.914 -0.16 -0.00    -0.165 F 
ATOM     38  F2  UNL     1       2.405   5.422   6.807 -0.06 -0.00    -0.165 F 
ATOM     39  F3  UNL     1       4.424   5.954   7.421 -0.14 -0.00    -0.165 F 
ENDBRANCH  23  36
ENDBRANCH  16  19
ENDBRANCH   9  12
ENDBRANCH   4   8
BRANCH   1  40
ATOM     40  C16 UNL     1      15.812   7.769   2.597 +1.13 +0.00    +0.253 C 
ATOM     41  O4  UNL     1      15.885   7.924   1.381 +0.47 -0.00    -0.268 OA
ATOM     42  N4  UNL     1      16.878   7.981   3.447 -0.30 -0.00    -0.351 N 
ATOM     43  H36 UNL     1      16.761   7.794   4.437 +0.10 +0.00    +0.163 HD
BRANCH  42  44
ATOM     44  C15 UNL     1      18.173   8.356   2.972 -0.39 +0.00    +0.097 A 
ATOM     45  C12 UNL     1      18.561   9.809   2.893 -0.40 +0.00    +0.035 A 
ATOM     46  C11 UNL     1      19.619  10.279   1.950 -0.35 +0.00    +0.134 A 
ATOM     47  C13 UNL     1      19.195   8.935   3.919 +0.17 +0.00    +0.035 A 
ATOM     48  N3  UNL     1      20.833   9.601   2.386 -0.19 -0.00    -0.333 N 
ATOM     49  C10 UNL     1      22.022   9.885   1.763 -0.11 +0.00    +0.318 C 
ATOM     50  C14 UNL     1      20.656   8.847   3.622 +0.30 +0.00    +0.134 A 
ATOM     51  O3  UNL     1      22.116  10.690   0.839 +0.26 -0.00    -0.247 OA
ATOM     52  N2  UNL     1      23.108   9.210   2.263 -0.19 -0.00    -0.337 N 
ATOM     53  H35 UNL     1      22.898   8.288   2.612 +0.11 +0.00    +0.164 HD
BRANCH  52  54
ATOM     54  C8  UNL     1      24.412   9.383   1.651 -0.43 +0.00    +0.105 C 
ATOM     55  C7  UNL     1      24.512   8.748   0.260 -0.21 +0.00    +0.047 C 
ATOM     56  C6  UNL     1      26.011   8.588   0.065 +0.44 +0.00    +0.130 C 
ATOM     57  N1  UNL     1      26.520   8.350   1.403 -0.21 -0.00    -0.326 N 
ATOM     58  C5  UNL     1      27.784   7.926   1.717 -0.24 +0.00    +0.363 C 
ATOM     59  C9  UNL     1      25.545   8.694   2.418 -0.50 +0.00    +0.153 C 
ATOM     60  O2  UNL     1      28.170   7.756   2.866 -0.37 -0.00    -0.238 OA
BRANCH  58  61
ATOM     61  O1  UNL     1      28.532   7.725   0.604 -0.22 -0.00    -0.294 OA
BRANCH  61  62
ATOM     62  C2  UNL     1      28.656   6.405   0.016 -0.26 +0.00    +0.061 C 
ATOM     63  C1  UNL     1      27.354   5.607   0.155 -0.32 +0.00    +0.046 C 
ATOM     64  C3  UNL     1      29.746   5.710   0.847 -0.24 +0.00    +0.046 C 
ATOM     65  C4  UNL     1      29.128   6.484  -1.440 -0.23 +0.00    +0.046 C 
ENDBRANCH  61  62
ENDBRANCH  58  61
ENDBRANCH  52  54
ENDBRANCH  42  44
ENDBRANCH   1  40
TORSDOF 12
TER
