USER    Run = 1
USER    DPF = ligand_296_receptor.dpf
USER  
USER    Estimated Free Energy of Binding    =  -12.40 kcal/mol  [=(1)+(2)+(3)-(4)]
USER    Estimated Inhibition Constant, Ki   =  817.25 pM (picomolar)  [Temperature = 298.15 K]
USER    
USER    (1) Final Intermolecular Energy     =  -13.59 kcal/mol
USER        vdW + Hbond + desolv Energy     =  -13.59 kcal/mol
USER        Electrostatic Energy            =   +0.00 kcal/mol
USER    (2) Final Total Internal Energy     =   -1.65 kcal/mol
USER    (3) Torsional Free Energy           =   +1.19 kcal/mol
USER    (4) Unbound System's Energy  [=(2)] =   -1.65 kcal/mol
USER    
USER    
USER    NEWDPF move ligand_296.pdbqt
USER    NEWDPF about 0.000000 0.000000 0.000000
USER    NEWDPF tran0 21.691505 9.181693 1.867503
USER    NEWDPF quaternion0 -0.093105 0.987600 0.041464 0.119406
USER    NEWDPF axisangle0 -0.093775 0.994717 0.041763 166.284322
USER    NEWDPF quat0 -0.093775 0.994717 0.041763 166.284322
USER    NEWDPF dihe0 -180.00 0.56 -176.08 32.59 128.52 5.88 165.08 145.98 -134.66 144.19 -44.82 
USER  keepresnum = 1 
USER  
REMARK  11 active torsions:
REMARK  status: ('A' for Active; 'I' for Inactive)
REMARK    1  A    between atoms: C3_3  and  C23_23 
REMARK    2  A    between atoms: C5_5  and  C8_8 
REMARK       I    between atoms: C8_8  and  N1_35 
REMARK    3  A    between atoms: C9_9  and  N1_35 
REMARK    4  A    between atoms: C11_11  and  C22_22 
REMARK    5  A    between atoms: C12_12  and  C15_15 
REMARK    6  A    between atoms: C15_15  and  N2_36 
REMARK    7  A    between atoms: C20_20  and  C21_21 
REMARK    8  A    between atoms: C20_20  and  N3_37 
REMARK    9  A    between atoms: C21_21  and  O2_34 
REMARK   10  A    between atoms: C24_24  and  C25_25 
REMARK   11  A    between atoms: C30_30  and  C31_31 
USER                              x       y       z     vdW  Elec       q    Type
USER                           _______ _______ _______ _____ _____    ______ ____
ROOT
ATOM      1  C1  UNL     1      16.208  11.816   1.525 -0.38 +0.00    +0.049 C 
ATOM      2  C2  UNL     1      17.602  11.290   1.741 -0.51 -0.00    -0.043 A 
ATOM      3  C3  UNL     1      17.834  10.092   2.441 -0.45 +0.00    +0.025 A 
ATOM      4  C4  UNL     1      19.141   9.630   2.630 -0.39 +0.00    +0.038 A 
ATOM      5  C5  UNL     1      20.225  10.351   2.118 -0.44 +0.00    +0.033 A 
ATOM      6  C6  UNL     1      20.003  11.554   1.441 -0.57 +0.00    +0.017 A 
ATOM      7  C7  UNL     1      18.698  12.016   1.251 -0.67 +0.00    +0.009 A 
ENDROOT
BRANCH   5   8
ATOM      8  C8  UNL     1      21.599   9.821   2.344 -0.28 +0.00    +0.256 C 
ATOM      9  O1  UNL     1      22.120  10.011   3.436 -0.32 -0.00    -0.267 OA
ATOM     10  N1  UNL     1      22.133   9.121   1.278 -0.16 -0.00    -0.323 N 
ATOM     11  H30 UNL     1      21.517   8.939   0.497 +0.12 +0.00    +0.169 HD
BRANCH  10  12
ATOM     12  C9  UNL     1      23.418   8.543   1.189 -0.43 +0.00    +0.035 A 
ATOM     13  C10 UNL     1      23.679   7.299   0.615 -0.42 +0.00    +0.046 A 
ATOM     14  C11 UNL     1      24.989   6.769   0.555 -0.38 +0.00    +0.058 A 
ATOM     15  C12 UNL     1      26.053   7.510   1.116 -0.40 -0.00    -0.015 A 
ATOM     16  C13 UNL     1      25.781   8.763   1.690 -0.48 +0.00    +0.012 A 
ATOM     17  C14 UNL     1      24.481   9.271   1.726 -0.44 +0.00    +0.030 A 
BRANCH  14  18
ATOM     18  C22 UNL     1      25.184   5.407  -0.082 -0.24 +0.00    +0.418 C 
ATOM     19  F1  UNL     1      25.393   5.463  -1.427 -0.15 -0.00    -0.166 F 
ATOM     20  F2  UNL     1      26.273   4.746   0.417 -0.14 -0.00    -0.166 F 
ATOM     21  F3  UNL     1      24.145   4.545   0.118 -0.23 -0.00    -0.166 F 
ENDBRANCH  14  18
BRANCH  15  22
ATOM     22  C15 UNL     1      27.488   7.006   1.119 -0.13 +0.00    +0.311 C 
BRANCH  22  23
ATOM     23  N2  UNL     1      28.322   7.708   0.135 -0.29 +0.00    +0.096 N 
ATOM     24  C16 UNL     1      29.749   7.419   0.359 -0.15 +0.00    +0.303 C 
ATOM     25  C17 UNL     1      30.181   5.958   0.058 -0.07 +0.00    +0.302 C 
ATOM     26  N3  UNL     1      29.322   5.254  -0.925 -0.12 +0.00    +0.093 N 
ATOM     27  C18 UNL     1      28.806   6.218  -1.910 -0.13 +0.00    +0.302 C 
ATOM     28  C19 UNL     1      27.968   7.354  -1.258 -0.16 +0.00    +0.303 C 
BRANCH  26  29
ATOM     29  C20 UNL     1      30.033   4.142  -1.589 -0.02 +0.00    +0.298 C 
BRANCH  29  30
ATOM     30  C21 UNL     1      29.657   2.783  -0.980 -0.15 +0.00    +0.194 C 
BRANCH  30  31
ATOM     31  O2  UNL     1      28.236   2.647  -0.949 -0.13 -0.00    -0.399 OA
ATOM     32  H29 UNL     1      28.077   1.693  -1.099 -0.42 +0.00    +0.209 HD
ENDBRANCH  30  31
ENDBRANCH  29  30
ENDBRANCH  26  29
ENDBRANCH  22  23
ENDBRANCH  15  22
ENDBRANCH  10  12
ENDBRANCH   5   8
BRANCH   3  33
ATOM     33  C23 UNL     1      16.752   9.318   2.975 -0.53 -0.00    -0.059 C 
ATOM     34  C24 UNL     1      15.847   8.668   3.423 -0.54 -0.00    -0.042 C 
BRANCH  34  35
ATOM     35  C25 UNL     1      14.779   7.898   3.954 -0.43 +0.00    +0.104 A 
ATOM     36  C26 UNL     1      14.784   7.141   5.098 -0.30 +0.00    +0.131 A 
ATOM     37  N4  UNL     1      13.524   6.607   5.164 -0.21 -0.00    -0.342 N 
ATOM     38  C27 UNL     1      12.820   7.056   4.072 -0.33 +0.00    +0.153 A 
ATOM     39  C32 UNL     1      13.041   5.728   6.202 -0.41 +0.00    +0.157 C 
ATOM     40  C28 UNL     1      11.466   6.736   3.757 -0.26 +0.00    +0.151 A 
ATOM     41  N5  UNL     1      13.567   7.847   3.320 -0.23 -0.00    -0.331 N 
ATOM     42  N6  UNL     1      10.648   5.964   4.441 -0.09 -0.00    -0.347 N 
ATOM     43  N7  UNL     1      10.850   7.235   2.639 -0.16 -0.00    -0.334 N 
ATOM     44  C29 UNL     1       9.467   5.968   3.740 -0.19 +0.00    +0.124 A 
ATOM     45  H6  UNL     1      10.849   5.467   5.309 +0.11 +0.00    +0.167 HD
ATOM     46  C30 UNL     1       9.568   6.752   2.614 -0.24 +0.00    +0.133 A 
ATOM     47  H31 UNL     1      11.297   7.851   1.970 +0.11 +0.00    +0.167 HD
ATOM     48  H5  UNL     1      13.299   8.317   2.455 -0.35 +0.00    +0.168 HD
BRANCH  46  49
ATOM     49  C31 UNL     1       8.608   7.079   1.551 -0.11 +0.00    +0.433 C 
ATOM     50  F4  UNL     1       8.058   5.960   1.013 -0.03 -0.00    -0.165 F 
ATOM     51  F5  UNL     1       9.191   7.760   0.537 -0.09 -0.00    -0.165 F 
ATOM     52  F6  UNL     1       7.586   7.839   2.011 -0.17 -0.00    -0.165 F 
ENDBRANCH  46  49
ENDBRANCH  34  35
ENDBRANCH   3  33
TORSDOF 11
TER
