USER    Run = 1
USER    DPF = ligand_402_receptor.dpf
USER  
USER    Estimated Free Energy of Binding    =  -11.12 kcal/mol  [=(1)+(2)+(3)-(4)]
USER    Estimated Inhibition Constant, Ki   =    7.08 nM (nanomolar)  [Temperature = 298.15 K]
USER    
USER    (1) Final Intermolecular Energy     =  -12.31 kcal/mol
USER        vdW + Hbond + desolv Energy     =  -12.31 kcal/mol
USER        Electrostatic Energy            =   +0.00 kcal/mol
USER    (2) Final Total Internal Energy     =   -1.77 kcal/mol
USER    (3) Torsional Free Energy           =   +1.19 kcal/mol
USER    (4) Unbound System's Energy  [=(2)] =   -1.77 kcal/mol
USER    
USER    
USER    NEWDPF move ligand_402.pdbqt
USER    NEWDPF about 0.000000 0.000000 0.000000
USER    NEWDPF tran0 16.989601 9.090078 3.257357
USER    NEWDPF quaternion0 -0.671602 0.180422 0.128895 -0.706954
USER    NEWDPF axisangle0 -0.949584 0.255101 0.182246 -90.024676
USER    NEWDPF quat0 -0.949584 0.255101 0.182246 -90.024676
USER    NEWDPF dihe0 -72.26 136.61 107.90 -163.52 179.88 65.05 116.88 -124.61 -142.35 -89.58 -113.02 
USER  keepresnum = 1 
USER  
REMARK  11 active torsions:
REMARK  status: ('A' for Active; 'I' for Inactive)
REMARK    1  A    between atoms: C2_2  and  C3_3 
REMARK    2  A    between atoms: C4_4  and  C5_5 
REMARK       I    between atoms: C4_4  and  N2_42 
REMARK    3  A    between atoms: C5_5  and  C6_6 
REMARK    4  A    between atoms: C6_6  and  C7_7 
REMARK       I    between atoms: C7_7  and  N3_43 
REMARK    5  A    between atoms: C8_8  and  N3_43 
REMARK    6  A    between atoms: C14_14  and  C16_16 
REMARK       I    between atoms: C16_16  and  N5_45 
REMARK    7  A    between atoms: C17_17  and  N5_45 
REMARK    8  A    between atoms: C23_23  and  C25_25 
REMARK       I    between atoms: C25_25  and  N7_47 
REMARK    9  A    between atoms: C27_27  and  C38_38 
REMARK   10  A    between atoms: C31_31  and  O5_52 
REMARK   11  A    between atoms: N1_40  and  N2_42 
USER                              x       y       z     vdW  Elec       q    Type
USER                           _______ _______ _______ _____ _____    ______ ____
ROOT
ATOM      1  C16 UNL     1      16.988   9.140   4.016 -0.34 +0.00    +0.272 C 
ATOM      2  N5  UNL     1      16.170   8.163   3.483 -0.30 -0.00    -0.322 N 
ATOM      3  O3  UNL     1      16.658   9.960   4.866 -0.12 -0.00    -0.266 OA
ATOM      4  H34 UNL     1      16.584   7.561   2.788 -0.05 +0.00    +0.169 HD
ENDROOT
BRANCH   2   5
ATOM      5  C17 UNL     1      14.817   7.899   3.789 -0.46 +0.00    +0.035 A 
ATOM      6  C18 UNL     1      14.375   6.733   4.426 -0.11 +0.00    +0.043 A 
ATOM      7  C19 UNL     1      13.001   6.559   4.695 -0.40 -0.00    -0.005 A 
ATOM      8  C20 UNL     1      12.108   7.553   4.312 -0.38 +0.00    +0.043 A 
ATOM      9  C24 UNL     1      12.236   5.522   5.301 -0.31 +0.00    +0.049 A 
ATOM     10  C21 UNL     1      12.514   8.725   3.674 +0.10 +0.00    +0.033 A 
ATOM     11  N6  UNL     1      10.854   7.122   4.670 -0.12 -0.00    -0.351 N 
ATOM     12  C22 UNL     1      13.884   8.878   3.424 +0.27 +0.00    +0.032 A 
ATOM     13  C23 UNL     1      10.904   5.903   5.319 -0.24 +0.00    +0.102 A 
ATOM     14  H35 UNL     1       9.991   7.620   4.493 +0.10 +0.00    +0.166 HD
BRANCH  13  15
ATOM     15  C25 UNL     1       9.678   5.273   5.784 -0.19 +0.00    +0.275 C 
ATOM     16  N7  UNL     1       8.708   4.909   4.856 -0.10 -0.00    -0.311 N 
ATOM     17  C26 UNL     1       8.834   4.904   3.388 -0.18 +0.00    +0.143 C 
ATOM     18  C29 UNL     1       7.415   4.436   5.174 -0.28 +0.00    +0.048 A 
ATOM     19  C27 UNL     1       7.693   4.027   2.838 -0.20 +0.00    +0.054 C 
ATOM     20  C28 UNL     1       6.758   3.984   4.022 -0.22 -0.00    -0.013 A 
ATOM     21  C37 UNL     1       5.430   3.521   4.063 -0.20 -0.00    -0.014 A 
ATOM     22  C32 UNL     1       4.779   3.491   5.321 -0.28 +0.00    +0.008 A 
ATOM     23  C36 UNL     1       4.726   3.095   2.917 -0.13 +0.00    +0.013 A 
ATOM     24  C31 UNL     1       5.478   3.931   6.471 -0.35 +0.00    +0.079 A 
ATOM     25  C33 UNL     1       3.451   3.021   5.384 -0.25 +0.00    +0.015 A 
ATOM     26  C30 UNL     1       6.789   4.407   6.406 -0.39 +0.00    +0.067 A 
ATOM     27  C34 UNL     1       2.775   2.596   4.239 -0.13 +0.00    +0.001 A 
ATOM     28  C35 UNL     1       3.411   2.636   3.006 -0.11 +0.00    +0.001 A 
ATOM     29  O4  UNL     1       9.562   5.035   6.987 -0.23 -0.00    -0.265 OA
BRANCH  19  30
ATOM     30  C38 UNL     1       8.181   2.625   2.462 -0.22 +0.00    +0.125 C 
ATOM     31 CL1  UNL     1       7.343   2.028   1.005 -0.26 -0.00    -0.130 Cl
ENDBRANCH  19  30
BRANCH  24  32
ATOM     32  O5  UNL     1       4.843   3.895   7.688 -0.62 -0.00    -0.360 OA
ATOM     33  H36 UNL     1       3.943   4.247   7.581 +0.09 +0.00    +0.217 HD
ENDBRANCH  24  32
ENDBRANCH  13  15
ENDBRANCH   2   5
BRANCH   1  34
ATOM     34  C14 UNL     1      18.341   9.146   3.485 -0.38 +0.00    +0.102 A 
ATOM     35  C15 UNL     1      19.513   8.507   3.862 -0.20 +0.00    +0.049 A 
ATOM     36  C10 UNL     1      20.547   8.893   2.962 -0.10 -0.00    -0.005 A 
ATOM     37  C9  UNL     1      21.916   8.576   2.843 -0.12 +0.00    +0.043 A 
ATOM     38  C11 UNL     1      19.983   9.770   2.043 -0.32 +0.00    +0.043 A 
ATOM     39  C8  UNL     1      22.684   9.145   1.812 -0.43 +0.00    +0.035 A 
ATOM     40  C13 UNL     1      22.079  10.020   0.911 -0.35 +0.00    +0.032 A 
ATOM     41  C12 UNL     1      20.719  10.350   1.008 -0.47 +0.00    +0.033 A 
ATOM     42  N4  UNL     1      18.660   9.907   2.378 -0.17 -0.00    -0.351 N 
ATOM     43  H33 UNL     1      17.987  10.484   1.889 +0.14 +0.00    +0.166 HD
BRANCH  39  44
ATOM     44  N3  UNL     1      24.046   8.778   1.760 -0.18 -0.00    -0.327 N 
ATOM     45  C7  UNL     1      24.578   7.501   1.688 -0.30 +0.00    +0.222 C 
ATOM     46  O2  UNL     1      23.957   6.445   1.655 -0.13 -0.00    -0.273 OA
ATOM     47  H32 UNL     1      24.709   9.542   1.774 +0.14 +0.00    +0.169 HD
BRANCH  45  48
ATOM     48  C6  UNL     1      26.095   7.537   1.652 -0.42 +0.00    +0.112 C 
BRANCH  48  49
ATOM     49  C5  UNL     1      26.612   8.256   0.412 -0.33 +0.00    +0.114 C 
BRANCH  49  50
ATOM     50  C4  UNL     1      27.370   7.315  -0.497 -0.24 +0.00    +0.236 C 
ATOM     51  N2  UNL     1      27.431   6.023   0.032 -0.14 -0.00    -0.270 N 
ATOM     52  H31 UNL     1      26.655   5.780   0.643 +0.12 +0.00    +0.190 HD
ATOM     53  O1  UNL     1      27.871   7.676  -1.558 -0.22 -0.00    -0.272 OA
BRANCH  51  54
ATOM     54  N1  UNL     1      27.820   4.971  -0.754 -0.11 -0.00    -0.307 N 
ATOM     55  C3  UNL     1      26.902   4.243  -1.324 -0.40 -0.00    -0.001 C 
ATOM     56  C39 UNL     1      25.415   4.516  -1.305 -0.50 +0.00    +0.065 C 
ATOM     57  H1  UNL     1      28.809   4.762  -0.891 +0.09 +0.00    +0.186 HD
BRANCH  55  58
ATOM     58  C2  UNL     1      27.364   2.997  -2.059 -0.30 +0.00    +0.049 C 
ATOM     59  C1  UNL     1      26.404   2.658  -3.185 -0.41 +0.00    +0.011 C 
ENDBRANCH  55  58
ENDBRANCH  51  54
ENDBRANCH  49  50
ENDBRANCH  48  49
ENDBRANCH  45  48
ENDBRANCH  39  44
ENDBRANCH   1  34
TORSDOF 11
TER
