USER    Run = 1
USER    DPF = ligand_323_receptor.dpf
USER  
USER    Estimated Free Energy of Binding    =  +7.39e+006 kcal/mol  [=(1)+(2)+(3)-(4)]
USER    
USER    (1) Final Intermolecular Energy     =  +7.39e+006 kcal/mol
USER        vdW + Hbond + desolv Energy     =  +3.76e+006 kcal/mol
USER        Electrostatic Energy            =  +3.63e+006 kcal/mol
USER    (2) Final Total Internal Energy     =   +0.00 kcal/mol
USER    (3) Torsional Free Energy           =   +1.19 kcal/mol
USER    (4) Unbound System's Energy  [=(2)] =   +0.00 kcal/mol
USER    
USER    
USER    NEWDPF move ligand_323.pdbqt
USER    NEWDPF about 0.000000 0.000000 0.000000
USER    NEWDPF tran0 16.747551 6.492521 0.860073
USER    NEWDPF quaternion0 0.885141 0.038534 0.360936 -0.291146
USER    NEWDPF axisangle0 0.925223 0.040279 0.377280 -146.146854
USER    NEWDPF quat0 0.925223 0.040279 0.377280 -146.146854
USER  keepresnum = 1 
USER  
REMARK  0 active torsions:
REMARK  status: ('A' for Active; 'I' for Inactive)
REMARK       I    between atoms: C4_4  and  C11_11 
REMARK       I    between atoms: C7_7  and  C8_8 
REMARK       I    between atoms: C7_7  and  N3_67 
REMARK       I    between atoms: C8_8  and  O2_77 
REMARK       I    between atoms: C9_9  and  C10_10 
REMARK       I    between atoms: C9_9  and  N2_66 
REMARK       I    between atoms: C10_10  and  O4_79 
REMARK       I    between atoms: C11_11  and  C12_12 
REMARK       I    between atoms: C15_15  and  N4_68 
REMARK       I    between atoms: C18_18  and  N4_68 
REMARK       I    between atoms: C18_18  and  N5_69 
REMARK       I    between atoms: C19_19  and  C20_20 
REMARK       I    between atoms: C19_19  and  C27_27 
REMARK       I    between atoms: C19_19  and  N5_69 
REMARK       I    between atoms: C20_20  and  C21_21 
REMARK       I    between atoms: C27_27  and  N6_70 
REMARK       I    between atoms: C28_28  and  C29_29 
REMARK       I    between atoms: C28_28  and  C36_36 
REMARK       I    between atoms: C28_28  and  N6_70 
REMARK       I    between atoms: C29_29  and  C30_30 
REMARK       I    between atoms: C36_36  and  N7_71 
REMARK       I    between atoms: C37_37  and  C38_38 
REMARK       I    between atoms: C37_37  and  N7_71 
REMARK       I    between atoms: C38_38  and  C39_39 
REMARK       I    between atoms: C39_39  and  C40_40 
REMARK       I    between atoms: C40_40  and  C41_41 
REMARK       I    between atoms: C41_41  and  C42_42 
REMARK       I    between atoms: C41_41  and  N8_72 
REMARK       I    between atoms: C42_42  and  O8_83 
REMARK       I    between atoms: C43_43  and  C44_44 
REMARK       I    between atoms: C43_43  and  N8_72 
REMARK       I    between atoms: C44_44  and  C45_45 
REMARK       I    between atoms: C45_45  and  C46_46 
REMARK       I    between atoms: C46_46  and  C47_47 
REMARK       I    between atoms: C47_47  and  C48_48 
REMARK       I    between atoms: C48_48  and  C49_49 
REMARK       I    between atoms: C49_49  and  C50_50 
REMARK       I    between atoms: C50_50  and  N9_73 
REMARK       I    between atoms: C51_51  and  C52_52 
REMARK       I    between atoms: C51_51  and  N9_73 
REMARK       I    between atoms: C52_52  and  C53_53 
REMARK       I    between atoms: C53_53  and  C54_54 
REMARK       I    between atoms: C54_54  and  C55_55 
REMARK       I    between atoms: C55_55  and  C56_56 
REMARK       I    between atoms: C55_55  and  N10_74 
REMARK       I    between atoms: C56_56  and  O12_87 
REMARK       I    between atoms: C57_57  and  N10_74 
REMARK       I    between atoms: C57_57  and  N11_75 
REMARK       I    between atoms: C58_58  and  C59_59 
REMARK       I    between atoms: C58_58  and  C62_62 
REMARK       I    between atoms: C58_58  and  N11_75 
REMARK       I    between atoms: C59_59  and  C60_60 
REMARK       I    between atoms: C60_60  and  C61_61 
REMARK       I    between atoms: C61_61  and  O15_90 
REMARK       I    between atoms: C62_62  and  O17_92 
REMARK       I    between atoms: C63_63  and  C64_64 
REMARK       I    between atoms: C63_63  and  N1_65 
REMARK       I    between atoms: C64_64  and  O19_94 
USER                              x       y       z     vdW  Elec       q    Type
USER                           _______ _______ _______ _____ _____    ______ ____
ROOT
ATOM      1  C1  UNL     1       3.722   0.166  -4.301 -0.01 +0.00    +0.303 C 
ATOM      2  C2  UNL     1       2.722   1.344  -4.126 +0.02 +0.00    +0.303 C 
ATOM      3  C3  UNL     1       3.627   2.821  -2.366 -0.04 +0.00    +0.298 C 
ATOM      4  C4  UNL     1       4.996   2.160  -1.967 -0.07 +0.00    +0.112 C 
ATOM      5  C5  UNL     1       5.432  -0.226  -1.234 +3.42 +0.00    +0.148 C 
ATOM      6  C6  UNL     1       5.222  -0.857  -2.639 +6.94 +0.00    +0.292 C 
ATOM      7  C7  UNL     1       3.085  -1.955  -3.175+99.99+99.99    +0.381 C 
ATOM      8  C8  UNL     1       1.582  -1.713  -3.115+99.99+99.99    +0.169 C 
ATOM      9  C9  UNL     1       4.512   1.383   0.402 -0.12 +0.00    +0.227 C 
ATOM     10  C10 UNL     1       3.013   1.504   0.601 -0.11 +0.00    +0.157 C 
ATOM     11  C11 UNL     1       6.001   3.270  -1.555 -0.10 +0.00    +0.065 C 
ATOM     12  C12 UNL     1       7.423   2.780  -1.395 -0.07 -0.00    -0.056 A 
ATOM     13  C13 UNL     1       8.191   2.443  -2.515 -0.11 +0.00    +0.009 A 
ATOM     14  C14 UNL     1       9.498   1.972  -2.364 +0.09 +0.00    +0.030 A 
ATOM     15  C15 UNL     1      10.056   1.816  -1.092 -0.22 +0.00    +0.034 A 
ATOM     16  C16 UNL     1       9.302   2.176   0.025 -0.16 +0.00    +0.030 A 
ATOM     17  C17 UNL     1       7.994   2.649  -0.125 -0.11 +0.00    +0.009 A 
ATOM     18  C18 UNL     1      12.073   0.800   0.016 +1.46 +0.00    +0.172 C 
ATOM     19  C19 UNL     1      14.185   2.177  -0.396+99.99 +0.00    +0.180 C 
ATOM     20  C20 UNL     1      14.017   2.643  -1.851+99.99 +0.00    +0.073 C 
ATOM     21  C21 UNL     1      14.978   3.730  -2.288+99.99 -0.00    -0.056 A 
ATOM     22  C22 UNL     1      14.483   4.915  -2.857+99.99 +0.00    +0.007 A 
ATOM     23  C23 UNL     1      15.353   5.928  -3.262+99.99 +0.00    +0.001 A 
ATOM     24  C24 UNL     1      16.728   5.767  -3.113+99.99 +0.00    +0.000 A 
ATOM     25  C25 UNL     1      17.234   4.589  -2.569+99.99 +0.00    +0.001 A 
ATOM     26  C26 UNL     1      16.365   3.573  -2.165+99.99 +0.00    +0.007 A 
ATOM     27  C27 UNL     1      13.999   3.236   0.718+99.99 +0.00    +0.241 C 
ATOM     28  C28 UNL     1      12.991   5.407   1.405+13.58 +0.00    +0.180 C 
ATOM     29  C29 UNL     1      11.616   6.069   1.179 -0.24 +0.00    +0.073 C 
ATOM     30  C30 UNL     1      11.389   6.575  -0.232 -0.34 -0.00    -0.056 A 
ATOM     31  C31 UNL     1      11.958   7.780  -0.665+10.69 +0.00    +0.007 A 
ATOM     32  C32 UNL     1      11.777   8.219  -1.977+15.01 +0.00    +0.001 A 
ATOM     33  C33 UNL     1      11.019   7.463  -2.869 -0.32 +0.00    +0.000 A 
ATOM     34  C34 UNL     1      10.434   6.272  -2.447 -0.26 +0.00    +0.001 A 
ATOM     35  C35 UNL     1      10.617   5.831  -1.137 -0.27 +0.00    +0.007 A 
ATOM     36  C36 UNL     1      14.097   6.487   1.471+99.99 +0.00    +0.240 C 
ATOM     37  C37 UNL     1      16.226   7.277   0.479+10.38 +0.00    +0.122 C 
ATOM     38  C38 UNL     1      15.835   8.534  -0.296 -0.44 +0.00    +0.020 C 
ATOM     39  C39 UNL     1      17.023   9.436  -0.639 -0.11 +0.00    +0.004 C 
ATOM     40  C40 UNL     1      17.734   9.997   0.598 -0.53 +0.00    +0.036 C 
ATOM     41  C41 UNL     1      18.854  10.981   0.229 -0.45 +0.00    +0.182 C 
ATOM     42  C42 UNL     1      18.277  12.380  -0.023 +3.02 +0.00    +0.163 C 
ATOM     43  C43 UNL     1      20.834  10.102   1.445 -0.34 +0.00    +0.218 C 
ATOM     44  C44 UNL     1      21.790  10.411   2.582 +0.23 +0.00    +0.103 C 
ATOM     45  C45 UNL     1      22.829   9.308   2.775 -0.55 +0.00    +0.009 C 
ATOM     46  C46 UNL     1      23.747   9.543   3.977 -0.70 +0.00    +0.000 C 
ATOM     47  C47 UNL     1      24.596  10.819   3.923 +0.31 +0.00    +0.000 C 
ATOM     48  C48 UNL     1      25.484  10.981   2.682 +1.64 +0.00    +0.009 C 
ATOM     49  C49 UNL     1      26.478   9.845   2.446 +1.31 +0.00    +0.103 C 
ATOM     50  C50 UNL     1      27.592   9.784   3.476 +8.33 +0.00    +0.217 C 
ATOM     51  C51 UNL     1      29.521   8.382   4.184+45.46 +0.00    +0.122 C 
ATOM     52  C52 UNL     1      30.797   8.177   3.368+68.17 +0.00    +0.020 C 
ATOM     53  C53 UNL     1      31.182   9.304   2.399 +5.77 +0.00    +0.004 C 
ATOM     54  C54 UNL     1      31.890  10.512   3.027+11.81 +0.00    +0.036 C 
ATOM     55  C55 UNL     1      30.986  11.526   3.741+99.99 +0.00    +0.184 C 
ATOM     56  C56 UNL     1      30.197  12.380   2.735+99.99 +0.00    +0.163 C 
ATOM     57  C57 UNL     1      32.235  11.992   5.820 -0.17 +0.00    +0.317 C 
ATOM     58  C58 UNL     1      33.228  12.778   7.914+99.99+99.99    +0.184 C 
ATOM     59  C59 UNL     1      34.385  13.720   8.262+99.99+99.99    +0.046 C 
ATOM     60  C60 UNL     1      35.147  13.285   9.516+99.99+99.99    +0.112 C 
ATOM     61  C61 UNL     1      36.323  14.187   9.776+99.99+99.99    +0.139 C 
ATOM     62  C62 UNL     1      32.044  13.017   8.863 -0.11 +0.00    +0.163 C 
ATOM     63  C63 UNL     1       1.210   2.402  -2.517+99.99+99.99    +0.381 C 
ATOM     64  C64 UNL     1       0.240   1.231  -2.366+99.99+99.99    +0.169 C 
ATOM     65  N1  UNL     1       2.566   1.870  -2.754 -0.02 +0.00    +0.102 N 
ATOM     66  N2  UNL     1       4.817   1.077  -0.992 -0.05 -0.00    -0.395 N 
ATOM     67  N3  UNL     1       3.843  -0.698  -3.119 +0.08 +0.00    +0.101 N 
ATOM     68  N4  UNL     1      11.398   1.388  -1.017 -0.17 -0.00    -0.333 N 
ATOM     69  N5  UNL     1      13.431   0.971   0.006+21.48 -0.00    -0.353 N 
ATOM     70  N6  UNL     1      13.249   4.346   0.421+32.53 -0.00    -0.346 N 
ATOM     71  N7  UNL     1      15.126   6.342   0.568+99.99 -0.00    -0.359 N 
ATOM     72  N8  UNL     1      19.847  11.048   1.303 -0.24 -0.00    -0.347 N 
ATOM     73  N9  UNL     1      28.377   8.659   3.339 +4.50 -0.00    -0.361 N 
ATOM     74  N10 UNL     1      31.785  12.410   4.599 +1.34 -0.00    -0.329 N 
ATOM     75  N11 UNL     1      32.814  13.014   6.527+99.99+99.99    -0.329 N 
ATOM     76  O1  UNL     1       0.880  -1.704  -2.111+99.99+99.99    -0.649 OA
ATOM     77  O2  UNL     1       1.045  -1.427  -4.323+99.99+99.99    -0.775 OA
ATOM     78  O3  UNL     1       2.400   2.548   0.777 -0.00 -0.00    -0.649 OA
ATOM     79  O4  UNL     1       2.373   0.319   0.511 +0.03 -0.00    -0.775 OA
ATOM     80  O5  UNL     1      14.441   3.034   1.850+99.99 -0.00    -0.271 OA
ATOM     81  O6  UNL     1      14.039   7.429   2.262 +0.57 -0.00    -0.271 OA
ATOM     82  O7  UNL     1      17.462  12.692  -0.877+99.99 -0.00    -0.648 OA
ATOM     83  O8  UNL     1      18.743  13.323   0.832 +0.05 -0.00    -0.775 OA
ATOM     84  O9  UNL     1      20.925   9.118   0.720 +1.38 -0.00    -0.274 OA
ATOM     85  O10 UNL     1      27.791  10.655   4.314+38.34 -0.00    -0.274 OA
ATOM     86  O11 UNL     1      29.514  11.987   1.803+99.99 -0.00    -0.648 OA
ATOM     87  O12 UNL     1      30.298  13.714   2.968 +1.04 -0.00    -0.775 OA
ATOM     88  O13 UNL     1      32.169  10.836   6.216 +1.28 -0.00    -0.247 OA
ATOM     89  O14 UNL     1      36.569  15.254   9.241+99.99+99.99    -0.650 OA
ATOM     90  O15 UNL     1      37.132  13.696  10.735+99.99+99.99    -0.776 OA
ATOM     91  O16 UNL     1      32.011  12.752  10.055 -0.02 -0.00    -0.648 OA
ATOM     92  O17 UNL     1      31.002  13.663   8.290 +0.10 -0.00    -0.775 OA
ATOM     93  O18 UNL     1      -0.414   0.715  -3.265+99.99+99.99    -0.649 OA
ATOM     94  O19 UNL     1       0.284   0.663  -1.133+99.99+99.99    -0.775 OA
ATOM     95  S1  UNL     1      11.441  -0.170   1.220+30.93 -0.00    -0.041 SA
ATOM     96  H75 UNL     1      11.853   1.242  -1.909 +0.10 +0.00    +0.168 HD
ATOM     97  H76 UNL     1      13.833   0.532   0.832 -0.28 +0.00    +0.162 HD
ATOM     98  H77 UNL     1      12.973   4.541  -0.531 +0.34 +0.00    +0.163 HD
ATOM     99  H78 UNL     1      15.085   5.580  -0.095 +4.79 +0.00    +0.162 HD
ATOM    100  H79 UNL     1      19.876  11.906   1.846 +0.13 +0.00    +0.163 HD
ATOM    101  H80 UNL     1      28.115   7.962   2.653 -0.04 +0.00    +0.162 HD
ATOM    102  H81 UNL     1      31.621  13.399   4.465 +0.07 +0.00    +0.165 HD
ATOM    103  H82 UNL     1      32.373  13.910   6.374 +0.07 +0.00    +0.165 HD
ATOM    104  H83 UNL     1       0.173  -1.014  -4.113+99.99+99.99    +0.167 HD
ATOM    105  H84 UNL     1       1.457   0.570   0.250+99.99+99.99    +0.167 HD
ATOM    106  H85 UNL     1      18.277  14.140   0.547 -0.23 +0.00    +0.167 HD
ATOM    107  H86 UNL     1      29.712  14.098   2.280 +0.11 +0.00    +0.167 HD
ATOM    108  H87 UNL     1      37.840  14.368  10.822+99.99+99.99    +0.167 HD
ATOM    109  H88 UNL     1      30.333  13.707   9.006 +0.09 +0.00    +0.167 HD
ATOM    110  H89 UNL     1       0.048  -0.282  -1.317+99.99+99.99    +0.167 HD
ENDROOT
TORSDOF 52
TER
