USER    Run = 1
USER    DPF = ligand_425_receptor.dpf
USER  
USER    Estimated Free Energy of Binding    =  +2.76e+005 kcal/mol  [=(1)+(2)+(3)-(4)]
USER    
USER    (1) Final Intermolecular Energy     =  +2.76e+005 kcal/mol
USER        vdW + Hbond + desolv Energy     =  +2.76e+005 kcal/mol
USER        Electrostatic Energy            =   +0.00 kcal/mol
USER    (2) Final Total Internal Energy     =   +0.00 kcal/mol
USER    (3) Torsional Free Energy           =   +1.19 kcal/mol
USER    (4) Unbound System's Energy  [=(2)] =   +0.00 kcal/mol
USER    
USER    
USER    NEWDPF move ligand_425.pdbqt
USER    NEWDPF about 0.000000 0.000000 0.000000
USER    NEWDPF tran0 14.326369 6.434115 3.546933
USER    NEWDPF quaternion0 -0.309672 -0.072793 -0.070606 -0.945420
USER    NEWDPF axisangle0 -0.950340 -0.223392 -0.216681 -38.034614
USER    NEWDPF quat0 -0.950340 -0.223392 -0.216681 -38.034614
USER  keepresnum = 1 
USER  
REMARK  0 active torsions:
REMARK  status: ('A' for Active; 'I' for Inactive)
REMARK       I    between atoms: C2_2  and  C3_3 
REMARK       I    between atoms: C3_3  and  C5_5 
REMARK       I    between atoms: C5_5  and  C62_62 
REMARK       I    between atoms: C5_5  and  N1_78 
REMARK       I    between atoms: C6_6  and  C7_7 
REMARK       I    between atoms: C6_6  and  N1_78 
REMARK       I    between atoms: C7_7  and  C8_8 
REMARK       I    between atoms: C7_7  and  N3_80 
REMARK       I    between atoms: C8_8  and  C9_9 
REMARK       I    between atoms: C17_17  and  C18_18 
REMARK       I    between atoms: C17_17  and  N3_80 
REMARK       I    between atoms: C18_18  and  C59_59 
REMARK       I    between atoms: C18_18  and  N4_81 
REMARK       I    between atoms: C19_19  and  C20_20 
REMARK       I    between atoms: C19_19  and  N4_81 
REMARK       I    between atoms: C20_20  and  C21_21 
REMARK       I    between atoms: C20_20  and  N6_83 
REMARK       I    between atoms: C21_21  and  C22_22 
REMARK       I    between atoms: C30_30  and  C31_31 
REMARK       I    between atoms: C30_30  and  N6_83 
REMARK       I    between atoms: C31_31  and  C32_32 
REMARK       I    between atoms: C31_31  and  N8_85 
REMARK       I    between atoms: C32_32  and  C33_33 
REMARK       I    between atoms: C41_41  and  C42_42 
REMARK       I    between atoms: C41_41  and  N8_85 
REMARK       I    between atoms: C42_42  and  C43_43 
REMARK       I    between atoms: C42_42  and  N12_90 
REMARK       I    between atoms: C43_43  and  C44_44 
REMARK       I    between atoms: C44_44  and  C45_45 
REMARK       I    between atoms: C45_45  and  N9_86 
REMARK       I    between atoms: C46_46  and  N9_86 
REMARK       I    between atoms: C46_46  and  N10_87 
REMARK       I    between atoms: C46_46  and  N11_89 
REMARK       I    between atoms: C47_47  and  C48_48 
REMARK       I    between atoms: C47_47  and  N12_90 
REMARK       I    between atoms: C48_48  and  C49_49 
REMARK       I    between atoms: C48_48  and  N14_92 
REMARK       I    between atoms: C49_49  and  C50_50 
REMARK       I    between atoms: C50_50  and  C51_51 
REMARK       I    between atoms: C51_51  and  C52_52 
REMARK       I    between atoms: C52_52  and  N13_91 
REMARK       I    between atoms: C53_53  and  C54_54 
REMARK       I    between atoms: C53_53  and  N14_92 
REMARK       I    between atoms: C54_54  and  C55_55 
REMARK       I    between atoms: C54_54  and  N15_93 
REMARK       I    between atoms: C55_55  and  C56_56 
REMARK       I    between atoms: C56_56  and  C57_57 
REMARK       I    between atoms: C57_57  and  C58_58 
REMARK       I    between atoms: C58_58  and  N16_94 
REMARK       I    between atoms: C62_62  and  N17_95 
REMARK       I    between atoms: C63_63  and  C64_64 
REMARK       I    between atoms: C63_63  and  C68_68 
REMARK       I    between atoms: C63_63  and  N17_95 
REMARK       I    between atoms: C64_64  and  C65_65 
REMARK       I    between atoms: C65_65  and  C66_66 
REMARK       I    between atoms: C66_66  and  N18_96 
REMARK       I    between atoms: C67_67  and  N18_96 
REMARK       I    between atoms: C67_67  and  N20_99 
REMARK       I    between atoms: C68_68  and  N21_100 
REMARK       I    between atoms: C69_69  and  C70_70 
REMARK       I    between atoms: C69_69  and  C77_77 
REMARK       I    between atoms: C69_69  and  N21_100 
REMARK       I    between atoms: C70_70  and  C71_71 
REMARK       I    between atoms: C74_74  and  O10_110 
REMARK       I    between atoms: C77_77  and  O12_112 
USER                              x       y       z     vdW  Elec       q    Type
USER                           _______ _______ _______ _____ _____    ______ ____
ROOT
ATOM      1  C1  UNL     1       7.512   9.143   8.616+19.53 +0.00    +0.005 C 
ATOM      2  C2  UNL     1       7.434   7.793   9.320+21.78 +0.00    +0.002 C 
ATOM      3  C3  UNL     1       6.601   6.741   8.551 +9.34 +0.00    +0.013 C 
ATOM      4  C4  UNL     1       5.947   5.796   9.574+99.99 +0.00    +0.012 C 
ATOM      5  C5  UNL     1       7.435   5.908   7.547 -0.03 +0.00    +0.180 C 
ATOM      6  C6  UNL     1       9.578   6.839   6.674 +3.65 +0.00    +0.241 C 
ATOM      7  C7  UNL     1      10.204   7.688   5.555 +0.77 +0.00    +0.181 C 
ATOM      8  C8  UNL     1      10.220   6.900   4.224 -0.34 +0.00    +0.075 C 
ATOM      9  C9  UNL     1      11.554   6.326   3.835 -0.30 -0.00    -0.028 A 
ATOM     10  C10 UNL     1      12.363   6.817   2.828 -0.30 +0.00    +0.096 A 
ATOM     11  C11 UNL     1      13.487   5.122   3.778+99.99 +0.00    +0.042 A 
ATOM     12  C12 UNL     1      14.451   4.169   4.123+99.99 +0.00    +0.030 A 
ATOM     13  C13 UNL     1      14.147   3.281   5.157+86.52 +0.00    +0.002 A 
ATOM     14  C14 UNL     1      12.922   3.345   5.814 +2.22 +0.00    +0.001 A 
ATOM     15  C15 UNL     1      11.969   4.307   5.458 -0.34 +0.00    +0.014 A 
ATOM     16  C16 UNL     1      12.252   5.221   4.421 +1.95 -0.00    -0.002 A 
ATOM     17  C17 UNL     1      12.171   9.162   5.350+19.42 +0.00    +0.241 C 
ATOM     18  C18 UNL     1      13.660   9.319   5.729 +2.50 +0.00    +0.180 C 
ATOM     19  C19 UNL     1      15.305   9.154   3.878 -0.16 +0.00    +0.241 C 
ATOM     20  C20 UNL     1      15.704   9.737   2.498 -0.27 +0.00    +0.181 C 
ATOM     21  C21 UNL     1      14.526   9.860   1.509+99.99 +0.00    +0.075 C 
ATOM     22  C22 UNL     1      14.556  11.157   0.750 +6.87 -0.00    -0.028 A 
ATOM     23  C23 UNL     1      13.750  12.254   0.979 +7.10 +0.00    +0.096 A 
ATOM     24  C24 UNL     1      15.103  12.795  -0.738+11.10 +0.00    +0.042 A 
ATOM     25  C25 UNL     1      15.762  13.450  -1.785+99.99 +0.00    +0.030 A 
ATOM     26  C26 UNL     1      16.776  12.754  -2.452+99.99 +0.00    +0.002 A 
ATOM     27  C27 UNL     1      17.109  11.453  -2.087+99.99 +0.00    +0.001 A 
ATOM     28  C28 UNL     1      16.434  10.811  -1.043+99.99 +0.00    +0.014 A 
ATOM     29  C29 UNL     1      15.415  11.492  -0.347+22.24 -0.00    -0.002 A 
ATOM     30  C30 UNL     1      16.776   7.712   1.503 +0.73 +0.00    +0.241 C 
ATOM     31  C31 UNL     1      18.155   7.042   1.336+79.38 +0.00    +0.181 C 
ATOM     32  C32 UNL     1      18.132   6.002   0.212+99.99 +0.00    +0.075 C 
ATOM     33  C33 UNL     1      18.031   6.626  -1.146+99.99 -0.00    -0.028 A 
ATOM     34  C34 UNL     1      16.891   6.711  -1.920 +8.24 +0.00    +0.096 A 
ATOM     35  C35 UNL     1      18.534   7.714  -3.082 +7.93 +0.00    +0.042 A 
ATOM     36  C36 UNL     1      19.286   8.392  -4.050+99.99 +0.00    +0.030 A 
ATOM     37  C37 UNL     1      20.638   8.622  -3.775+99.99 +0.00    +0.002 A 
ATOM     38  C38 UNL     1      21.211   8.191  -2.581+99.99 +0.00    +0.001 A 
ATOM     39  C39 UNL     1      20.446   7.511  -1.627+15.70 +0.00    +0.014 A 
ATOM     40  C40 UNL     1      19.081   7.264  -1.881+99.99 -0.00    -0.002 A 
ATOM     41  C41 UNL     1      18.872   7.185   3.695 +1.77 +0.00    +0.241 C 
ATOM     42  C42 UNL     1      18.863   6.427   5.044+99.99 +0.00    +0.176 C 
ATOM     43  C43 UNL     1      19.267   7.307   6.235+99.99 +0.00    +0.036 C 
ATOM     44  C44 UNL     1      20.746   7.707   6.279+99.99 +0.00    +0.022 C 
ATOM     45  C45 UNL     1      21.020   8.657   7.446 +3.98 +0.00    +0.122 C 
ATOM     46  C46 UNL     1      22.902   9.892   8.380+32.00 +0.00    +0.143 C 
ATOM     47  C47 UNL     1      19.229   4.055   4.392+99.99 +0.00    +0.241 C 
ATOM     48  C48 UNL     1      20.310   2.986   4.157+19.05 +0.00    +0.176 C 
ATOM     49  C49 UNL     1      20.941   2.529   5.483+99.99 +0.00    +0.035 C 
ATOM     50  C50 UNL     1      19.934   1.794   6.377+99.99 +0.00    +0.004 C 
ATOM     51  C51 UNL     1      20.556   1.252   7.668+99.99 +0.00    +0.030 C 
ATOM     52  C52 UNL     1      20.964   2.353   8.646+99.99 +0.00    +0.267 C 
ATOM     53  C53 UNL     1      22.215   2.821   2.581 -0.08 +0.00    +0.251 C 
ATOM     54  C54 UNL     1      22.974   3.612   1.495 +0.36 +0.00    +0.308 C 
ATOM     55  C55 UNL     1      24.079   4.481   2.111 +2.21 +0.00    +0.045 C 
ATOM     56  C56 UNL     1      25.168   3.700   2.859+99.99 +0.00    +0.004 C 
ATOM     57  C57 UNL     1      25.902   2.628   2.046+99.99 +0.00    +0.030 C 
ATOM     58  C58 UNL     1      26.618   3.186   0.816+99.99 +0.00    +0.267 C 
ATOM     59  C59 UNL     1      13.898  10.211   6.964 +3.71 +0.00    +0.009 C 
ATOM     60  C60 UNL     1      13.261  11.600   6.843+65.68 +0.00    +0.012 C 
ATOM     61  C61 UNL     1      13.436   9.537   8.257 -0.39 +0.00    +0.012 C 
ATOM     62  C62 UNL     1       6.556   5.064   6.598 -0.34 +0.00    +0.241 C 
ATOM     63  C63 UNL     1       6.755   3.624   4.568 -0.19 +0.00    +0.176 C 
ATOM     64  C64 UNL     1       5.529   2.723   4.773 +0.42 +0.00    +0.036 C 
ATOM     65  C65 UNL     1       4.942   2.113   3.493 -0.29 +0.00    +0.022 C 
ATOM     66  C66 UNL     1       5.950   1.331   2.651 -0.26 +0.00    +0.122 C 
ATOM     67  C67 UNL     1       4.749   1.104   0.521 -0.10 +0.00    +0.143 C 
ATOM     68  C68 UNL     1       6.588   4.771   3.548 -0.11 +0.00    +0.241 C 
ATOM     69  C69 UNL     1       5.169   6.677   2.837 -0.14 +0.00    +0.186 C 
ATOM     70  C70 UNL     1       3.656   6.766   2.573 +0.81 +0.00    +0.074 C 
ATOM     71  C71 UNL     1       3.334   7.191   1.159+99.99 -0.00    -0.056 A 
ATOM     72  C72 UNL     1       2.953   8.509   0.875+99.99 +0.00    +0.010 A 
ATOM     73  C73 UNL     1       2.672   8.892  -0.438+99.99 +0.00    +0.037 A 
ATOM     74  C74 UNL     1       2.776   7.964  -1.466+99.99 +0.00    +0.065 A 
ATOM     75  C75 UNL     1       3.159   6.652  -1.204+60.25 +0.00    +0.037 A 
ATOM     76  C76 UNL     1       3.437   6.267   0.108+95.56 +0.00    +0.010 A 
ATOM     77  C77 UNL     1       5.672   7.999   3.436+99.99 +0.00    +0.163 C 
ATOM     78  N1  UNL     1       8.207   6.734   6.617+53.11 -0.00    -0.346 N 
ATOM     79  N2  UNL     1      13.529   6.104   2.816 +3.66 -0.00    -0.365 N 
ATOM     80  N3  UNL     1      11.512   8.150   6.006 -0.18 -0.00    -0.346 N 
ATOM     81  N4  UNL     1      14.327   9.863   4.545+18.43 -0.00    -0.346 N 
ATOM     82  N5  UNL     1      14.086  13.230   0.078+59.28 -0.00    -0.365 N 
ATOM     83  N6  UNL     1      16.864   9.011   1.974 -0.21 -0.00    -0.346 N 
ATOM     84  N7  UNL     1      17.204   7.367  -3.079 -0.32 -0.00    -0.365 N 
ATOM     85  N8  UNL     1      18.447   6.414   2.625 +5.57 -0.00    -0.346 N 
ATOM     86  N9  UNL     1      22.436   8.999   7.477 +7.96 -0.00    -0.367 N 
ATOM     87  N10 UNL     1      22.177  10.582   9.178 -0.28 -0.00    -0.376 N 
ATOM     88  H10 UNL     1      21.159  10.554   9.217 +0.12 +0.00    +0.158 HD
ATOM     89  N11 UNL     1      24.246   9.976   8.334+99.99 -0.00    -0.274 NA
ATOM     90  N12 UNL     1      19.705   5.234   4.933+99.99 -0.00    -0.346 N 
ATOM     91  N13 UNL     1      21.487   1.770   9.875+21.42 +0.00    +0.078 N 
ATOM     92  N14 UNL     1      21.295   3.595   3.262 +2.71 -0.00    -0.346 N 
ATOM     93  N15 UNL     1      22.002   4.495   0.793 +9.23 +0.00    +0.092 N 
ATOM     94  N16 UNL     1      27.362   2.138   0.125+99.99 +0.00    +0.078 N 
ATOM     95  N17 UNL     1       7.291   4.200   5.803 -0.15 -0.00    -0.346 N 
ATOM     96  N18 UNL     1       5.272   0.538   1.634 +0.98 -0.00    -0.367 N 
ATOM     97  N19 UNL     1       4.642   2.360   0.297 -0.02 -0.00    -0.376 N 
ATOM     98  H19 UNL     1       4.916   3.099   0.945 +0.05 +0.00    +0.158 HD
ATOM     99  N20 UNL     1       4.330   0.161  -0.348 +0.86 -0.00    -0.274 NA
ATOM    100  N21 UNL     1       5.446   5.521   3.693 -0.05 -0.00    -0.345 N 
ATOM    101  O1  UNL     1      10.245   6.275   7.540 +0.69 -0.00    -0.271 OA
ATOM    102  O2  UNL     1      11.617   9.904   4.539+99.99 -0.00    -0.271 OA
ATOM    103  O3  UNL     1      15.866   8.180   4.382 -0.44 -0.00    -0.271 OA
ATOM    104  O4  UNL     1      15.716   7.105   1.366+99.99 -0.00    -0.271 OA
ATOM    105  O5  UNL     1      19.172   8.370   3.568 -0.37 -0.00    -0.271 OA
ATOM    106  O6  UNL     1      18.049   3.885   4.096+65.37 -0.00    -0.271 OA
ATOM    107  O7  UNL     1      22.435   1.640   2.819 +1.11 -0.00    -0.271 OA
ATOM    108  O8  UNL     1       5.346   5.231   6.464 -0.27 -0.00    -0.271 OA
ATOM    109  O9  UNL     1       7.473   5.052   2.743 -0.08 -0.00    -0.271 OA
ATOM    110  O10 UNL     1       2.497   8.383  -2.733 -0.21 -0.00    -0.361 OA
ATOM    111  O11 UNL     1       5.445   9.120   3.004 +9.53 -0.00    -0.648 OA
ATOM    112  O12 UNL     1       6.447   7.896   4.544+99.99 -0.00    -0.775 OA
ATOM    113  H82 UNL     1       7.697   7.151   5.838+11.16 +0.00    +0.163 HD
ATOM    114  H83 UNL     1      14.324   6.290   2.208+20.68 +0.00    +0.165 HD
ATOM    115  H84 UNL     1      12.069   7.450   6.489 +0.12 +0.00    +0.163 HD
ATOM    116  H85 UNL     1      13.790  10.557   4.035+99.99 +0.00    +0.163 HD
ATOM    117  H86 UNL     1      13.651  14.140   0.016+76.68 +0.00    +0.165 HD
ATOM    118  H87 UNL     1      17.744   9.221   2.448 +0.13 +0.00    +0.163 HD
ATOM    119  H88 UNL     1      16.552   7.580  -3.822 +0.06 +0.00    +0.165 HD
ATOM    120  H89 UNL     1      17.869   5.612   2.884 +0.10 +0.00    +0.163 HD
ATOM    121  H90 UNL     1      23.043   8.193   7.397 +3.05 +0.00    +0.162 HD
ATOM    122  H91 UNL     1      22.770  11.165   9.769 +0.09 +0.00    +0.158 HD
ATOM    123  H92 UNL     1      24.596   9.912   7.384+99.99 +0.00    +0.127 HD
ATOM    124  H93 UNL     1      24.627  10.793   8.794 +0.09 +0.00    +0.127 HD
ATOM    125  H94 UNL     1      20.704   5.378   4.836 +1.06 +0.00    +0.163 HD
ATOM    126  H95 UNL     1      20.772   1.187  10.310 +0.47 +0.00    +0.312 HD
ATOM    127  H96 UNL     1      21.693   2.512  10.544 +1.42 +0.00    +0.312 HD
ATOM    128  H97 UNL     1      21.003   4.393   2.695+42.04 +0.00    +0.163 HD
ATOM    129  H98 UNL     1      21.357   3.896   0.271 +1.86 +0.00    +0.313 HD
ATOM    130  H99 UNL     1      22.507   5.015   0.073 +0.29 +0.00    +0.313 HD
ATOM    131  HA0 UNL     1      26.733   1.373  -0.118+99.99 +0.00    +0.312 HD
ATOM    132  HA1 UNL     1      28.052   1.734   0.759 +0.20 +0.00    +0.312 HD
ATOM    133  HA2 UNL     1       8.295   4.346   5.814 +0.09 +0.00    +0.163 HD
ATOM    134  HA3 UNL     1       5.777  -0.312   1.416 +7.13 +0.00    +0.162 HD
ATOM    135  HA4 UNL     1       4.242   2.508  -0.629 +0.04 +0.00    +0.158 HD
ATOM    136  HA5 UNL     1       3.920  -0.638   0.123 +1.42 +0.00    +0.127 HD
ATOM    137  HA6 UNL     1       3.712   0.502  -1.072 +0.01 +0.00    +0.127 HD
ATOM    138  HA7 UNL     1       4.999   5.490   4.611 +0.07 +0.00    +0.163 HD
ATOM    139  HA8 UNL     1       2.653   7.642  -3.341 -0.37 +0.00    +0.217 HD
ATOM    140  HA9 UNL     1       6.613   8.850   4.720+99.99 +0.00    +0.167 HD
ENDROOT
TORSDOF 51
TER
