USER    Run = 1
USER    DPF = ligand_42_receptor.dpf
USER  
USER    Estimated Free Energy of Binding    =   -4.14 kcal/mol  [=(1)+(2)+(3)-(4)]
USER    Estimated Inhibition Constant, Ki   =  927.94 uM (micromolar)  [Temperature = 298.15 K]
USER    
USER    (1) Final Intermolecular Energy     =   -5.33 kcal/mol
USER        vdW + Hbond + desolv Energy     =   -5.33 kcal/mol
USER        Electrostatic Energy            =   +0.00 kcal/mol
USER    (2) Final Total Internal Energy     =   +1.49 kcal/mol
USER    (3) Torsional Free Energy           =   +1.19 kcal/mol
USER    (4) Unbound System's Energy  [=(2)] =   +1.49 kcal/mol
USER    
USER    
USER    NEWDPF move ligand_42.pdbqt
USER    NEWDPF about 0.000000 0.000000 0.000000
USER    NEWDPF tran0 9.697230 8.356173 -0.270788
USER    NEWDPF quaternion0 -0.490631 -0.620269 0.578433 0.199908
USER    NEWDPF axisangle0 -0.500739 -0.633047 0.590349 156.936861
USER    NEWDPF quat0 -0.500739 -0.633047 0.590349 156.936861
USER    NEWDPF dihe0 -180.00 125.98 180.00 -146.64 -3.03 36.92 11.21 -152.76 23.68 -167.47 -171.75 -95.18 -35.19 85.10 -64.50 -129.15 17.19 -48.64 53.01 -152.09 -138.53 
USER  keepresnum = 1 
USER  
REMARK  21 active torsions:
REMARK  status: ('A' for Active; 'I' for Inactive)
REMARK    1  A    between atoms: C2_2  and  C4_4 
REMARK    2  A    between atoms: C6_6  and  C20_20 
REMARK    3  A    between atoms: C8_8  and  C18_18 
REMARK    4  A    between atoms: C12_12  and  C14_14 
REMARK    5  A    between atoms: C14_14  and  C15_15 
REMARK    6  A    between atoms: C15_15  and  C16_16 
REMARK    7  A    between atoms: C16_16  and  C17_17 
REMARK    8  A    between atoms: C17_17  and  N6_57 
REMARK    9  A    between atoms: C18_18  and  C19_19 
REMARK   10  A    between atoms: C19_19  and  O7_49 
REMARK   11  A    between atoms: C20_20  and  C21_21 
REMARK   12  A    between atoms: C24_24  and  O8_50 
REMARK   13  A    between atoms: C27_27  and  C28_28 
REMARK   14  A    between atoms: C27_27  and  O8_50 
REMARK   15  A    between atoms: C28_28  and  C29_29 
REMARK   16  A    between atoms: C29_29  and  N7_58 
REMARK   17  A    between atoms: C30_30  and  C31_31 
REMARK       I    between atoms: C30_30  and  N7_58 
REMARK   18  A    between atoms: C33_33  and  N9_61 
REMARK   19  A    between atoms: C36_36  and  C37_37 
REMARK   20  A    between atoms: C42_42  and  S1_64 
REMARK   21  A    between atoms: N9_61  and  N10_62 
USER                              x       y       z     vdW  Elec       q    Type
USER                           _______ _______ _______ _____ _____    ______ ____
ROOT
ATOM      1  C4  UNL     1      14.059   7.446   3.727 -0.38 +0.00    +0.180 C 
ATOM      2  C5  UNL     1      13.198   7.507   2.444 +0.43 +0.00    +0.241 C 
ATOM      3  C6  UNL     1      10.763   7.333   1.890 -0.09 +0.00    +0.180 C 
ATOM      4  C7  UNL     1      10.479   5.907   2.420 -0.15 +0.00    +0.241 C 
ATOM      5  C8  UNL     1       8.713   4.367   3.079 -0.16 +0.00    +0.186 C 
ATOM      6  C9  UNL     1       8.605   5.035   4.466 -0.17 +0.00    +0.241 C 
ATOM      7  C10 UNL     1       9.469   4.936   6.778 -0.29 +0.00    +0.225 C 
ATOM      8  C11 UNL     1      10.968   5.234   6.970 -0.26 +0.00    +0.236 C 
ATOM      9  C12 UNL     1      13.270   4.621   6.172 -0.39 +0.00    +0.176 C 
ATOM     10  C13 UNL     1      13.963   5.926   5.696 -0.22 +0.00    +0.241 C 
ATOM     11  O1  UNL     1      13.651   7.227   1.340 +1.09 -0.00    -0.271 OA
ATOM     12  O2  UNL     1      11.289   5.258   3.091 +0.07 -0.00    -0.271 OA
ATOM     13  O3  UNL     1       8.131   6.163   4.603 -0.13 -0.00    -0.271 OA
ATOM     14  O4  UNL     1      11.373   5.873   7.936 -0.16 -0.00    -0.272 OA
ATOM     15  O5  UNL     1      15.072   6.275   6.094 -0.15 -0.00    -0.271 OA
ATOM     16  N1  UNL     1      11.880   7.854   2.681 +0.03 -0.00    -0.346 N 
ATOM     17  N2  UNL     1       9.186   5.450   2.203 -0.04 -0.00    -0.346 N 
ATOM     18  N3  UNL     1       9.158   4.316   5.497 -0.13 -0.00    -0.351 N 
ATOM     19  N4  UNL     1      11.806   4.630   6.057 -0.18 -0.00    -0.346 N 
ATOM     20  N5  UNL     1      13.329   6.542   4.633 -0.19 -0.00    -0.346 N 
ATOM     21  H45 UNL     1      11.664   7.957   3.666 +0.09 +0.00    +0.163 HD
ATOM     22  H46 UNL     1       8.501   6.180   2.027 +0.09 +0.00    +0.163 HD
ATOM     23  H47 UNL     1       9.488   3.372   5.330 +0.07 +0.00    +0.163 HD
ATOM     24  H48 UNL     1      11.414   4.433   5.141 +0.10 +0.00    +0.163 HD
ATOM     25  H49 UNL     1      12.616   5.963   4.187 +0.10 +0.00    +0.163 HD
ENDROOT
BRANCH   3  26
ATOM     26  C20 UNL     1      10.858   7.376   0.361 +0.22 +0.00    +0.073 C 
BRANCH  26  27
ATOM     27  C21 UNL     1      10.023   6.308  -0.308 -0.24 -0.00    -0.056 A 
ATOM     28  C22 UNL     1      10.124   4.972   0.091 -0.09 +0.00    +0.010 A 
ATOM     29  C23 UNL     1       9.355   3.988  -0.535 -0.13 +0.00    +0.037 A 
ATOM     30  C24 UNL     1       8.479   4.317  -1.572 -0.11 +0.00    +0.068 A 
ATOM     31  C25 UNL     1       8.372   5.646  -1.971 +0.45 +0.00    +0.037 A 
ATOM     32  C26 UNL     1       9.138   6.636  -1.343 -0.28 +0.00    +0.010 A 
BRANCH  30  33
ATOM     33  O8  UNL     1       7.788   3.257  -2.085 -0.06 -0.00    -0.351 OA
BRANCH  33  34
ATOM     34  C27 UNL     1       7.970   2.913  -3.456 +0.10 +0.00    +0.177 C 
BRANCH  34  35
ATOM     35  C28 UNL     1       6.656   2.562  -4.150 -0.15 +0.00    +0.046 C 
BRANCH  35  36
ATOM     36  C29 UNL     1       5.661   1.896  -3.203 -0.08 +0.00    +0.125 C 
BRANCH  36  37
ATOM     37  N7  UNL     1       5.289   2.772  -2.106 -0.02 -0.00    -0.357 N 
ATOM     38  C30 UNL     1       5.113   2.293  -0.823 -0.05 +0.00    +0.253 C 
ATOM     39  O9  UNL     1       5.258   1.116  -0.516 -0.13 -0.00    -0.268 OA
ATOM     40  H52 UNL     1       5.330   3.768  -2.269 -0.01 +0.00    +0.162 HD
BRANCH  38  41
ATOM     41  C31 UNL     1       4.769   3.288   0.220 -0.09 +0.00    +0.047 A 
ATOM     42  C32 UNL     1       5.753   4.165   0.654 -0.10 +0.00    +0.106 A 
ATOM     43  N8  UNL     1       5.561   5.126   1.596 -0.06 -0.00    -0.350 N 
ATOM     44  C33 UNL     1       4.337   5.211   2.161 -0.13 +0.00    +0.119 A 
ATOM     45  H8  UNL     1       6.313   5.760   1.866 +0.07 +0.00    +0.166 HD
ATOM     46  C34 UNL     1       3.296   4.363   1.789 +0.12 +0.00    +0.051 A 
ATOM     47  C35 UNL     1       3.512   3.386   0.814 -0.09 +0.00    +0.022 A 
BRANCH  44  48
ATOM     48  N9  UNL     1       4.159   6.223   3.118 -0.13 -0.00    -0.286 N 
ATOM     49  H53 UNL     1       4.963   6.215   3.744 +0.07 +0.00    +0.188 HD
BRANCH  48  50
ATOM     50  N10 UNL     1       2.909   6.477   3.587 -0.11 -0.00    -0.309 N 
ATOM     51  C36 UNL     1       2.407   5.652   4.459 -0.12 +0.00    +0.119 C 
ATOM     52  H10 UNL     1       2.381   7.289   3.265 +0.03 +0.00    +0.186 HD
BRANCH  51  53
ATOM     53  C37 UNL     1       3.056   4.490   5.100 -0.14 -0.00    -0.003 A 
ATOM     54  C38 UNL     1       2.488   3.220   4.922 -0.12 +0.00    +0.014 A 
ATOM     55  C39 UNL     1       3.101   2.098   5.477 -0.28 +0.00    +0.001 A 
ATOM     56  C40 UNL     1       4.285   2.239   6.198 +0.20 +0.00    +0.001 A 
ATOM     57  C41 UNL     1       4.859   3.503   6.364 -0.29 +0.00    +0.019 A 
ATOM     58  C42 UNL     1       4.252   4.642   5.817 -0.27 +0.00    +0.009 A 
BRANCH  58  59
ATOM     59  S1  UNL     1       5.046   6.217   6.101 -0.13 -0.00    -0.142 SA
ATOM     60  H54 UNL     1       6.274   5.844   5.708 +0.05 +0.00    +0.107 HD
ENDBRANCH  58  59
ENDBRANCH  51  53
ENDBRANCH  48  50
ENDBRANCH  44  48
ENDBRANCH  38  41
ENDBRANCH  36  37
ENDBRANCH  35  36
ENDBRANCH  34  35
ENDBRANCH  33  34
ENDBRANCH  30  33
ENDBRANCH  26  27
ENDBRANCH   3  26
BRANCH   5  61
ATOM     61  C18 UNL     1       7.361   3.831   2.639 -0.15 +0.00    +0.144 C 
BRANCH  61  62
ATOM     62  C19 UNL     1       6.779   2.831   3.596 -0.23 +0.00    +0.141 C 
ATOM     63  O6  UNL     1       5.594   2.558   3.692 +0.01 -0.00    -0.650 OA
BRANCH  62  64
ATOM     64  O7  UNL     1       7.681   2.166   4.340 +0.76 -0.00    -0.776 OA
ATOM     65  H44 UNL     1       8.336   1.854   3.674 -0.34 +0.00    +0.167 HD
ENDBRANCH  62  64
ENDBRANCH  61  62
ENDBRANCH   5  61
BRANCH   1  66
ATOM     66  C2  UNL     1      14.422   8.815   4.343 -0.27 +0.00    +0.009 C 
ATOM     67  C1  UNL     1      13.920   8.917   5.786 +0.38 +0.00    +0.012 C 
ATOM     68  C3  UNL     1      15.906   9.187   4.280 -0.35 +0.00    +0.012 C 
ENDBRANCH   1  66
BRANCH   9  69
ATOM     69  C14 UNL     1      13.813   4.156   7.535 -0.54 +0.00    +0.035 C 
BRANCH  69  70
ATOM     70  C15 UNL     1      14.629   5.195   8.315 -0.09 +0.00    +0.004 C 
BRANCH  70  71
ATOM     71  C16 UNL     1      13.819   6.270   9.046 -0.28 +0.00    +0.030 C 
BRANCH  71  72
ATOM     72  C17 UNL     1      13.611   7.539   8.222 -0.31 +0.00    +0.267 C 
BRANCH  72  73
ATOM     73  N6  UNL     1      13.622   8.705   9.100 -0.41 +0.00    +0.078 N 
ATOM     74  H50 UNL     1      13.992   9.509   8.593 -0.11 +0.00    +0.312 HD
ATOM     75  H51 UNL     1      14.271   8.537   9.869 -0.27 +0.00    +0.312 HD
ENDBRANCH  72  73
ENDBRANCH  71  72
ENDBRANCH  70  71
ENDBRANCH  69  70
ENDBRANCH   9  69
TORSDOF 21
TER
