USER    Run = 1
USER    DPF = ligand_182_receptor.dpf
USER  
USER    Estimated Free Energy of Binding    =  +1.30e+004 kcal/mol  [=(1)+(2)+(3)-(4)]
USER    
USER    (1) Final Intermolecular Energy     =  +1.30e+004 kcal/mol
USER        vdW + Hbond + desolv Energy     =  +1.30e+004 kcal/mol
USER        Electrostatic Energy            =   +0.00 kcal/mol
USER    (2) Final Total Internal Energy     =  +51.25 kcal/mol
USER    (3) Torsional Free Energy           =   +1.19 kcal/mol
USER    (4) Unbound System's Energy  [=(2)] =  +51.25 kcal/mol
USER    
USER    
USER    NEWDPF move ligand_182.pdbqt
USER    NEWDPF about 0.000000 0.000000 0.000000
USER    NEWDPF tran0 17.362471 2.860897 7.874017
USER    NEWDPF quaternion0 0.528142 -0.295860 0.295024 0.739252
USER    NEWDPF axisangle0 0.784258 -0.439333 0.438092 84.664539
USER    NEWDPF quat0 0.784258 -0.439333 0.438092 84.664539
USER    NEWDPF dihe0 180.00 -112.67 174.02 150.19 -121.77 179.87 146.93 21.80 180.00 142.40 -169.26 -179.10 170.38 143.13 -165.45 100.96 -46.64 85.56 -180.00 55.37 1.04 24.23 -83.44 -97.04 123.78 99.66 -82.54 -45.78 77.21 67.46 -117.92 7.96 
USER  keepresnum = 1 
USER  
REMARK  32 active torsions:
REMARK  status: ('A' for Active; 'I' for Inactive)
REMARK    1  A    between atoms: C4_4  and  C5_5 
REMARK       I    between atoms: C5_5  and  N3_66 
REMARK    2  A    between atoms: C6_6  and  N3_66 
REMARK    3  A    between atoms: C8_8  and  C9_9 
REMARK       I    between atoms: C9_9  and  N6_70 
REMARK    4  A    between atoms: C10_10  and  C11_11 
REMARK    5  A    between atoms: C10_10  and  N6_70 
REMARK    6  A    between atoms: C11_11  and  C12_12 
REMARK       I    between atoms: C12_12  and  N7_71 
REMARK    7  A    between atoms: C13_13  and  N7_71 
REMARK    8  A    between atoms: C15_15  and  C16_16 
REMARK       I    between atoms: C16_16  and  N10_75 
REMARK    9  A    between atoms: C17_17  and  N10_75 
REMARK   10  A    between atoms: C19_19  and  C20_20 
REMARK       I    between atoms: C20_20  and  N13_79 
REMARK   11  A    between atoms: C21_21  and  C22_22 
REMARK   12  A    between atoms: C21_21  and  N13_79 
REMARK   13  A    between atoms: C22_22  and  C23_23 
REMARK   14  A    between atoms: C23_23  and  C24_24 
REMARK       I    between atoms: C24_24  and  N14_80 
REMARK   15  A    between atoms: C25_25  and  N14_80 
REMARK   16  A    between atoms: C27_27  and  C29_29 
REMARK       I    between atoms: C29_29  and  N16_82 
REMARK   17  A    between atoms: C30_30  and  N16_82 
REMARK   18  A    between atoms: C32_32  and  C34_34 
REMARK       I    between atoms: C34_34  and  N18_84 
REMARK   19  A    between atoms: C35_35  and  C36_36 
REMARK   20  A    between atoms: C35_35  and  N18_84 
REMARK   21  A    between atoms: C36_36  and  C37_37 
REMARK       I    between atoms: C37_37  and  N19_85 
REMARK   22  A    between atoms: C38_38  and  N19_85 
REMARK   23  A    between atoms: C40_40  and  C42_42 
REMARK       I    between atoms: C42_42  and  N21_87 
REMARK   24  A    between atoms: C43_43  and  N21_87 
REMARK   25  A    between atoms: C45_45  and  C47_47 
REMARK       I    between atoms: C47_47  and  N23_89 
REMARK   26  A    between atoms: C48_48  and  C49_49 
REMARK   27  A    between atoms: C48_48  and  N23_89 
REMARK   28  A    between atoms: C49_49  and  C50_50 
REMARK       I    between atoms: C50_50  and  N24_90 
REMARK   29  A    between atoms: C51_51  and  C52_52 
REMARK   30  A    between atoms: C51_51  and  N24_90 
REMARK   31  A    between atoms: C52_52  and  C53_53 
REMARK   32  A    between atoms: C53_53  and  N25_91 
USER                              x       y       z     vdW  Elec       q    Type
USER                           _______ _______ _______ _____ _____    ______ ____
ROOT
ATOM      1  C25 UNL     1      14.270   0.955   1.550+84.65 +0.00    +0.052 A 
ATOM      2  C26 UNL     1      14.281   0.549   0.238+11.20 +0.00    +0.120 A 
ATOM      3  C27 UNL     1      12.124   0.467   0.926 +5.95 +0.00    +0.105 A 
ATOM      4  C28 UNL     1      12.924   0.914   1.975+43.26 +0.00    +0.066 A 
ATOM      5  C59 UNL     1      12.617  -0.203  -1.457 +3.85 +0.00    +0.156 C 
ATOM      6  N15 UNL     1      12.990   0.262  -0.135 +0.92 -0.00    -0.354 N 
ENDROOT
BRANCH   1   7
ATOM      7  N14 UNL     1      15.409   1.312   2.243+37.55 -0.00    -0.326 N 
ATOM      8  C24 UNL     1      15.460   1.552   3.607+24.40 +0.00    +0.222 C 
ATOM      9  O6  UNL     1      14.507   1.539   4.378+99.99 -0.00    -0.273 OA
ATOM     10  H73 UNL     1      16.261   1.377   1.701+72.08 +0.00    +0.169 HD
BRANCH   8  11
ATOM     11  C23 UNL     1      16.873   1.867   4.069+99.99 +0.00    +0.105 C 
BRANCH  11  12
ATOM     12  C22 UNL     1      17.355   3.264   3.678+99.99 +0.00    +0.029 C 
BRANCH  12  13
ATOM     13  C21 UNL     1      18.243   3.896   4.751+99.99 +0.00    +0.123 C 
BRANCH  13  14
ATOM     14  N13 UNL     1      19.572   4.162   4.253+25.98 -0.00    -0.354 N 
ATOM     15  C20 UNL     1      19.962   3.972   2.945+99.99 +0.00    +0.285 C 
ATOM     16  O5  UNL     1      19.210   3.541   2.076+99.99 -0.00    -0.264 OA
ATOM     17  H72 UNL     1      20.304   4.486   4.882 +0.24 +0.00    +0.162 HD
BRANCH  15  18
ATOM     18  C19 UNL     1      21.354   4.339   2.725+99.99 +0.00    +0.178 A 
ATOM     19  N11 UNL     1      21.970   5.511   3.094+81.91 -0.00    -0.339 N 
ATOM     20  C18 UNL     1      23.275   5.446   2.688+99.99 +0.00    +0.140 A 
ATOM     21  C60 UNL     1      21.365   6.612   3.801+99.99 +0.00    +0.157 C 
ATOM     22  C17 UNL     1      23.403   4.219   2.090 +1.60 +0.00    +0.125 A 
ATOM     23  N12 UNL     1      22.220   3.536   2.119 +0.51 -0.00    -0.323 N 
ATOM     24  H12 UNL     1      22.040   2.602   1.750 -0.23 +0.00    +0.169 HD
BRANCH  22  25
ATOM     25  N10 UNL     1      24.492   3.635   1.510 +4.10 -0.00    -0.305 N 
ATOM     26  C16 UNL     1      24.935   3.827   0.222 +0.18 +0.00    +0.291 C 
ATOM     27  O4  UNL     1      24.416   4.564  -0.613 -0.43 -0.00    -0.264 OA
ATOM     28  H71 UNL     1      25.024   2.993   2.090+11.38 +0.00    +0.170 HD
BRANCH  26  29
ATOM     29  C15 UNL     1      26.127   3.038  -0.055+99.99 +0.00    +0.178 A 
ATOM     30  N8  UNL     1      26.778   2.180   0.800+99.99 -0.00    -0.339 N 
ATOM     31  C14 UNL     1      27.847   1.648   0.130+95.83 +0.00    +0.140 A 
ATOM     32  C61 UNL     1      26.404   1.888   2.163+99.99 +0.00    +0.157 C 
ATOM     33  C13 UNL     1      27.800   2.213  -1.122 +4.32 +0.00    +0.125 A 
ATOM     34  N9  UNL     1      26.745   3.065  -1.227 +2.27 -0.00    -0.323 N 
ATOM     35  H9  UNL     1      26.482   3.615  -2.044 +0.09 +0.00    +0.169 HD
BRANCH  33  36
ATOM     36  N7  UNL     1      28.694   1.957  -2.129 +0.01 -0.00    -0.312 N 
ATOM     37  C12 UNL     1      28.338   1.673  -3.437 -0.11 +0.00    +0.224 C 
ATOM     38  O3  UNL     1      27.203   1.612  -3.897 -0.20 -0.00    -0.273 OA
ATOM     39  H70 UNL     1      29.671   1.970  -1.877 +0.03 +0.00    +0.170 HD
BRANCH  37  40
ATOM     40  C11 UNL     1      29.566   1.453  -4.299 -0.09 +0.00    +0.123 C 
BRANCH  40  41
ATOM     41  C10 UNL     1      30.833   1.378  -3.458 -0.09 +0.00    +0.132 C 
BRANCH  41  42
ATOM     42  N6  UNL     1      30.821   2.337  -2.374 -0.02 -0.00    -0.354 N 
ATOM     43  C9  UNL     1      31.518   3.524  -2.399 +0.01 +0.00    +0.285 C 
ATOM     44  O2  UNL     1      32.251   3.848  -3.330 -0.00 -0.00    -0.264 OA
ATOM     45  H69 UNL     1      30.241   2.184  -1.549 +0.05 +0.00    +0.162 HD
BRANCH  43  46
ATOM     46  C8  UNL     1      31.299   4.328  -1.208 -0.00 +0.00    +0.178 A 
ATOM     47  N4  UNL     1      30.708   3.929  -0.034 -0.02 -0.00    -0.339 N 
ATOM     48  C7  UNL     1      30.705   4.999   0.820 -0.14 +0.00    +0.140 A 
ATOM     49  C62 UNL     1      30.188   2.617   0.256 -0.26 +0.00    +0.157 C 
ATOM     50  C6  UNL     1      31.305   6.017   0.117 -0.07 +0.00    +0.125 A 
ATOM     51  N5  UNL     1      31.667   5.599  -1.126 +0.02 -0.00    -0.323 N 
ATOM     52  H5  UNL     1      32.129   6.152  -1.848 +0.03 +0.00    +0.169 HD
BRANCH  50  53
ATOM     53  N3  UNL     1      31.511   7.280   0.597 -0.06 -0.00    -0.305 N 
ATOM     54  C5  UNL     1      30.687   7.946   1.477 -0.19 +0.00    +0.291 C 
ATOM     55  O1  UNL     1      29.649   7.519   1.972 -0.34 -0.00    -0.264 OA
ATOM     56  H68 UNL     1      32.333   7.788   0.291 +0.05 +0.00    +0.170 HD
BRANCH  54  57
ATOM     57  C4  UNL     1      31.210   9.277   1.772 +2.51 +0.00    +0.176 A 
ATOM     58  N1  UNL     1      31.476  10.280   0.870 +0.72 -0.00    -0.342 N 
ATOM     59  C1  UNL     1      31.290  10.214  -0.560 -0.28 +0.00    +0.157 C 
ATOM     60  C2  UNL     1      31.953  11.358   1.563 +1.51 +0.00    +0.109 A 
ATOM     61  C3  UNL     1      31.959  10.965   2.879 +9.29 +0.00    +0.107 A 
ATOM     62  N2  UNL     1      31.500   9.680   3.005 +3.82 -0.00    -0.346 N 
ATOM     63  H2  UNL     1      31.401   9.144   3.867 -0.14 +0.00    +0.167 HD
ENDBRANCH  54  57
ENDBRANCH  50  53
ENDBRANCH  43  46
ENDBRANCH  41  42
ENDBRANCH  40  41
ENDBRANCH  37  40
ENDBRANCH  33  36
ENDBRANCH  26  29
ENDBRANCH  22  25
ENDBRANCH  15  18
ENDBRANCH  13  14
ENDBRANCH  12  13
ENDBRANCH  11  12
ENDBRANCH   8  11
ENDBRANCH   1   7
BRANCH   3  64
ATOM     64  C29 UNL     1      10.676   0.247   0.877 +0.04 +0.00    +0.273 C 
ATOM     65  N16 UNL     1       9.934   1.385   1.132 -0.13 -0.00    -0.320 N 
ATOM     66  H74 UNL     1      10.428   2.237   1.352 -0.02 +0.00    +0.169 HD
ATOM     67  O7  UNL     1      10.194  -0.855   0.634 -0.03 -0.00    -0.266 OA
BRANCH  65  68
ATOM     68  C30 UNL     1       8.558   1.498   1.114 -0.25 +0.00    +0.053 A 
ATOM     69  C31 UNL     1       7.672   1.502   2.160 +0.04 +0.00    +0.120 A 
ATOM     70  N17 UNL     1       6.402   1.623   1.649 -0.10 -0.00    -0.354 N 
ATOM     71  C32 UNL     1       6.442   1.675   0.267 -0.12 +0.00    +0.104 A 
ATOM     72  C58 UNL     1       5.203   1.663   2.462 -0.21 +0.00    +0.156 C 
ATOM     73  C33 UNL     1       7.792   1.627  -0.068 -0.13 +0.00    +0.066 A 
BRANCH  71  74
ATOM     74  C34 UNL     1       5.280   1.764  -0.606 -0.07 +0.00    +0.268 C 
ATOM     75  N18 UNL     1       4.929   3.054  -0.935 -0.03 -0.00    -0.355 N 
ATOM     76  H75 UNL     1       5.653   3.754  -0.808 +0.03 +0.00    +0.162 HD
ATOM     77  O8  UNL     1       4.668   0.791  -1.038 -0.12 -0.00    -0.266 OA
BRANCH  75  78
ATOM     78  C35 UNL     1       3.981   3.376  -1.982 -0.11 +0.00    +0.132 C 
BRANCH  78  79
ATOM     79  C36 UNL     1       3.828   4.884  -2.164+11.64 +0.00    +0.123 C 
BRANCH  79  80
ATOM     80  C37 UNL     1       5.152   5.584  -2.432+99.99 +0.00    +0.223 C 
ATOM     81  N19 UNL     1       5.370   6.641  -1.565+99.99 -0.00    -0.326 N 
ATOM     82  H76 UNL     1       4.628   6.920  -0.936 -0.06 +0.00    +0.169 HD
ATOM     83  O9  UNL     1       5.925   5.193  -3.305+99.99 -0.00    -0.273 OA
BRANCH  81  84
ATOM     84  C38 UNL     1       6.552   7.351  -1.460+99.99 +0.00    +0.052 A 
ATOM     85  C39 UNL     1       6.996   8.380  -2.255+18.70 +0.00    +0.120 A 
ATOM     86  N20 UNL     1       8.252   8.743  -1.838 +7.27 -0.00    -0.354 N 
ATOM     87  C40 UNL     1       8.590   8.033  -0.704 -0.19 +0.00    +0.105 A 
ATOM     88  C57 UNL     1       9.095   9.670  -2.567+31.19 +0.00    +0.156 C 
ATOM     89  C41 UNL     1       7.567   7.115  -0.502 -0.17 +0.00    +0.066 A 
BRANCH  87  90
ATOM     90  C42 UNL     1       9.803   8.165   0.086 +4.07 +0.00    +0.273 C 
ATOM     91  N21 UNL     1       9.605   7.876   1.423 +0.30 -0.00    -0.320 N 
ATOM     92  H77 UNL     1       8.698   7.530   1.701 +0.10 +0.00    +0.169 HD
ATOM     93  O10 UNL     1      10.873   8.471  -0.427+11.26 -0.00    -0.266 OA
BRANCH  91  94
ATOM     94  C43 UNL     1      10.560   7.940   2.420 +0.89 +0.00    +0.053 A 
ATOM     95  C44 UNL     1      10.388   7.828   3.776 -0.35 +0.00    +0.120 A 
ATOM     96  N22 UNL     1      11.617   7.933   4.379 -0.18 -0.00    -0.354 N 
ATOM     97  C45 UNL     1      12.604   8.134   3.430 -0.26 +0.00    +0.104 A 
ATOM     98  C56 UNL     1      11.819   7.848   5.811 -0.35 +0.00    +0.156 C 
ATOM     99  C46 UNL     1      11.947   8.133   2.202 +5.53 +0.00    +0.066 A 
BRANCH  97 100
ATOM    100  C47 UNL     1      14.020   8.291   3.730 -0.29 +0.00    +0.268 C 
ATOM    101  N23 UNL     1      14.291   8.896   4.938 -0.01 -0.00    -0.355 N 
ATOM    102  H78 UNL     1      13.544   8.922   5.623 +0.12 +0.00    +0.162 HD
ATOM    103  O11 UNL     1      14.918   7.913   2.983 -0.35 -0.00    -0.266 OA
BRANCH 101 104
ATOM    104  C48 UNL     1      15.630   8.940   5.494+41.00 +0.00    +0.132 C 
BRANCH 104 105
ATOM    105  C49 UNL     1      16.489   7.772   5.027 +0.89 +0.00    +0.122 C 
BRANCH 105 106
ATOM    106  C50 UNL     1      17.141   8.031   3.682 -0.46 +0.00    +0.219 C 
ATOM    107  N24 UNL     1      16.589   9.099   3.016 -0.21 -0.00    -0.361 N 
ATOM    108  H79 UNL     1      16.042   9.772   3.554 +0.11 +0.00    +0.162 HD
ATOM    109  O12 UNL     1      18.086   7.377   3.251 -0.53 -0.00    -0.274 OA
BRANCH 107 110
ATOM    110  C51 UNL     1      17.184   9.625   1.807 -0.45 +0.00    +0.124 C 
BRANCH 110 111
ATOM    111  C52 UNL     1      18.710   9.648   1.882 -0.41 +0.00    +0.050 C 
BRANCH 111 112
ATOM    112  C53 UNL     1      19.314  11.049   1.684 -0.37 +0.00    +0.273 C 
BRANCH 112 113
ATOM    113  N25 UNL     1      20.793  11.072   1.676 -0.29 +0.00    +0.080 N 
ATOM    114  C54 UNL     1      21.313  11.269   0.316 +0.27 +0.00    +0.309 C 
ATOM    115  C55 UNL     1      21.310   9.805   2.209 -0.25 +0.00    +0.309 C 
ENDBRANCH 112 113
ENDBRANCH 111 112
ENDBRANCH 110 111
ENDBRANCH 107 110
ENDBRANCH 105 106
ENDBRANCH 104 105
ENDBRANCH 101 104
ENDBRANCH  97 100
ENDBRANCH  91  94
ENDBRANCH  87  90
ENDBRANCH  81  84
ENDBRANCH  79  80
ENDBRANCH  78  79
ENDBRANCH  75  78
ENDBRANCH  71  74
ENDBRANCH  65  68
ENDBRANCH   3  64
TORSDOF 32
TER
