USER    Run = 1
USER    DPF = ligand_115_receptor.dpf
USER  
USER    Estimated Free Energy of Binding    =   -9.83 kcal/mol  [=(1)+(2)+(3)-(4)]
USER    Estimated Inhibition Constant, Ki   =   62.35 nM (nanomolar)  [Temperature = 298.15 K]
USER    
USER    (1) Final Intermolecular Energy     =  -11.02 kcal/mol
USER        vdW + Hbond + desolv Energy     =  -11.02 kcal/mol
USER        Electrostatic Energy            =   +0.00 kcal/mol
USER    (2) Final Total Internal Energy     =   -3.50 kcal/mol
USER    (3) Torsional Free Energy           =   +1.19 kcal/mol
USER    (4) Unbound System's Energy  [=(2)] =   -3.50 kcal/mol
USER    
USER    
USER    NEWDPF move ligand_115.pdbqt
USER    NEWDPF about 0.000000 0.000000 0.000000
USER    NEWDPF tran0 15.358715 10.569278 0.935511
USER    NEWDPF quaternion0 -0.928339 -0.199915 -0.024749 0.312425
USER    NEWDPF axisangle0 -0.977258 -0.210449 -0.026053 143.589166
USER    NEWDPF quat0 -0.977258 -0.210449 -0.026053 143.589166
USER    NEWDPF dihe0 -41.16 131.72 -118.33 172.99 -57.66 179.92 -165.73 153.36 57.67 178.21 178.21 74.42 
USER  keepresnum = 1 
USER  
REMARK  12 active torsions:
REMARK  status: ('A' for Active; 'I' for Inactive)
REMARK    1  A    between atoms: C3_3  and  C27_27 
REMARK    2  A    between atoms: C5_5  and  N2_32 
REMARK    3  A    between atoms: C6_6  and  C7_7 
REMARK       I    between atoms: C6_6  and  N2_32 
REMARK    4  A    between atoms: C9_9  and  N4_34 
REMARK    5  A    between atoms: C11_11  and  C12_12 
REMARK       I    between atoms: C11_11  and  N4_34 
REMARK    6  A    between atoms: C14_14  and  N6_36 
REMARK    7  A    between atoms: C16_16  and  C17_17 
REMARK       I    between atoms: C16_16  and  N6_36 
REMARK    8  A    between atoms: C19_19  and  N8_38 
REMARK    9  A    between atoms: C21_21  and  C22_22 
REMARK       I    between atoms: C21_21  and  N8_38 
REMARK       I    between atoms: C27_27  and  N9_39 
REMARK   10  A    between atoms: C28_28  and  C29_29 
REMARK   11  A    between atoms: C28_28  and  N9_39 
REMARK   12  A    between atoms: C29_29  and  N10_40 
REMARK       I    between atoms: C30_30  and  N11_42 
REMARK       I    between atoms: C30_30  and  N12_43 
USER                              x       y       z     vdW  Elec       q    Type
USER                           _______ _______ _______ _____ _____    ______ ____
ROOT
ATOM      1  C7  UNL     1      18.364   8.883   3.360 -0.42 +0.00    +0.109 A 
ATOM      2  C8  UNL     1      17.107   8.820   2.753 -0.53 -0.00    -0.002 A 
ATOM      3  C9  UNL     1      16.289   7.965   3.566 -0.49 +0.00    +0.059 A 
ATOM      4  C10 UNL     1      17.075   7.503   4.591 +0.60 +0.00    +0.118 A 
ATOM      5  C26 UNL     1      16.677   9.482   1.487 -0.52 +0.00    +0.053 C 
ATOM      6  N3  UNL     1      18.328   8.020   4.435 +0.05 -0.00    -0.359 N 
ATOM      7  H25 UNL     1      19.125   7.837   5.033 +0.15 +0.00    +0.165 HD
ENDROOT
BRANCH   3   8
ATOM      8  N4  UNL     1      14.956   7.673   3.339 -0.17 -0.00    -0.320 N 
ATOM      9  C11 UNL     1      13.881   8.127   4.074 -0.33 +0.00    +0.273 C 
ATOM     10  O2  UNL     1      13.946   8.794   5.103 -0.24 -0.00    -0.266 OA
ATOM     11  H26 UNL     1      14.760   7.022   2.594 -0.48 +0.00    +0.169 HD
BRANCH   9  12
ATOM     12  C12 UNL     1      12.591   7.671   3.576 -0.41 +0.00    +0.109 C 
ATOM     13  C13 UNL     1      11.379   7.352   4.199 -0.44 -0.00    -0.002 C 
ATOM     14  C14 UNL     1      10.435   7.076   3.154 -0.38 +0.00    +0.059 C 
ATOM     15  C25 UNL     1      11.159   7.253   5.671 -0.39 +0.00    +0.053 C 
ATOM     16  C15 UNL     1      11.136   7.084   1.967 -0.26 +0.00    +0.118 C 
ATOM     17  N5  UNL     1      12.431   7.415   2.233 -0.05 -0.00    -0.359 N 
ATOM     18  H27 UNL     1      13.181   7.503   1.557 -0.08 +0.00    +0.165 HD
BRANCH  14  19
ATOM     19  N6  UNL     1       9.077   6.803   3.141 -0.14 -0.00    -0.320 N 
ATOM     20  C16 UNL     1       8.213   6.817   2.063 -0.21 +0.00    +0.273 C 
ATOM     21  O3  UNL     1       8.511   7.098   0.910 -0.22 -0.00    -0.266 OA
ATOM     22  H28 UNL     1       8.694   6.550   4.039 +0.09 +0.00    +0.169 HD
BRANCH  20  23
ATOM     23  C17 UNL     1       6.850   6.437   2.419 -0.21 +0.00    +0.109 A 
ATOM     24  C18 UNL     1       6.431   5.525   3.388 -0.19 -0.00    -0.002 A 
ATOM     25  C19 UNL     1       5.002   5.523   3.386 -0.17 +0.00    +0.059 A 
ATOM     26  C24 UNL     1       7.331   4.713   4.259 -0.25 +0.00    +0.053 C 
ATOM     27  C20 UNL     1       4.598   6.427   2.434 -0.13 +0.00    +0.118 A 
ATOM     28  N7  UNL     1       5.711   6.989   1.874 -0.16 -0.00    -0.359 N 
ATOM     29  H29 UNL     1       5.691   7.739   1.197 +0.07 +0.00    +0.165 HD
BRANCH  25  30
ATOM     30  N8  UNL     1       4.194   4.755   4.205 -0.04 -0.00    -0.321 N 
ATOM     31  C21 UNL     1       4.323   3.401   4.443 -0.12 +0.00    +0.262 C 
ATOM     32  O4  UNL     1       5.185   2.663   3.973 -0.16 -0.00    -0.267 OA
ATOM     33  H30 UNL     1       3.434   5.239   4.664 +0.06 +0.00    +0.169 HD
BRANCH  31  34
ATOM     34  C22 UNL     1       3.272   2.851   5.381 -0.25 +0.00    +0.069 C 
ATOM     35  C23 UNL     1       2.718   1.662   5.103 -0.26 +0.00    +0.037 C 
ATOM     36 BR1  UNL     1       2.756   3.815   6.902 -0.57 -0.00    -0.046 Br
ENDBRANCH  31  34
ENDBRANCH  25  30
ENDBRANCH  20  23
ENDBRANCH  14  19
ENDBRANCH   9  12
ENDBRANCH   3   8
BRANCH   1  37
ATOM     37  C6  UNL     1      19.594   9.601   3.053 -0.01 +0.00    +0.273 C 
ATOM     38  N2  UNL     1      20.737   8.989   3.521 -0.07 -0.00    -0.320 N 
ATOM     39  H24 UNL     1      20.639   8.072   3.927 +0.17 +0.00    +0.169 HD
ATOM     40  O1  UNL     1      19.560  10.629   2.383 -0.30 -0.00    -0.266 OA
BRANCH  38  41
ATOM     41  C5  UNL     1      22.032   9.462   3.398 -0.35 +0.00    +0.059 A 
ATOM     42  C2  UNL     1      23.106   8.793   2.729 -0.46 -0.00    -0.002 A 
ATOM     43  C1  UNL     1      23.058   7.475   2.031 +0.30 +0.00    +0.053 C 
ATOM     44  C3  UNL     1      24.235   9.606   2.838 -0.47 +0.00    +0.108 A 
ATOM     45  N1  UNL     1      23.849  10.730   3.532 -0.02 -0.00    -0.359 N 
ATOM     46  C4  UNL     1      22.534  10.642   3.889 +0.04 +0.00    +0.118 A 
ATOM     47  H23 UNL     1      24.449  11.523   3.719 +0.10 +0.00    +0.165 HD
BRANCH  44  48
ATOM     48  C27 UNL     1      25.569   9.387   2.305 -0.40 +0.00    +0.268 C 
ATOM     49  N9  UNL     1      25.591   8.726   1.097 -0.14 -0.00    -0.354 N 
ATOM     50  H31 UNL     1      24.772   8.793   0.507 +0.13 +0.00    +0.162 HD
ATOM     51  O5  UNL     1      26.594   9.766   2.863 -0.34 -0.00    -0.266 OA
BRANCH  49  52
ATOM     52  C28 UNL     1      26.826   8.593   0.346 -0.15 +0.00    +0.142 C 
BRANCH  52  53
ATOM     53  C29 UNL     1      27.275   7.131   0.298 -0.31 +0.00    +0.141 C 
BRANCH  53  54
ATOM     54  N10 UNL     1      28.703   7.063   0.633 -0.10 -0.00    -0.370 N 
ATOM     55  C30 UNL     1      29.060   7.440   1.801 -0.36 +0.00    +0.121 C 
ATOM     56  N11 UNL     1      30.361   7.391   2.160 -0.26 -0.00    -0.279 NA
ATOM     57  N12 UNL     1      28.318   7.907   2.829 -0.22 -0.00    -0.279 NA
ATOM     58  H32 UNL     1      30.906   6.902   1.458 +0.05 +0.00    +0.126 HD
ATOM     59  H33 UNL     1      30.499   6.977   3.074 -0.27 +0.00    +0.126 HD
ATOM     60  H34 UNL     1      28.798   8.633   3.349 -0.41 +0.00    +0.126 HD
ATOM     61  H35 UNL     1      27.385   8.206   2.576 -0.02 +0.00    +0.126 HD
ATOM     62  H10 UNL     1      29.388   6.727  -0.044 +0.08 +0.00    +0.161 HD
ENDBRANCH  53  54
ENDBRANCH  52  53
ENDBRANCH  49  52
ENDBRANCH  44  48
ENDBRANCH  38  41
ENDBRANCH   1  37
TORSDOF 12
TER
