USER    Run = 1
USER    DPF = ligand_361_receptor.dpf
USER  
USER    Estimated Free Energy of Binding    =  +4.45e+003 kcal/mol  [=(1)+(2)+(3)-(4)]
USER    
USER    (1) Final Intermolecular Energy     =  +4.45e+003 kcal/mol
USER        vdW + Hbond + desolv Energy     =  +4.45e+003 kcal/mol
USER        Electrostatic Energy            =   +0.00 kcal/mol
USER    (2) Final Total Internal Energy     =   +0.00 kcal/mol
USER    (3) Torsional Free Energy           =   +1.19 kcal/mol
USER    (4) Unbound System's Energy  [=(2)] =   +0.00 kcal/mol
USER    
USER    
USER    NEWDPF move ligand_361.pdbqt
USER    NEWDPF about 0.000000 0.000000 0.000000
USER    NEWDPF tran0 18.430564 6.472040 0.813735
USER    NEWDPF quaternion0 0.063467 -0.856606 0.501192 -0.104902
USER    NEWDPF axisangle0 0.063819 -0.861358 0.503973 -167.957002
USER    NEWDPF quat0 0.063819 -0.861358 0.503973 -167.957002
USER  keepresnum = 1 
USER  
REMARK  0 active torsions:
REMARK  status: ('A' for Active; 'I' for Inactive)
REMARK       I    between atoms: C2_2  and  C3_3 
REMARK       I    between atoms: C3_3  and  C5_5 
REMARK       I    between atoms: C5_5  and  C6_6 
REMARK       I    between atoms: C5_5  and  N11_94 
REMARK       I    between atoms: C6_6  and  C7_7 
REMARK       I    between atoms: C6_6  and  O12_81 
REMARK       I    between atoms: C7_7  and  C8_8 
REMARK       I    between atoms: C8_8  and  N1_84 
REMARK       I    between atoms: C12_12  and  C13_13 
REMARK       I    between atoms: C13_13  and  C14_14 
REMARK       I    between atoms: C13_13  and  O11_80 
REMARK       I    between atoms: C14_14  and  C16_16 
REMARK       I    between atoms: C16_16  and  N2_85 
REMARK       I    between atoms: C17_17  and  C18_18 
REMARK       I    between atoms: C17_17  and  C25_25 
REMARK       I    between atoms: C17_17  and  N2_85 
REMARK       I    between atoms: C18_18  and  C19_19 
REMARK       I    between atoms: C25_25  and  N3_86 
REMARK       I    between atoms: C26_26  and  C27_27 
REMARK       I    between atoms: C26_26  and  N3_86 
REMARK       I    between atoms: C30_30  and  N4_87 
REMARK       I    between atoms: C33_33  and  C34_34 
REMARK       I    between atoms: C33_33  and  N4_87 
REMARK       I    between atoms: C34_34  and  C35_35 
REMARK       I    between atoms: C34_34  and  N7_90 
REMARK       I    between atoms: C35_35  and  C36_36 
REMARK       I    between atoms: C36_36  and  C37_37 
REMARK       I    between atoms: C37_37  and  N5_88 
REMARK       I    between atoms: C38_38  and  N5_88 
REMARK       I    between atoms: C38_38  and  N6_89 
REMARK       I    between atoms: C39_39  and  C40_40 
REMARK       I    between atoms: C39_39  and  N7_90 
REMARK       I    between atoms: C40_40  and  C41_41 
REMARK       I    between atoms: C40_40  and  N8_91 
REMARK       I    between atoms: C44_44  and  C45_45 
REMARK       I    between atoms: C44_44  and  N8_91 
REMARK       I    between atoms: C45_45  and  C46_46 
REMARK       I    between atoms: C46_46  and  C47_47 
REMARK       I    between atoms: C47_47  and  N9_92 
REMARK       I    between atoms: C50_50  and  C54_54 
REMARK       I    between atoms: C54_54  and  O10_79 
REMARK       I    between atoms: C58_58  and  C59_59 
REMARK       I    between atoms: C58_58  and  N11_94 
REMARK       I    between atoms: C59_59  and  C60_60 
REMARK       I    between atoms: C59_59  and  N12_95 
REMARK       I    between atoms: C63_63  and  C64_64 
REMARK       I    between atoms: C63_63  and  N12_95 
REMARK       I    between atoms: C64_64  and  C65_65 
REMARK       I    between atoms: C64_64  and  N13_96 
REMARK       I    between atoms: N9_92  and  N10_93 
USER                              x       y       z     vdW  Elec       q    Type
USER                           _______ _______ _______ _____ _____    ______ ____
ROOT
ATOM      1  C1  UNL     1      28.751   9.807   4.356+99.99 +0.00    +0.005 C 
ATOM      2  C2  UNL     1      29.893   9.169   3.579+37.83 +0.00    +0.002 C 
ATOM      3  C3  UNL     1      29.585   7.763   3.010 +0.00 +0.00    +0.006 C 
ATOM      4  C4  UNL     1      30.862   7.222   2.355 -0.24 +0.00    +0.012 C 
ATOM      5  C5  UNL     1      28.303   7.678   2.101 -0.33 +0.00    +0.119 C 
ATOM      6  C6  UNL     1      28.410   8.388   0.707 -0.25 +0.00    +0.152 C 
ATOM      7  C7  UNL     1      27.205   8.181  -0.236 -0.13 +0.00    +0.137 C 
ATOM      8  C8  UNL     1      25.831   8.534   0.317 -0.00 +0.00    +0.222 C 
ATOM      9  C9  UNL     1      24.841   7.990  -1.958+11.35 +0.00    +0.126 C 
ATOM     10  C10 UNL     1      23.631   8.674  -2.567+99.99 +0.00    +0.022 C 
ATOM     11  C11 UNL     1      22.583   8.531  -1.475+20.73 +0.00    +0.029 C 
ATOM     12  C12 UNL     1      23.383   8.687  -0.165 -0.46 +0.00    +0.117 C 
ATOM     13  C13 UNL     1      22.787   7.839   1.004 +0.17 +0.00    +0.156 C 
ATOM     14  C14 UNL     1      21.366   8.316   1.404+30.39 +0.00    +0.105 C 
ATOM     15  C15 UNL     1      20.768   7.427   2.502+99.99 +0.00    +0.022 C 
ATOM     16  C16 UNL     1      21.354   9.762   1.881 -0.31 +0.00    +0.224 C 
ATOM     17  C17 UNL     1      19.907  11.731   2.316 -0.19 +0.00    +0.180 C 
ATOM     18  C18 UNL     1      19.731  11.809   3.845+99.99 +0.00    +0.073 C 
ATOM     19  C19 UNL     1      18.709  10.843   4.409+99.99 -0.00    -0.056 A 
ATOM     20  C20 UNL     1      17.338  11.124   4.347 +2.21 +0.00    +0.007 A 
ATOM     21  C21 UNL     1      16.405  10.211   4.839 +2.74 +0.00    +0.001 A 
ATOM     22  C22 UNL     1      16.831   9.011   5.405+19.70 +0.00    +0.000 A 
ATOM     23  C23 UNL     1      18.192   8.728   5.488+70.22 +0.00    +0.001 A 
ATOM     24  C24 UNL     1      19.127   9.640   4.995+99.99 +0.00    +0.007 A 
ATOM     25  C25 UNL     1      18.747  12.400   1.549 -0.58 +0.00    +0.241 C 
ATOM     26  C26 UNL     1      17.458  12.247  -0.551+99.99 +0.00    +0.161 C 
ATOM     27  C27 UNL     1      16.430  11.156  -0.387+12.28 -0.00    -0.040 A 
ATOM     28  C28 UNL     1      15.544  11.175   0.696 -0.29 +0.00    +0.011 A 
ATOM     29  C29 UNL     1      14.634  10.133   0.886+99.99 +0.00    +0.030 A 
ATOM     30  C30 UNL     1      14.593   9.050   0.002+99.99 +0.00    +0.034 A 
ATOM     31  C31 UNL     1      15.472   9.030  -1.081+17.49 +0.00    +0.030 A 
ATOM     32  C32 UNL     1      16.389  10.072  -1.272+99.99 +0.00    +0.011 A 
ATOM     33  C33 UNL     1      13.457   6.844  -0.402 -0.09 +0.00    +0.245 C 
ATOM     34  C34 UNL     1      12.278   6.019   0.187 -0.36 +0.00    +0.177 C 
ATOM     35  C35 UNL     1      12.086   4.635  -0.462 +1.37 +0.00    +0.036 C 
ATOM     36  C36 UNL     1      11.801   4.546  -1.971+27.83 +0.00    +0.022 C 
ATOM     37  C37 UNL     1      10.403   4.939  -2.441 -0.17 +0.00    +0.124 C 
ATOM     38  C38 UNL     1       8.986   2.953  -2.132 -0.05 +0.00    +0.313 C 
ATOM     39  C39 UNL     1      10.736   7.641   1.300 +1.45 +0.00    +0.241 C 
ATOM     40  C40 UNL     1       9.372   8.362   1.172+10.20 +0.00    +0.180 C 
ATOM     41  C41 UNL     1       8.766   8.659   2.565 +5.81 +0.00    +0.009 C 
ATOM     42  C42 UNL     1       7.591   9.636   2.487+91.33 +0.00    +0.012 C 
ATOM     43  C43 UNL     1       8.333   7.388   3.305 -0.31 +0.00    +0.012 C 
ATOM     44  C44 UNL     1       7.592   8.122  -0.566 -0.30 +0.00    +0.218 C 
ATOM     45  C45 UNL     1       6.740   7.113  -1.311+74.29 +0.00    +0.112 C 
ATOM     46  C46 UNL     1       5.786   6.354  -0.392 +0.97 +0.00    +0.113 C 
ATOM     47  C47 UNL     1       6.449   5.159   0.267 -0.12 +0.00    +0.232 C 
ATOM     48  C48 UNL     1       6.286   3.296   2.892 -0.17 +0.00    +0.115 C 
ATOM     49  C49 UNL     1       5.019   3.427   3.739 -0.19 +0.00    +0.031 C 
ATOM     50  C50 UNL     1       4.064   2.246   3.541 -0.19 +0.00    +0.086 C 
ATOM     51  C51 UNL     1       3.827   1.990   2.048 -0.16 +0.00    +0.036 C 
ATOM     52  C52 UNL     1       5.109   1.959   1.194 -0.16 +0.00    +0.076 C 
ATOM     53  C53 UNL     1       5.872   0.635   1.317 +2.01 +0.00    +0.028 C 
ATOM     54  C54 UNL     1       4.542   1.014   4.283 -0.32 +0.00    +0.143 C 
ATOM     55  C55 UNL     1      23.710   5.623   0.960 -0.39 +0.00    +0.202 C 
ATOM     56  C56 UNL     1      29.423  10.408  -0.095+11.71 +0.00    +0.202 C 
ATOM     57  C57 UNL     1      26.750   6.003   3.079+99.99 +0.00    +0.153 C 
ATOM     58  C58 UNL     1      28.257   5.347   1.163 +4.38 +0.00    +0.243 C 
ATOM     59  C59 UNL     1      27.686   3.903   1.181+16.91 +0.00    +0.180 C 
ATOM     60  C60 UNL     1      28.300   3.060   2.323+37.13 +0.00    +0.009 C 
ATOM     61  C61 UNL     1      27.533   1.743   2.487+99.99 +0.00    +0.012 C 
ATOM     62  C62 UNL     1      29.794   2.769   2.142 +0.94 +0.00    +0.012 C 
ATOM     63  C63 UNL     1      27.080   3.572  -1.187 +0.13 +0.00    +0.252 C 
ATOM     64  C64 UNL     1      27.604   3.085  -2.565 -0.16 +0.00    +0.316 C 
ATOM     65  C65 UNL     1      27.156   3.964  -3.769+17.32 +0.00    +0.020 C 
ATOM     66  C66 UNL     1      27.573   5.428  -3.568+97.04 +0.00    +0.012 C 
ATOM     67  C67 UNL     1      25.676   3.895  -4.149+40.18 +0.00    +0.012 C 
ATOM     68  C68 UNL     1      26.073   1.152  -2.244 +3.35 +0.00    +0.310 C 
ATOM     69  C69 UNL     1      28.439   0.792  -2.326+84.14 +0.00    +0.310 C 
ATOM     70  O1  UNL     1      25.655   8.944   1.461 -0.30 -0.00    -0.273 OA
ATOM     71  O2  UNL     1      22.347  10.356   2.281 +0.19 -0.00    -0.273 OA
ATOM     72  O3  UNL     1      18.074  13.324   1.997 -0.60 -0.00    -0.271 OA
ATOM     73  O4  UNL     1      14.175   6.410  -1.298 +1.43 -0.00    -0.271 OA
ATOM     74  O5  UNL     1       9.475   2.302  -3.042 +3.26 -0.00    -0.248 OA
ATOM     75  O6  UNL     1      11.560   7.890   2.177 +0.38 -0.00    -0.271 OA
ATOM     76  O7  UNL     1       7.496   9.327  -0.764+12.26 -0.00    -0.274 OA
ATOM     77  O8  UNL     1       7.672   5.019   0.308 -0.08 -0.00    -0.272 OA
ATOM     78  O9  UNL     1       5.515   0.927   5.011 +8.08 -0.00    -0.650 OA
ATOM     79  O10 UNL     1       3.730  -0.047   4.107 -0.02 -0.00    -0.776 OA
ATOM     80  O11 UNL     1      22.631   6.464   0.579 +0.55 -0.00    -0.388 OA
ATOM     81  O12 UNL     1      28.622   9.799   0.907+18.29 -0.00    -0.388 OA
ATOM     82  O13 UNL     1      29.144   5.626   0.346 -0.13 -0.00    -0.271 OA
ATOM     83  O14 UNL     1      25.986   4.103  -1.017 -0.80 -0.00    -0.271 OA
ATOM     84  N1  UNL     1      24.764   8.342  -0.548 -0.02 -0.00    -0.345 N 
ATOM     85  N2  UNL     1      20.113  10.359   1.824 -0.19 -0.00    -0.347 N 
ATOM     86  N3  UNL     1      18.620  11.947   0.249 -0.24 -0.00    -0.355 N 
ATOM     87  N4  UNL     1      13.646   8.044   0.267+36.49 -0.00    -0.325 N 
ATOM     88  N5  UNL     1       9.344   4.216  -1.777 -0.04 -0.00    -0.343 N 
ATOM     89  N6  UNL     1       7.960   2.473  -1.384 +0.01 -0.00    -0.352 N 
ATOM     90  N7  UNL     1      11.030   6.782   0.259 -0.15 -0.00    -0.346 N 
ATOM     91  N8  UNL     1       8.485   7.573   0.318 -0.16 -0.00    -0.347 N 
ATOM     92  N9  UNL     1       5.542   4.295   0.860 -0.05 -0.00    -0.289 N 
ATOM     93  N10 UNL     1       6.006   3.101   1.459 -0.04 -0.00    -0.225 NA
ATOM     94  N11 UNL     1      27.767   6.284   2.068+16.35 -0.00    -0.347 N 
ATOM     95  N12 UNL     1      27.946   3.313  -0.135 -0.09 -0.00    -0.346 N 
ATOM     96  N13 UNL     1      27.340   1.635  -2.801 -0.14 +0.00    +0.094 N 
ATOM     97  HA1 UNL     1       4.130  -0.751   4.662 +0.08 +0.00    +0.167 HD
ATOM     98  HA2 UNL     1      19.295   9.757   1.826 +0.12 +0.00    +0.163 HD
ATOM     99  HA3 UNL     1      19.170  11.133   0.000 +0.13 +0.00    +0.162 HD
ATOM    100  HA4 UNL     1      13.071   8.181   1.099+11.77 +0.00    +0.169 HD
ATOM    101  HA5 UNL     1       8.939   4.575  -0.918 +0.07 +0.00    +0.164 HD
ATOM    102  HA6 UNL     1       7.838   2.823  -0.441 +0.06 +0.00    +0.160 HD
ATOM    103  HA7 UNL     1       7.771   1.491  -1.523 +0.06 +0.00    +0.160 HD
ATOM    104  HA8 UNL     1      10.500   6.939  -0.587 +0.09 +0.00    +0.163 HD
ATOM    105  HA9 UNL     1       8.469   6.565   0.476 +0.09 +0.00    +0.163 HD
ATOM    106  HB0 UNL     1       4.544   4.444   0.738 +0.04 +0.00    +0.184 HD
ATOM    107  HB1 UNL     1      28.925   3.280  -0.398 +0.07 +0.00    +0.163 HD
ENDROOT
TORSDOF 39
TER
