USER    Run = 1
USER    DPF = ligand_411_receptor.dpf
USER  
USER    Estimated Free Energy of Binding    =  +2.59e+006 kcal/mol  [=(1)+(2)+(3)-(4)]
USER    
USER    (1) Final Intermolecular Energy     =  +2.59e+006 kcal/mol
USER        vdW + Hbond + desolv Energy     =  +1.70e+006 kcal/mol
USER        Electrostatic Energy            =  +8.96e+005 kcal/mol
USER    (2) Final Total Internal Energy     =   +0.00 kcal/mol
USER    (3) Torsional Free Energy           =   +1.19 kcal/mol
USER    (4) Unbound System's Energy  [=(2)] =   +0.00 kcal/mol
USER    
USER    
USER    NEWDPF move ligand_411.pdbqt
USER    NEWDPF about 0.000000 0.000000 0.000000
USER    NEWDPF tran0 17.023123 7.462516 0.382988
USER    NEWDPF quaternion0 -0.199764 -0.375909 -0.901813 0.074297
USER    NEWDPF axisangle0 -0.200317 -0.376951 -0.904313 171.478302
USER    NEWDPF quat0 -0.200317 -0.376951 -0.904313 171.478302
USER  keepresnum = 1 
USER  
REMARK  0 active torsions:
REMARK  status: ('A' for Active; 'I' for Inactive)
REMARK       I    between atoms: C2_2  and  C3_3 
REMARK       I    between atoms: C3_3  and  C5_5 
REMARK       I    between atoms: C5_5  and  C6_6 
REMARK       I    between atoms: C5_5  and  N3_94 
REMARK       I    between atoms: C6_6  and  C7_7 
REMARK       I    between atoms: C6_6  and  O5_80 
REMARK       I    between atoms: C7_7  and  C8_8 
REMARK       I    between atoms: C8_8  and  N1_92 
REMARK       I    between atoms: C12_12  and  C13_13 
REMARK       I    between atoms: C13_13  and  C14_14 
REMARK       I    between atoms: C13_13  and  O4_79 
REMARK       I    between atoms: C14_14  and  C16_16 
REMARK       I    between atoms: C16_16  and  N2_93 
REMARK       I    between atoms: C17_17  and  C19_19 
REMARK       I    between atoms: C17_17  and  N2_93 
REMARK       I    between atoms: C19_19  and  C20_20 
REMARK       I    between atoms: C19_19  and  O3_78 
REMARK       I    between atoms: C29_29  and  C30_30 
REMARK       I    between atoms: C29_29  and  N3_94 
REMARK       I    between atoms: C30_30  and  N4_95 
REMARK       I    between atoms: C32_32  and  C33_33 
REMARK       I    between atoms: C32_32  and  N4_95 
REMARK       I    between atoms: C33_33  and  C34_34 
REMARK       I    between atoms: C33_33  and  N5_96 
REMARK       I    between atoms: C38_38  and  O9_84 
REMARK       I    between atoms: C38_38  and  N5_96 
REMARK       I    between atoms: C39_39  and  C40_40 
REMARK       I    between atoms: C39_39  and  O9_84 
REMARK       I    between atoms: C43_43  and  N6_97 
REMARK       I    between atoms: C46_46  and  C47_47 
REMARK       I    between atoms: C46_46  and  N6_97 
REMARK       I    between atoms: C47_47  and  N7_98 
REMARK       I    between atoms: C49_49  and  C50_50 
REMARK       I    between atoms: C49_49  and  N7_98 
REMARK       I    between atoms: C50_50  and  C51_51 
REMARK       I    between atoms: C50_50  and  N8_99 
REMARK       I    between atoms: C54_54  and  C55_55 
REMARK       I    between atoms: C54_54  and  N8_99 
REMARK       I    between atoms: C55_55  and  C56_56 
REMARK       I    between atoms: C56_56  and  C57_57 
REMARK       I    between atoms: C57_57  and  C58_58 
REMARK       I    between atoms: C58_58  and  C59_59 
REMARK       I    between atoms: C59_59  and  N9_100 
REMARK       I    between atoms: C62_62  and  S1_103 
REMARK       I    between atoms: C64_64  and  C65_65 
REMARK       I    between atoms: C64_64  and  S1_103 
REMARK       I    between atoms: C65_65  and  C66_66 
REMARK       I    between atoms: C66_66  and  N10_101 
REMARK       I    between atoms: C67_67  and  C68_68 
REMARK       I    between atoms: C67_67  and  C75_75 
REMARK       I    between atoms: C67_67  and  N10_101 
REMARK       I    between atoms: C68_68  and  C69_69 
REMARK       I    between atoms: C75_75  and  N11_102 
USER                              x       y       z     vdW  Elec       q    Type
USER                           _______ _______ _______ _____ _____    ______ ____
ROOT
ATOM      1  C1  UNL     1      22.246   3.627  -4.230+99.99 +0.00    +0.005 C 
ATOM      2  C2  UNL     1      22.917   4.939  -3.847+99.99 +0.00    +0.002 C 
ATOM      3  C3  UNL     1      24.083   4.776  -2.842+21.58 +0.00    +0.006 C 
ATOM      4  C4  UNL     1      23.596   4.151  -1.534+47.37 +0.00    +0.012 C 
ATOM      5  C5  UNL     1      24.878   6.118  -2.686 +0.13 +0.00    +0.119 C 
ATOM      6  C6  UNL     1      26.181   6.082  -1.813 -0.24 +0.00    +0.152 C 
ATOM      7  C7  UNL     1      27.102   4.916  -2.195 +0.04 +0.00    +0.137 C 
ATOM      8  C8  UNL     1      28.392   4.894  -1.387 -0.15 +0.00    +0.222 C 
ATOM      9  C9  UNL     1      27.217   3.586   0.404 +2.91 +0.00    +0.126 C 
ATOM     10  C10 UNL     1      27.575   3.272   1.841+99.99 +0.00    +0.022 C 
ATOM     11  C11 UNL     1      29.086   3.150   1.776 +0.50 +0.00    +0.029 C 
ATOM     12  C12 UNL     1      29.496   4.306   0.853 -0.19 +0.00    +0.117 C 
ATOM     13  C13 UNL     1      30.954   4.264   0.279 -0.12 +0.00    +0.156 C 
ATOM     14  C14 UNL     1      32.066   3.621   1.148 -0.18 +0.00    +0.105 C 
ATOM     15  C15 UNL     1      32.216   4.238   2.539 -0.25 +0.00    +0.022 C 
ATOM     16  C16 UNL     1      31.995   2.100   1.186 -0.22 +0.00    +0.224 C 
ATOM     17  C17 UNL     1      32.326   0.022  -0.142+92.07 +0.00    +0.113 C 
ATOM     18  C18 UNL     1      33.361  -0.400  -1.183+99.99+99.99    +0.035 C 
ATOM     19  C19 UNL     1      30.909  -0.575  -0.414+47.12 +0.00    +0.173 C 
ATOM     20  C20 UNL     1      30.323  -0.194  -1.761+10.59 -0.00    -0.028 A 
ATOM     21  C21 UNL     1      30.431  -1.072  -2.851+99.99+99.99    +0.010 A 
ATOM     22  C22 UNL     1      29.941  -0.714  -4.108 -0.11 +0.00    +0.001 A 
ATOM     23  C23 UNL     1      29.335   0.527  -4.294 -0.11 +0.00    +0.000 A 
ATOM     24  C24 UNL     1      29.208   1.405  -3.221 -0.12 +0.00    +0.001 A 
ATOM     25  C25 UNL     1      29.693   1.044  -1.962 +1.11 +0.00    +0.010 A 
ATOM     26  C26 UNL     1      32.263   5.851  -0.986 -0.01 +0.00    +0.202 C 
ATOM     27  C27 UNL     1      27.268   8.018  -0.924 +0.63 +0.00    +0.202 C 
ATOM     28  C28 UNL     1      23.923   8.319  -3.378+31.06 +0.00    +0.153 C 
ATOM     29  C29 UNL     1      23.450   7.423  -1.078 -0.38 +0.00    +0.242 C 
ATOM     30  C30 UNL     1      22.376   8.519  -0.867 +0.76 +0.00    +0.172 C 
ATOM     31  C31 UNL     1      21.841   8.508   0.565 +2.78 +0.00    +0.042 C 
ATOM     32  C32 UNL     1      20.403   9.299  -2.164+99.99 +0.00    +0.241 C 
ATOM     33  C33 UNL     1      19.242   8.816  -3.086+99.99 +0.00    +0.184 C 
ATOM     34  C34 UNL     1      18.057   9.819  -3.152+99.99 +0.00    +0.010 C 
ATOM     35  C35 UNL     1      16.773   9.208  -3.726 +2.46 +0.00    +0.012 C 
ATOM     36  C36 UNL     1      18.418  11.042  -4.013+26.83 +0.00    +0.012 C 
ATOM     37  C37 UNL     1      18.905   6.425  -3.782+99.99 +0.00    +0.156 C 
ATOM     38  C38 UNL     1      18.241   7.104  -1.532+99.99 +0.00    +0.363 C 
ATOM     39  C39 UNL     1      17.514   7.955   0.556 +5.96 +0.00    +0.219 C 
ATOM     40  C40 UNL     1      16.168   8.616   0.413 -0.49 -0.00    -0.034 A 
ATOM     41  C41 UNL     1      16.034   9.999   0.573 -0.29 +0.00    +0.011 A 
ATOM     42  C42 UNL     1      14.791  10.614   0.397+16.67 +0.00    +0.030 A 
ATOM     43  C43 UNL     1      13.662   9.862   0.049+99.99 +0.00    +0.034 A 
ATOM     44  C44 UNL     1      13.799   8.485  -0.120+99.99 +0.00    +0.030 A 
ATOM     45  C45 UNL     1      15.042   7.867   0.056 +0.67 +0.00    +0.011 A 
ATOM     46  C46 UNL     1      11.217  10.047  -0.482+99.99 +0.00    +0.244 C 
ATOM     47  C47 UNL     1      10.104  11.119  -0.515+99.99 +0.00    +0.172 C 
ATOM     48  C48 UNL     1       9.738  11.551   0.901+99.99 +0.00    +0.042 C 
ATOM     49  C49 UNL     1       7.949  11.328  -1.755+99.99 +0.00    +0.241 C 
ATOM     50  C50 UNL     1       6.838  10.493  -2.444+99.99 +0.00    +0.180 C 
ATOM     51  C51 UNL     1       5.482  11.219  -2.601+99.99 +0.00    +0.009 C 
ATOM     52  C52 UNL     1       5.526  12.275  -3.710+99.99 +0.00    +0.012 C 
ATOM     53  C53 UNL     1       4.960  11.838  -1.302+99.99 +0.00    +0.012 C 
ATOM     54  C54 UNL     1       6.213   8.080  -2.316+99.99 +0.00    +0.218 C 
ATOM     55  C55 UNL     1       6.187   6.885  -1.385+99.99 +0.00    +0.103 C 
ATOM     56  C56 UNL     1       4.861   6.127  -1.366+22.76 +0.00    +0.009 C 
ATOM     57  C57 UNL     1       3.583   6.942  -1.117+99.99 +0.00    +0.002 C 
ATOM     58  C58 UNL     1       3.645   8.052  -0.070+99.99 +0.00    +0.020 C 
ATOM     59  C59 UNL     1       4.109   7.617   1.320+99.99 +0.00    +0.135 C 
ATOM     60  C60 UNL     1       3.579   9.331   3.040 +7.23 +0.00    +0.228 A 
ATOM     61  C61 UNL     1       4.198  10.568   3.622 +2.30 +0.00    +0.128 A 
ATOM     62  C62 UNL     1       5.562  10.667   2.953+99.99 +0.00    +0.148 A 
ATOM     63  C63 UNL     1       5.563   9.529   1.957+90.36 +0.00    +0.240 A 
ATOM     64  C64 UNL     1       7.377  12.188   4.476+99.99 +0.00    +0.084 C 
ATOM     65  C65 UNL     1       6.274  13.014   5.125+99.99 +0.00    +0.113 C 
ATOM     66  C66 UNL     1       5.971  12.583   6.544+99.99 +0.00    +0.219 C 
ATOM     67  C67 UNL     1       4.197  12.542   8.279 +5.43 +0.00    +0.180 C 
ATOM     68  C68 UNL     1       3.853  11.050   8.414 +0.35 +0.00    +0.073 C 
ATOM     69  C69 UNL     1       3.692  10.588   9.843+10.32 -0.00    -0.056 A 
ATOM     70  C70 UNL     1       2.435  10.211  10.335 -0.18 +0.00    +0.007 A 
ATOM     71  C71 UNL     1       2.288   9.809  11.663+99.99+99.99    +0.001 A 
ATOM     72  C72 UNL     1       3.396   9.775  12.508+99.99+99.99    +0.000 A 
ATOM     73  C73 UNL     1       4.652  10.136  12.026+99.99+99.99    +0.001 A 
ATOM     74  C74 UNL     1       4.801  10.538  10.699+99.99 +0.00    +0.007 A 
ATOM     75  C75 UNL     1       2.959  13.430   8.501 +0.46 +0.00    +0.238 C 
ATOM     76  O1  UNL     1      29.407   5.376  -1.887 -0.09 -0.00    -0.273 OA
ATOM     77  O2  UNL     1      31.681   1.458   2.184 -0.36 -0.00    -0.273 OA
ATOM     78  O3  UNL     1      29.978  -0.217   0.614+99.99 -0.00    -0.389 OA
ATOM     79  O4  UNL     1      31.338   5.649   0.076 -0.01 -0.00    -0.388 OA
ATOM     80  O5  UNL     1      26.877   7.317  -2.100 +0.54 -0.00    -0.388 OA
ATOM     81  O6  UNL     1      23.796   6.703  -0.138 -0.34 -0.00    -0.271 OA
ATOM     82  O7  UNL     1      20.614  10.476  -1.885+99.99 -0.00    -0.271 OA
ATOM     83  O8  UNL     1      17.757   6.005  -1.291+99.99 -0.00    -0.238 OA
ATOM     84  O9  UNL     1      18.241   8.143  -0.663 +9.35 -0.00    -0.299 OA
ATOM     85  O10 UNL     1      10.967   8.874  -0.754+64.92 -0.00    -0.271 OA
ATOM     86  O11 UNL     1       8.012  12.554  -1.779+99.99 -0.00    -0.271 OA
ATOM     87  O12 UNL     1       5.865   8.018  -3.489+99.99 -0.00    -0.274 OA
ATOM     88  O13 UNL     1       2.458   8.936   3.320 -0.11 -0.00    -0.273 OA
ATOM     89  O14 UNL     1       6.419   9.351   1.097+29.60 -0.00    -0.272 OA
ATOM     90  O15 UNL     1       6.799  12.078   7.293+99.99 -0.00    -0.274 OA
ATOM     91  O16 UNL     1       2.374  13.996   7.577 -0.18 -0.00    -0.271 OA
ATOM     92  N1  UNL     1      28.373   4.296  -0.139 -0.11 -0.00    -0.345 N 
ATOM     93  N2  UNL     1      32.331   1.482   0.000 +0.02 -0.00    -0.354 N 
ATOM     94  N3  UNL     1      23.999   7.279  -2.354 -0.17 -0.00    -0.347 N 
ATOM     95  N4  UNL     1      21.282   8.296  -1.810+19.80 -0.00    -0.346 N 
ATOM     96  N5  UNL     1      18.879   7.421  -2.725 +2.05 -0.00    -0.319 N 
ATOM     97  N6  UNL     1      12.449  10.563  -0.110+99.99 -0.00    -0.325 N 
ATOM     98  N7  UNL     1       8.950  10.562  -1.201+61.45 -0.00    -0.346 N 
ATOM     99  N8  UNL     1       6.697   9.223  -1.723+67.21 -0.00    -0.347 N 
ATOM    100  N9  UNL     1       4.438   8.774   2.141+85.99 -0.00    -0.287 N 
ATOM    101  N10 UNL     1       4.680  12.847   6.930+99.99 -0.00    -0.347 N 
ATOM    102  N11 UNL     1       2.529  13.579   9.785 +5.32 -0.00    -0.368 N 
ATOM    103  S1  UNL     1       6.936  10.443   4.134+99.99 -0.00    -0.154 SA
ATOM    104  HA3 UNL     1      30.495   0.076   1.392 +0.86 +0.00    +0.210 HD
ATOM    105  HA4 UNL     1      32.370   2.031  -0.851 +0.03 +0.00    +0.163 HD
ATOM    106  HA5 UNL     1      20.957   7.343  -1.936 +0.08 +0.00    +0.163 HD
ATOM    107  HA6 UNL     1      12.499  11.563   0.040 +1.18 +0.00    +0.169 HD
ATOM    108  HA7 UNL     1       8.902   9.548  -1.292 -0.25 +0.00    +0.163 HD
ATOM    109  HA8 UNL     1       6.758   9.257  -0.702 -0.50 +0.00    +0.163 HD
ATOM    110  HA9 UNL     1       4.057  13.398   6.345 +0.20 +0.00    +0.163 HD
ATOM    111  HB0 UNL     1       2.882  13.014  10.549 +0.97 +0.00    +0.159 HD
ATOM    112  HB1 UNL     1       1.682  14.109   9.941+99.99+99.99    +0.159 HD
ENDROOT
TORSDOF 43
TER
