USER    Run = 1
USER    DPF = ligand_400_receptor.dpf
USER  
USER    Estimated Free Energy of Binding    = +614.83 kcal/mol  [=(1)+(2)+(3)-(4)]
USER    
USER    (1) Final Intermolecular Energy     = +613.64 kcal/mol
USER        vdW + Hbond + desolv Energy     = +613.64 kcal/mol
USER        Electrostatic Energy            =   +0.00 kcal/mol
USER    (2) Final Total Internal Energy     =  +21.82 kcal/mol
USER    (3) Torsional Free Energy           =   +1.19 kcal/mol
USER    (4) Unbound System's Energy  [=(2)] =  +21.82 kcal/mol
USER    
USER    
USER    NEWDPF move ligand_400.pdbqt
USER    NEWDPF about 0.000000 0.000000 0.000000
USER    NEWDPF tran0 10.402738 6.440138 3.419836
USER    NEWDPF quaternion0 -0.856143 -0.287943 0.187257 -0.386061
USER    NEWDPF axisangle0 -0.928095 -0.312142 0.202994 -134.580723
USER    NEWDPF quat0 -0.928095 -0.312142 0.202994 -134.580723
USER    NEWDPF dihe0 -166.25 -40.40 99.82 179.13 130.30 -90.05 29.16 -178.74 -180.00 104.61 -135.28 -145.53 -64.32 -128.76 
USER  keepresnum = 1 
USER  
REMARK  14 active torsions:
REMARK  status: ('A' for Active; 'I' for Inactive)
REMARK    1  A    between atoms: C3_3  and  N14_102 
REMARK    2  A    between atoms: C4_4  and  O18_82 
REMARK    3  A    between atoms: C6_6  and  O2_66 
REMARK    4  A    between atoms: C7_7  and  O2_66 
REMARK    5  A    between atoms: C32_32  and  C52_52 
REMARK    6  A    between atoms: C33_33  and  O15_79 
REMARK    7  A    between atoms: C40_40  and  C50_50 
REMARK    8  A    between atoms: C43_43  and  O12_76 
REMARK    9  A    between atoms: C50_50  and  O14_78 
REMARK   10  A    between atoms: C53_53  and  C55_55 
REMARK       I    between atoms: C55_55  and  N12_100 
REMARK   11  A    between atoms: C56_56  and  C57_57 
REMARK   12  A    between atoms: C56_56  and  N12_100 
REMARK   13  A    between atoms: C57_57  and  N13_101 
REMARK   14  A    between atoms: O9_73  and  N3_86 
USER                              x       y       z     vdW  Elec       q    Type
USER                           _______ _______ _______ _____ _____    ______ ____
ROOT
ATOM      1  C7  UNL     1       5.134   3.629   1.745 -0.05 +0.00    +0.255 C 
ATOM      2  C8  UNL     1       6.008   4.712   1.070 -0.11 +0.00    +0.189 C 
ATOM      3  C9  UNL     1       6.818   5.547   2.091 -0.14 +0.00    +0.174 C 
ATOM      4  C10 UNL     1       7.508   6.699   1.400 -0.31 +0.00    +0.077 C 
ATOM      5  C11 UNL     1       9.143   7.695   0.273 -0.05 +0.00    +0.108 C 
ATOM      6  C12 UNL     1       8.157   8.639   0.082 +4.63 +0.00    +0.086 C 
ATOM      7  C13 UNL     1      10.473   7.664  -0.322 +0.51 +0.00    +0.269 C 
ATOM      8  C14 UNL     1      12.306   5.986  -0.594 -0.37 +0.00    +0.166 C 
ATOM      9  C15 UNL     1      12.093   5.683  -2.085 +0.96 +0.00    +0.211 C 
ATOM     10  C16 UNL     1       9.863   4.773  -2.353 -0.10 +0.00    +0.313 C 
ATOM     11  C17 UNL     1       9.116   3.534  -2.339 -0.10 +0.00    +0.147 A 
ATOM     12  C18 UNL     1       7.824   3.284  -1.851 -0.11 +0.00    +0.014 A 
ATOM     13  C19 UNL     1       6.937   4.273  -1.145 +0.02 +0.00    +0.210 C 
ATOM     14  C20 UNL     1       7.531   1.877  -2.069 -0.11 +0.00    +0.012 A 
ATOM     15  C21 UNL     1       6.428   1.006  -1.797 -0.12 -0.00    -0.021 A 
ATOM     16  C22 UNL     1       5.112   1.434  -1.173 -0.09 +0.00    +0.218 C 
ATOM     17  C23 UNL     1       4.503   2.815   0.616 -0.05 +0.00    +0.291 C 
ATOM     18  C24 UNL     1       6.557  -0.358  -2.154 -0.01 +0.00    +0.010 A 
ATOM     19  C25 UNL     1       7.704  -0.859  -2.756 -0.22 +0.00    +0.003 A 
ATOM     20  C26 UNL     1       8.776  -0.021  -3.034 -0.17 +0.00    +0.033 A 
ATOM     21  C27 UNL     1       8.665   1.332  -2.680 +0.17 +0.00    +0.074 A 
ATOM     22  C28 UNL     1      13.446   6.887  -0.179 -0.08 +0.00    +0.076 A 
ATOM     23  C29 UNL     1      14.729   8.049   1.225 +8.21 +0.00    +0.067 A 
ATOM     24  C30 UNL     1      15.260   8.480   0.023 +0.82 +0.00    +0.083 A 
ATOM     25  C31 UNL     1      15.208   8.515   2.529 -0.12 +0.00    +0.073 A 
ATOM     26  C32 UNL     1      17.115   9.166   3.722 -0.44 +0.00    +0.100 A 
ATOM     27  C33 UNL     1      16.389   9.248   4.909 +2.24 +0.00    +0.096 A 
ATOM     28  C34 UNL     1      15.028   8.959   4.879 +0.63 +0.00    +0.055 A 
ATOM     29  C35 UNL     1      14.399   8.599   3.674 -0.37 +0.00    +0.029 A 
ATOM     30  C36 UNL     1      12.949   8.372   3.717 -0.32 +0.00    +0.087 C 
ATOM     31  C37 UNL     1      10.957   7.599   4.362 -0.39 +0.00    +0.108 C 
ATOM     32  C38 UNL     1      10.545   8.502   3.403 +0.00 +0.00    +0.087 C 
ATOM     33  C39 UNL     1      10.049   6.728   5.110 -0.09 +0.00    +0.269 C 
ATOM     34  C40 UNL     1       9.888   5.310   7.167 -0.27 +0.00    +0.205 C 
ATOM     35  C41 UNL     1       8.975   6.110   8.139 +3.96 +0.00    +0.247 C 
ATOM     36  C42 UNL     1       6.869   7.499   7.968+21.23 +0.00    +0.098 C 
ATOM     37  C43 UNL     1       6.789   8.139   9.159+21.22 +0.00    +0.071 C 
ATOM     38  C44 UNL     1       7.962   8.452  10.054+67.30 +0.00    +0.078 C 
ATOM     39  C46 UNL     1       5.802   7.461   6.975 +7.77 +0.00    +0.104 A 
ATOM     40  C47 UNL     1       4.911   7.021   4.938+18.80 +0.00    +0.108 A 
ATOM     41  C48 UNL     1       3.798   7.558   5.540 +2.04 +0.00    +0.087 A 
ATOM     42  C49 UNL     1       5.017   6.534   3.560 +0.24 +0.00    +0.269 C 
ATOM     43  O3  UNL     1      10.933   8.533  -1.049+11.13 -0.00    -0.266 OA
ATOM     44  O4  UNL     1      11.201   4.538  -2.222 +0.70 -0.00    -0.314 OA
ATOM     45  O5  UNL     1       9.360   5.884  -2.437 -0.14 -0.00    -0.258 OA
ATOM     46  O6  UNL     1       7.010   4.035   0.258 -0.02 -0.00    -0.376 OA
ATOM     47  O7  UNL     1       5.352   1.849   0.170 -0.08 -0.00    -0.315 OA
ATOM     48  O8  UNL     1       3.420   3.078   0.105 -0.12 -0.00    -0.262 OA
ATOM     49  O10 UNL     1       8.886   6.497   4.786 -0.06 -0.00    -0.266 OA
ATOM     50  O11 UNL     1       9.087   6.018   9.357 +5.89 -0.00    -0.271 OA
ATOM     51  O13 UNL     1       4.130   6.616   2.719 -0.18 -0.00    -0.266 OA
ATOM     52  N1  UNL     1       8.781   6.634   1.094 -0.09 -0.00    -0.347 N 
ATOM     53  H1  UNL     1       9.418   5.905   1.415 +0.08 +0.00    +0.166 HD
ATOM     54  N2  UNL     1      11.100   6.491   0.025 -0.18 -0.00    -0.343 N 
ATOM     55  N3  UNL     1       9.566   2.350  -2.847 +1.73 -0.00    -0.217 N 
ATOM     56  N4  UNL     1      13.731   7.101   1.097 +3.88 -0.00    -0.350 N 
ATOM     57  H4  UNL     1      13.277   6.629   1.879 -0.29 +0.00    +0.166 HD
ATOM     58  N5  UNL     1      16.538   8.815   2.543 -0.22 -0.00    -0.349 N 
ATOM     59  H5  UNL     1      17.089   8.775   1.687 +0.12 +0.00    +0.166 HD
ATOM     60  N6  UNL     1      12.339   7.593   4.595 -0.16 -0.00    -0.345 N 
ATOM     61  H6  UNL     1      12.806   7.066   5.333 +0.12 +0.00    +0.167 HD
ATOM     62  N7  UNL     1      10.609   6.213   6.256 -0.09 -0.00    -0.340 N 
ATOM     63  N8  UNL     1       7.989   6.821   7.477+19.34 -0.00    -0.321 N 
ATOM     64  N9  UNL     1       6.029   6.957   5.770+11.34 -0.00    -0.344 N 
ATOM     65  H9  UNL     1       6.926   6.565   5.482 +0.11 +0.00    +0.167 HD
ATOM     66  N10 UNL     1       6.247   5.985   3.337 -0.06 -0.00    -0.343 N 
ATOM     67  S1  UNL     1       6.716   8.132   0.874 -0.33 -0.00    -0.084 SA
ATOM     68  S2  UNL     1      14.442   7.737  -1.288+64.03 -0.00    -0.084 SA
ATOM     69  S3  UNL     1      11.889   9.329   2.747+74.92 -0.00    -0.081 SA
ATOM     70  S4  UNL     1       4.161   7.982   7.161 -0.06 -0.00    -0.079 SA
ATOM     71  H64 UNL     1      10.546   5.863   0.602 +0.06 +0.00    +0.163 HD
ATOM     72  H65 UNL     1      11.503   6.612   6.533 +0.12 +0.00    +0.163 HD
ATOM     73  H66 UNL     1       7.890   6.589   6.481 +0.45 +0.00    +0.169 HD
ATOM     74  H67 UNL     1       6.908   6.094   4.106 +0.07 +0.00    +0.163 HD
ENDROOT
BRANCH  26  75
ATOM     75  C52 UNL     1      18.548   9.473   3.619 -0.08 +0.00    +0.104 A 
ATOM     76  N11 UNL     1      19.505   8.571   3.484 -0.19 -0.00    -0.344 N 
ATOM     77  C53 UNL     1      20.756   9.195   3.461 +0.13 +0.00    +0.108 A 
ATOM     78  H11 UNL     1      19.353   7.565   3.407 +0.11 +0.00    +0.167 HD
ATOM     79  C54 UNL     1      20.715  10.570   3.588+13.27 +0.00    +0.087 A 
ATOM     80  S5  UNL     1      19.099  11.101   3.759+33.95 -0.00    -0.079 SA
BRANCH  77  81
ATOM     81  C55 UNL     1      21.986   8.419   3.298 +1.06 +0.00    +0.268 C 
ATOM     82  O16 UNL     1      22.086   7.462   2.536 +3.41 -0.00    -0.266 OA
ATOM     83  N12 UNL     1      23.001   8.862   4.112 +0.16 -0.00    -0.354 N 
ATOM     84  H68 UNL     1      22.784   9.651   4.715 +0.11 +0.00    +0.162 HD
BRANCH  83  85
ATOM     85  C56 UNL     1      24.271   8.183   4.227 +0.51 +0.00    +0.153 C 
BRANCH  85  86
ATOM     86  C57 UNL     1      24.743   7.497   2.926 +1.11 +0.00    +0.292 C 
BRANCH  86  87
ATOM     87  N13 UNL     1      25.743   8.254   2.142 -0.42 +0.00    +0.094 N 
ATOM     88  C58 UNL     1      26.280   9.387   2.937 -0.30 +0.00    +0.298 C 
ATOM     89  C59 UNL     1      25.301  10.566   3.094 -0.17 +0.00    +0.198 C 
ATOM     90  O17 UNL     1      24.848  11.046   1.821 +0.50 -0.00    -0.388 OA
ATOM     91  C60 UNL     1      24.242   9.989   1.066 +0.44 +0.00    +0.198 C 
ATOM     92  C61 UNL     1      25.220   8.817   0.877 -0.08 +0.00    +0.298 C 
ENDBRANCH  86  87
ENDBRANCH  85  86
ENDBRANCH  83  85
ENDBRANCH  77  81
ENDBRANCH  26  75
BRANCH  27  93
ATOM     93  O15 UNL     1      16.979   9.633   6.079+84.63 -0.00    -0.358 OA
ATOM     94  H62 UNL     1      17.846  10.034   5.899 +0.38 +0.00    +0.217 HD
ENDBRANCH  27  93
BRANCH  34  95
ATOM     95  C50 UNL     1      10.903   4.415   7.912 -0.40 +0.00    +0.146 C 
ATOM     96  C51 UNL     1      10.456   2.962   8.032 +0.15 +0.00    +0.042 C 
BRANCH  95  97
ATOM     97  O14 UNL     1      12.151   4.390   7.196 -0.22 -0.00    -0.393 OA
ATOM     98  H61 UNL     1      12.023   4.864   6.354 +0.16 +0.00    +0.210 HD
ENDBRANCH  95  97
ENDBRANCH  34  95
BRANCH  55  99
ATOM     99  O9  UNL     1      10.761   2.184  -3.543 +7.25 -0.00    -0.282 OA
ATOM    100  H60 UNL     1      11.026   3.117  -3.613 +0.17 +0.00    +0.245 HD
ENDBRANCH  55  99
BRANCH  37 101
ATOM    101  O12 UNL     1       5.623   8.772   9.574+35.72 -0.00    -0.358 OA
ATOM    102  C45 UNL     1       5.269   9.845   8.700 +0.13 +0.00    +0.209 C 
ENDBRANCH  37 101
BRANCH   1 103
ATOM    103  O2  UNL     1       5.921   2.845   2.644 -0.07 -0.00    -0.343 OA
BRANCH 103 104
ATOM    104  C6  UNL     1       6.071   3.452   3.924 -0.14 +0.00    +0.264 C 
ATOM    105  C5  UNL     1       4.823   4.304   4.171 -0.16 +0.00    +0.100 C 
ATOM    106  C4  UNL     1       4.382   4.333   5.652 -0.27 +0.00    +0.092 C 
ATOM    107  C3  UNL     1       5.675   4.281   6.539 -0.31 +0.00    +0.284 C 
ATOM    108  C62 UNL     1       3.369   3.205   5.909 -0.30 +0.00    +0.048 C 
ATOM    109  C2  UNL     1       6.436   2.950   6.239+27.36 +0.00    +0.157 C 
ATOM    110  C1  UNL     1       7.943   3.061   6.465 +4.52 +0.00    +0.042 C 
ATOM    111  O1  UNL     1       6.187   2.448   4.918 +4.70 -0.00    -0.354 OA
BRANCH 106 112
ATOM    112  O18 UNL     1       3.691   5.577   5.853 -0.08 -0.00    -0.388 OA
ATOM    113  H63 UNL     1       3.583   5.712   6.811 +0.09 +0.00    +0.210 HD
ENDBRANCH 106 112
BRANCH 107 114
ATOM    114  N14 UNL     1       5.641   4.553   7.999 +1.67 +0.00    +0.090 N 
ATOM    115  C63 UNL     1       6.976   4.793   8.554+15.31 +0.00    +0.310 C 
ATOM    116  C64 UNL     1       4.731   5.602   8.435+31.27 +0.00    +0.310 C 
ENDBRANCH 107 114
ENDBRANCH 103 104
ENDBRANCH   1 103
TORSDOF 14
TER
