USER    Run = 1
USER    DPF = ligand_385_receptor.dpf
USER  
USER    Estimated Free Energy of Binding    =  +4.44e+004 kcal/mol  [=(1)+(2)+(3)-(4)]
USER    
USER    (1) Final Intermolecular Energy     =  +4.44e+004 kcal/mol
USER        vdW + Hbond + desolv Energy     =  +4.44e+004 kcal/mol
USER        Electrostatic Energy            =   +0.00 kcal/mol
USER    (2) Final Total Internal Energy     =   +0.00 kcal/mol
USER    (3) Torsional Free Energy           =   +1.19 kcal/mol
USER    (4) Unbound System's Energy  [=(2)] =   +0.00 kcal/mol
USER    
USER    
USER    NEWDPF move ligand_385.pdbqt
USER    NEWDPF about 0.000000 0.000000 0.000000
USER    NEWDPF tran0 14.927224 7.770437 0.830162
USER    NEWDPF quaternion0 -0.669425 -0.045334 0.140661 -0.728031
USER    NEWDPF axisangle0 -0.976487 -0.066128 0.205181 -86.556859
USER    NEWDPF quat0 -0.976487 -0.066128 0.205181 -86.556859
USER  keepresnum = 1 
USER  
REMARK  0 active torsions:
REMARK  status: ('A' for Active; 'I' for Inactive)
REMARK       I    between atoms: C2_2  and  C3_3 
REMARK       I    between atoms: C3_3  and  C5_5 
REMARK       I    between atoms: C5_5  and  C42_42 
REMARK       I    between atoms: C5_5  and  N1_73 
REMARK       I    between atoms: C6_6  and  C7_7 
REMARK       I    between atoms: C6_6  and  N1_73 
REMARK       I    between atoms: C14_14  and  C15_15 
REMARK       I    between atoms: C14_14  and  N2_74 
REMARK       I    between atoms: C15_15  and  C16_16 
REMARK       I    between atoms: C15_15  and  N3_75 
REMARK       I    between atoms: C16_16  and  C17_17 
REMARK       I    between atoms: C17_17  and  C18_18 
REMARK       I    between atoms: C18_18  and  O4_91 
REMARK       I    between atoms: C19_19  and  C20_20 
REMARK       I    between atoms: C19_19  and  N3_75 
REMARK       I    between atoms: C20_20  and  C21_21 
REMARK       I    between atoms: C20_20  and  N4_76 
REMARK       I    between atoms: C21_21  and  C22_22 
REMARK       I    between atoms: C28_28  and  C29_29 
REMARK       I    between atoms: C28_28  and  N4_76 
REMARK       I    between atoms: C29_29  and  C30_30 
REMARK       I    between atoms: C29_29  and  N5_77 
REMARK       I    between atoms: C30_30  and  C31_31 
REMARK       I    between atoms: C31_31  and  O8_95 
REMARK       I    between atoms: C32_32  and  C33_33 
REMARK       I    between atoms: C32_32  and  N5_77 
REMARK       I    between atoms: C33_33  and  N6_78 
REMARK       I    between atoms: C34_34  and  C35_35 
REMARK       I    between atoms: C34_34  and  N6_78 
REMARK       I    between atoms: C38_38  and  N7_79 
REMARK       I    between atoms: C39_39  and  N7_79 
REMARK       I    between atoms: C39_39  and  N9_82 
REMARK       I    between atoms: C42_42  and  N10_83 
REMARK       I    between atoms: C46_46  and  C47_47 
REMARK       I    between atoms: C47_47  and  N11_84 
REMARK       I    between atoms: C48_48  and  C49_49 
REMARK       I    between atoms: C48_48  and  C52_52 
REMARK       I    between atoms: C48_48  and  N11_84 
REMARK       I    between atoms: C49_49  and  C50_50 
REMARK       I    between atoms: C50_50  and  C51_51 
REMARK       I    between atoms: C51_51  and  O14_101 
REMARK       I    between atoms: C52_52  and  N12_85 
REMARK       I    between atoms: C53_53  and  C54_54 
REMARK       I    between atoms: C53_53  and  C57_57 
REMARK       I    between atoms: C53_53  and  N12_85 
REMARK       I    between atoms: C54_54  and  C55_55 
REMARK       I    between atoms: C55_55  and  C56_56 
REMARK       I    between atoms: C56_56  and  O17_104 
REMARK       I    between atoms: C57_57  and  N13_86 
REMARK       I    between atoms: C58_58  and  C59_59 
REMARK       I    between atoms: C58_58  and  C66_66 
REMARK       I    between atoms: C58_58  and  N13_86 
REMARK       I    between atoms: C59_59  and  C60_60 
REMARK       I    between atoms: C63_63  and  O19_106 
REMARK       I    between atoms: C66_66  and  N14_87 
REMARK       I    between atoms: C67_67  and  C68_68 
REMARK       I    between atoms: C67_67  and  C72_72 
REMARK       I    between atoms: C67_67  and  N14_87 
REMARK       I    between atoms: C68_68  and  C69_69 
REMARK       I    between atoms: C72_72  and  O22_109 
USER                              x       y       z     vdW  Elec       q    Type
USER                           _______ _______ _______ _____ _____    ______ ____
ROOT
ATOM      1  C1  UNL     1      12.107   9.769   3.495+17.69 +0.00    +0.005 C 
ATOM      2  C2  UNL     1      11.918   8.594   2.547+12.05 +0.00    +0.002 C 
ATOM      3  C3  UNL     1      12.963   7.457   2.610 -0.15 +0.00    +0.013 C 
ATOM      4  C4  UNL     1      13.150   6.922   4.034 -0.48 +0.00    +0.012 C 
ATOM      5  C5  UNL     1      14.329   7.757   1.941 +4.37 +0.00    +0.180 C 
ATOM      6  C6  UNL     1      16.101   8.810   3.336 -0.39 +0.00    +0.241 C 
ATOM      7  C7  UNL     1      16.778  10.159   3.706 -0.31 +0.00    +0.183 C 
ATOM      8  C8  UNL     1      15.878  11.006   4.643+99.99 +0.00    +0.018 C 
ATOM      9  C9  UNL     1      16.663  12.274   5.045+99.99 +0.00    +0.009 C 
ATOM     10  C10 UNL     1      17.946  11.876   5.799+99.99 +0.00    +0.026 C 
ATOM     11  C11 UNL     1      18.096  10.343   5.794+24.60 +0.00    +0.088 C 
ATOM     12  C12 UNL     1      16.904   9.718   6.539+99.99 +0.00    +0.026 C 
ATOM     13  C13 UNL     1      15.585  10.220   5.935+54.59 +0.00    +0.009 C 
ATOM     14  C14 UNL     1      19.146   9.507   3.612 +0.94 +0.00    +0.243 C 
ATOM     15  C15 UNL     1      20.440   9.053   4.336 +7.58 +0.00    +0.177 C 
ATOM     16  C16 UNL     1      21.346  10.245   4.694+99.99 +0.00    +0.045 C 
ATOM     17  C17 UNL     1      22.649   9.850   5.394 +0.14 +0.00    +0.112 C 
ATOM     18  C18 UNL     1      22.408   9.290   6.769 +4.09 +0.00    +0.139 C 
ATOM     19  C19 UNL     1      21.866   8.225   2.425 +1.71 +0.00    +0.241 C 
ATOM     20  C20 UNL     1      22.103   6.979   1.550+99.99 +0.00    +0.180 C 
ATOM     21  C21 UNL     1      23.597   6.716   1.284 -0.29 +0.00    +0.073 C 
ATOM     22  C22 UNL     1      24.235   7.269   0.027 -0.43 -0.00    -0.056 A 
ATOM     23  C23 UNL     1      24.411   8.643  -0.173 -0.11 +0.00    +0.007 A 
ATOM     24  C24 UNL     1      25.064   9.121  -1.313+66.86 +0.00    +0.001 A 
ATOM     25  C25 UNL     1      25.567   8.233  -2.259+99.99 +0.00    +0.000 A 
ATOM     26  C26 UNL     1      25.402   6.864  -2.075 +0.10 +0.00    +0.001 A 
ATOM     27  C27 UNL     1      24.736   6.385  -0.943 -0.50 +0.00    +0.007 A 
ATOM     28  C28 UNL     1      20.687   6.002  -0.235+99.99 +0.00    +0.241 C 
ATOM     29  C29 UNL     1      19.804   6.300  -1.469+99.99 +0.00    +0.186 C 
ATOM     30  C30 UNL     1      20.634   6.170  -2.747+99.99 +0.00    +0.144 C 
ATOM     31  C31 UNL     1      21.649   7.271  -2.862+27.92 +0.00    +0.141 C 
ATOM     32  C32 UNL     1      17.973   7.809  -0.693+76.37 +0.00    +0.236 C 
ATOM     33  C33 UNL     1      17.575   9.283  -0.539 -0.29 +0.00    +0.225 C 
ATOM     34  C34 UNL     1      19.358  10.833  -1.298+76.70 +0.00    +0.252 C 
ATOM     35  C35 UNL     1      20.654  11.488  -0.962 +5.13 +0.00    +0.032 A 
ATOM     36  C36 UNL     1      21.025  11.811   0.343 +0.20 +0.00    +0.019 A 
ATOM     37  C37 UNL     1      22.291  12.356   0.597+99.99 +0.00    +0.030 A 
ATOM     38  C38 UNL     1      23.205  12.615  -0.438 +8.55 +0.00    +0.034 A 
ATOM     39  C39 UNL     1      25.549  13.384  -0.885+59.33 +0.00    +0.148 C 
ATOM     40  C40 UNL     1      22.811  12.298  -1.740 +5.21 +0.00    +0.030 A 
ATOM     41  C41 UNL     1      21.548  11.753  -2.003+99.99 +0.00    +0.019 A 
ATOM     42  C42 UNL     1      14.183   8.012   0.421+34.03 +0.00    +0.243 C 
ATOM     43  C43 UNL     1      14.192   5.535  -0.056+45.34 +0.00    +0.127 C 
ATOM     44  C44 UNL     1      14.001   4.765  -1.353+99.99 +0.00    +0.022 C 
ATOM     45  C45 UNL     1      14.555   5.727  -2.395+99.99 +0.00    +0.037 C 
ATOM     46  C46 UNL     1      14.087   7.093  -1.885+70.84 +0.00    +0.179 C 
ATOM     47  C47 UNL     1      12.721   7.507  -2.478+99.99 +0.00    +0.241 C 
ATOM     48  C48 UNL     1      10.965   9.283  -2.412 +6.78 +0.00    +0.177 C 
ATOM     49  C49 UNL     1      10.921   9.594  -3.919 -0.55 +0.00    +0.045 C 
ATOM     50  C50 UNL     1      10.084  10.834  -4.263 +5.67 +0.00    +0.112 C 
ATOM     51  C51 UNL     1       8.738  10.845  -3.596+99.99 +0.00    +0.139 C 
ATOM     52  C52 UNL     1       9.788   8.390  -1.944 -0.23 +0.00    +0.241 C 
ATOM     53  C53 UNL     1       8.854   7.270   0.097 -0.28 +0.00    +0.177 C 
ATOM     54  C54 UNL     1       7.408   7.274  -0.427 -0.26 +0.00    +0.045 C 
ATOM     55  C55 UNL     1       6.781   8.666  -0.521 +0.95 +0.00    +0.112 C 
ATOM     56  C56 UNL     1       5.578   8.622  -1.420 +7.01 +0.00    +0.139 C 
ATOM     57  C57 UNL     1       9.540   5.878   0.108 -0.14 +0.00    +0.241 C 
ATOM     58  C58 UNL     1       9.264   3.445   0.527 +0.10 +0.00    +0.180 C 
ATOM     59  C59 UNL     1       9.899   3.239   1.917+27.67 +0.00    +0.073 C 
ATOM     60  C60 UNL     1       9.045   3.749   3.062 -0.20 -0.00    -0.056 A 
ATOM     61  C61 UNL     1       9.302   5.008   3.626 -0.23 +0.00    +0.010 A 
ATOM     62  C62 UNL     1       8.497   5.507   4.652 -0.23 +0.00    +0.037 A 
ATOM     63  C63 UNL     1       7.430   4.744   5.114 -0.26 +0.00    +0.065 A 
ATOM     64  C64 UNL     1       7.165   3.493   4.573 -0.16 +0.00    +0.037 A 
ATOM     65  C65 UNL     1       7.973   2.992   3.552 -0.25 +0.00    +0.010 A 
ATOM     66  C66 UNL     1       8.162   2.405   0.233 -0.08 +0.00    +0.241 C 
ATOM     67  C67 UNL     1       6.056   2.044  -1.052 -0.07 +0.00    +0.182 C 
ATOM     68  C68 UNL     1       5.010   1.930   0.072 -0.14 +0.00    +0.040 C 
ATOM     69  C69 UNL     1       4.675   3.223   0.851 -0.12 -0.00    -0.020 C 
ATOM     70  C70 UNL     1       3.698   2.896   1.985 -0.12 +0.00    +0.009 C 
ATOM     71  C71 UNL     1       4.091   4.329  -0.026 -0.15 +0.00    +0.009 C 
ATOM     72  C72 UNL     1       5.479   2.607  -2.350 -0.07 +0.00    +0.163 C 
ATOM     73  N1  UNL     1      15.002   8.929   2.511 +0.31 -0.00    -0.346 N 
ATOM     74  N2  UNL     1      18.067   9.917   4.383 +0.49 -0.00    -0.332 N 
ATOM     75  N3  UNL     1      21.066   7.990   3.531 +2.62 -0.00    -0.346 N 
ATOM     76  N4  UNL     1      21.268   7.095   0.365+99.99 -0.00    -0.346 N 
ATOM     77  N5  UNL     1      19.151   7.604  -1.372+99.99 -0.00    -0.346 N 
ATOM     78  N6  UNL     1      18.734  10.129  -0.293 +0.10 -0.00    -0.348 N 
ATOM     79  N7  UNL     1      24.493  13.068  -0.088 +5.92 -0.00    -0.333 N 
ATOM     80  N8  UNL     1      25.625  13.334  -2.165+99.99 -0.00    -0.376 N 
ATOM     81  H8  UNL     1      24.877  13.013  -2.780+25.54 +0.00    +0.158 HD
ATOM     82  N9  UNL     1      26.618  13.775  -0.145+63.11 -0.00    -0.274 NA
ATOM     83  N10 UNL     1      14.028   6.937  -0.423 -0.08 -0.00    -0.337 N 
ATOM     84  N11 UNL     1      12.215   8.682  -1.956+99.99 -0.00    -0.346 N 
ATOM     85  N12 UNL     1       9.781   8.182  -0.574 +0.48 -0.00    -0.346 N 
ATOM     86  N13 UNL     1       8.723   4.799   0.341 -0.01 -0.00    -0.346 N 
ATOM     87  N14 UNL     1       7.207   2.848  -0.656 +0.01 -0.00    -0.345 N 
ATOM     88  O1  UNL     1      16.478   7.727   3.783 -0.84 -0.00    -0.271 OA
ATOM     89  O2  UNL     1      19.064   9.480   2.379 -0.28 -0.00    -0.271 OA
ATOM     90  O3  UNL     1      21.361   9.304   7.393 +0.18 -0.00    -0.650 OA
ATOM     91  O4  UNL     1      23.524   8.760   7.303+99.99 -0.00    -0.776 OA
ATOM     92  O5  UNL     1      22.290   9.339   2.134 -0.30 -0.00    -0.271 OA
ATOM     93  O6  UNL     1      20.942   4.852   0.121+60.42 -0.00    -0.271 OA
ATOM     94  O7  UNL     1      21.647   8.319  -2.236+99.99 -0.00    -0.650 OA
ATOM     95  O8  UNL     1      22.593   7.011  -3.782+12.15 -0.00    -0.776 OA
ATOM     96  O9  UNL     1      17.242   6.888  -0.339+18.54 -0.00    -0.272 OA
ATOM     97  O10 UNL     1      18.925  10.861  -2.445+99.99 -0.00    -0.268 OA
ATOM     98  O11 UNL     1      14.153   9.173  -0.013+99.99 -0.00    -0.271 OA
ATOM     99  O12 UNL     1      12.164   6.900  -3.387 -0.37 -0.00    -0.271 OA
ATOM    100  O13 UNL     1       8.517  11.304  -2.485+99.99 -0.00    -0.650 OA
ATOM    101  O14 UNL     1       7.788  10.209  -4.301+99.99 -0.00    -0.776 OA
ATOM    102  O15 UNL     1       8.884   8.016  -2.682 -0.30 -0.00    -0.271 OA
ATOM    103  O16 UNL     1       4.542   8.021  -1.190+38.12 -0.00    -0.650 OA
ATOM    104  O17 UNL     1       5.732   9.310  -2.572+99.99 -0.00    -0.776 OA
ATOM    105  O18 UNL     1      10.764   5.757   0.026 -0.20 -0.00    -0.271 OA
ATOM    106  O19 UNL     1       6.615   5.191   6.111 -0.19 -0.00    -0.361 OA
ATOM    107  O20 UNL     1       8.171   1.260   0.675 -0.18 -0.00    -0.271 OA
ATOM    108  O21 UNL     1       5.877   3.604  -2.937 -0.00 -0.00    -0.648 OA
ATOM    109  O22 UNL     1       4.466   1.879  -2.856 +0.07 -0.00    -0.775 OA
ATOM    110  H78 UNL     1      14.883   9.790   1.985 -0.40 +0.00    +0.163 HD
ATOM    111  H79 UNL     1      20.501   7.148   3.469 +0.45 +0.00    +0.163 HD
ATOM    112  H80 UNL     1      21.304   7.972  -0.151 +1.01 +0.00    +0.163 HD
ATOM    113  H81 UNL     1      19.713   8.430  -1.563 +0.45 +0.00    +0.163 HD
ATOM    114  H82 UNL     1      19.181   9.992   0.614 +0.13 +0.00    +0.163 HD
ATOM    115  H83 UNL     1      24.528  13.480   0.833 +3.42 +0.00    +0.168 HD
ATOM    116  H84 UNL     1      26.537  13.660  -2.481+99.99 +0.00    +0.158 HD
ATOM    117  H85 UNL     1      26.754  13.210   0.686 +0.07 +0.00    +0.127 HD
ATOM    118  H86 UNL     1      27.485  13.834  -0.664+40.55 +0.00    +0.127 HD
ATOM    119  H87 UNL     1      12.823   9.208  -1.328+99.99 +0.00    +0.163 HD
ATOM    120  H88 UNL     1      10.724   8.175  -0.195 +0.09 +0.00    +0.163 HD
ATOM    121  H89 UNL     1       7.811   4.959   0.751 +0.07 +0.00    +0.163 HD
ATOM    122  H90 UNL     1       7.385   3.710  -1.169 +0.05 +0.00    +0.163 HD
ATOM    123  H91 UNL     1      23.251   8.442   8.189+29.57 +0.00    +0.167 HD
ATOM    124  H92 UNL     1      23.211   7.770  -3.700 +0.49 +0.00    +0.167 HD
ATOM    125  H93 UNL     1       7.081  10.011  -3.641+99.99 +0.00    +0.167 HD
ATOM    126  H94 UNL     1       4.881   9.132  -3.034 +1.64 +0.00    +0.167 HD
ATOM    127  H95 UNL     1       6.954   6.042   6.433 +0.12 +0.00    +0.217 HD
ATOM    128  H96 UNL     1       4.223   2.346  -3.684 +0.03 +0.00    +0.167 HD
ENDROOT
TORSDOF 47
TER
