USER    Run = 1
USER    DPF = ligand_151_receptor.dpf
USER  
USER    Estimated Free Energy of Binding    = +604.94 kcal/mol  [=(1)+(2)+(3)-(4)]
USER    
USER    (1) Final Intermolecular Energy     = +603.75 kcal/mol
USER        vdW + Hbond + desolv Energy     = +603.75 kcal/mol
USER        Electrostatic Energy            =   +0.00 kcal/mol
USER    (2) Final Total Internal Energy     =   +1.69 kcal/mol
USER    (3) Torsional Free Energy           =   +1.19 kcal/mol
USER    (4) Unbound System's Energy  [=(2)] =   +1.69 kcal/mol
USER    
USER    
USER    NEWDPF move ligand_151.pdbqt
USER    NEWDPF about 0.000000 0.000000 0.000000
USER    NEWDPF tran0 14.277902 10.864870 6.446544
USER    NEWDPF quaternion0 0.771331 0.090694 -0.470726 -0.418617
USER    NEWDPF axisangle0 0.849331 0.099865 -0.518328 -130.505444
USER    NEWDPF quat0 0.849331 0.099865 -0.518328 -130.505444
USER    NEWDPF dihe0 -24.08 -173.08 -110.35 -94.68 -12.05 108.83 126.41 -180.00 -19.17 -162.10 -174.63 -163.89 -156.53 177.45 
USER  keepresnum = 1 
USER  
REMARK  14 active torsions:
REMARK  status: ('A' for Active; 'I' for Inactive)
REMARK    1  A    between atoms: C3_3  and  C35_35 
REMARK    2  A    between atoms: C5_5  and  N2_47 
REMARK    3  A    between atoms: C6_6  and  C7_7 
REMARK       I    between atoms: C6_6  and  N2_47 
REMARK    4  A    between atoms: C9_9  and  N4_49 
REMARK       I    between atoms: C11_11  and  N4_49 
REMARK       I    between atoms: C11_11  and  N5_50 
REMARK    5  A    between atoms: C12_12  and  N5_50 
REMARK    6  A    between atoms: C14_14  and  C17_17 
REMARK       I    between atoms: C17_17  and  N7_52 
REMARK    7  A    between atoms: C18_18  and  N7_52 
REMARK    8  A    between atoms: C20_20  and  C23_23 
REMARK       I    between atoms: C23_23  and  N9_54 
REMARK    9  A    between atoms: C24_24  and  N9_54 
REMARK   10  A    between atoms: C26_26  and  S2_74 
REMARK   11  A    between atoms: C30_30  and  S1_73 
REMARK       I    between atoms: C35_35  and  N10_55 
REMARK   12  A    between atoms: C36_36  and  N10_55 
REMARK   13  A    between atoms: C38_38  and  S4_76 
REMARK   14  A    between atoms: C42_42  and  S3_75 
USER                              x       y       z     vdW  Elec       q    Type
USER                           _______ _______ _______ _____ _____    ______ ____
ROOT
ATOM      1  C11 UNL     1      14.743  10.209   6.452+41.87 +0.00    +0.327 C 
ATOM      2  N4  UNL     1      16.119  10.391   6.575+56.02 -0.00    -0.294 N 
ATOM      3  N5  UNL     1      14.122  10.520   7.658 +0.30 -0.00    -0.294 N 
ATOM      4  O2  UNL     1      14.168   9.835   5.437+10.64 -0.00    -0.247 OA
ATOM      5  H32 UNL     1      16.476  10.533   7.507 +3.58 +0.00    +0.172 HD
ATOM      6  H33 UNL     1      14.561  11.267   8.178 -0.05 +0.00    +0.172 HD
ENDROOT
BRANCH   2   7
ATOM      7  C9  UNL     1      17.018  10.189   5.541 +6.43 +0.00    +0.111 A 
ATOM      8  C10 UNL     1      18.345   9.800   5.552+35.69 +0.00    +0.067 A 
ATOM      9  C7  UNL     1      18.830   9.756   4.209+10.32 +0.00    +0.051 A 
ATOM     10  C8  UNL     1      17.751  10.115   3.419 -0.35 +0.00    +0.109 A 
ATOM     11  N3  UNL     1      16.670  10.368   4.221 +0.02 -0.00    -0.346 N 
ATOM     12  C34 UNL     1      15.374  10.768   3.720+34.94 +0.00    +0.157 C 
BRANCH   9  13
ATOM     13  C6  UNL     1      20.159   9.423   3.671 +2.92 +0.00    +0.258 C 
ATOM     14  N2  UNL     1      20.279   9.642   2.308 -0.20 -0.00    -0.309 N 
ATOM     15  H31 UNL     1      19.482  10.015   1.819 +0.13 +0.00    +0.170 HD
ATOM     16  O1  UNL     1      21.039   8.994   4.409 +1.67 -0.00    -0.267 OA
BRANCH  14  17
ATOM     17  C5  UNL     1      21.429   9.376   1.581 -0.11 +0.00    +0.110 A 
ATOM     18  C4  UNL     1      22.743   9.193   1.975 -0.40 +0.00    +0.067 A 
ATOM     19  C3  UNL     1      23.543   8.935   0.819 -0.42 +0.00    +0.051 A 
ATOM     20  C2  UNL     1      22.664   8.982  -0.252 -0.32 +0.00    +0.109 A 
ATOM     21  N1  UNL     1      21.405   9.244   0.210 +0.10 -0.00    -0.346 N 
ATOM     22  C1  UNL     1      20.243   9.359  -0.643 +7.98 +0.00    +0.157 C 
BRANCH  19  23
ATOM     23  C35 UNL     1      24.985   8.667   0.666 -0.13 +0.00    +0.257 C 
ATOM     24  N10 UNL     1      25.272   7.530  -0.064 -0.16 -0.00    -0.323 N 
ATOM     25  H36 UNL     1      24.485   7.007  -0.414 +0.13 +0.00    +0.169 HD
ATOM     26  O11 UNL     1      25.800   9.432   1.167 -0.15 -0.00    -0.267 OA
BRANCH  24  27
ATOM     27  C36 UNL     1      26.541   7.002  -0.399 -0.34 +0.00    +0.037 A 
ATOM     28  C37 UNL     1      27.749   7.670  -0.239 -0.30 +0.00    +0.056 A 
ATOM     29  C38 UNL     1      28.959   7.048  -0.612 -0.20 +0.00    +0.093 A 
ATOM     30  C39 UNL     1      28.991   5.729  -1.158 -0.19 -0.00    -0.001 A 
ATOM     31  C40 UNL     1      30.156   5.021  -1.566 -0.08 +0.00    +0.015 A 
ATOM     32  C44 UNL     1      27.748   5.065  -1.310 -0.25 -0.00    -0.021 A 
ATOM     33  C41 UNL     1      30.096   3.724  -2.094 -0.08 +0.00    +0.027 A 
ATOM     34  C42 UNL     1      28.861   3.101  -2.222 -0.16 +0.00    +0.081 A 
ATOM     35  C43 UNL     1      27.694   3.764  -1.841 -0.26 +0.00    +0.038 A 
ATOM     36  C45 UNL     1      26.555   5.706  -0.932 -0.34 +0.00    +0.042 A 
BRANCH  29  37
ATOM     37  S4  UNL     1      30.504   7.995  -0.372 -0.25 +0.00    +0.138 S 
ATOM     38  O15 UNL     1      31.309   7.608  -1.528 +0.04 -0.00    -0.591 OA
ATOM     39  O16 UNL     1      30.984   7.519   0.923 -0.01 -0.00    -0.591 OA
ATOM     40  O17 UNL     1      30.080   9.394  -0.377 -0.00 -0.00    -0.591 OA
ENDBRANCH  29  37
BRANCH  34  41
ATOM     41  S3  UNL     1      28.723   1.434  -2.919 +0.15 +0.00    +0.137 S 
ATOM     42  O12 UNL     1      29.173   1.632  -4.295 +0.02 -0.00    -0.591 OA
ATOM     43  O13 UNL     1      27.309   1.099  -2.769 +0.65 -0.00    -0.591 OA
ATOM     44  O14 UNL     1      29.630   0.655  -2.077 +1.09 -0.00    -0.591 OA
ENDBRANCH  34  41
ENDBRANCH  24  27
ENDBRANCH  19  23
ENDBRANCH  14  17
ENDBRANCH   9  13
ENDBRANCH   2   7
BRANCH   3  45
ATOM     45  C12 UNL     1      12.783  10.298   7.948 +0.22 +0.00    +0.111 A 
ATOM     46  C13 UNL     1      11.979   9.358   7.323 +0.66 +0.00    +0.067 A 
ATOM     47  C14 UNL     1      10.673   9.409   7.894+14.44 +0.00    +0.051 A 
ATOM     48  C15 UNL     1      10.731  10.410   8.847+10.57 +0.00    +0.109 A 
ATOM     49  N6  UNL     1      11.983  10.982   8.836 +0.80 -0.00    -0.346 N 
ATOM     50  C16 UNL     1      12.273  12.195   9.571+36.14 +0.00    +0.157 C 
BRANCH  47  51
ATOM     51  C17 UNL     1       9.471   8.612   7.612+74.12 +0.00    +0.258 C 
ATOM     52  N7  UNL     1       8.379   8.980   8.374+20.64 -0.00    -0.309 N 
ATOM     53  H34 UNL     1       8.572   9.547   9.189 +0.16 +0.00    +0.170 HD
ATOM     54  O3  UNL     1       9.513   7.691   6.803+15.03 -0.00    -0.267 OA
BRANCH  52  55
ATOM     55  C18 UNL     1       7.116   8.412   8.343+30.24 +0.00    +0.110 A 
ATOM     56  C19 UNL     1       6.732   7.415   7.463+70.80 +0.00    +0.067 A 
ATOM     57  C20 UNL     1       5.356   7.101   7.666 -0.15 +0.00    +0.051 A 
ATOM     58  C21 UNL     1       4.955   7.901   8.722+16.86 +0.00    +0.109 A 
ATOM     59  N8  UNL     1       6.031   8.654   9.156 +7.56 -0.00    -0.346 N 
ATOM     60  C22 UNL     1       5.967   9.424  10.379+59.39 +0.00    +0.157 C 
BRANCH  57  61
ATOM     61  C23 UNL     1       4.580   6.114   6.896 -0.27 +0.00    +0.257 C 
ATOM     62  N9  UNL     1       5.318   5.430   5.951 -0.15 -0.00    -0.323 N 
ATOM     63  H35 UNL     1       6.299   5.652   5.892 +0.08 +0.00    +0.169 HD
ATOM     64  O4  UNL     1       3.386   5.967   7.130 -0.21 -0.00    -0.267 OA
BRANCH  62  65
ATOM     65  C24 UNL     1       4.885   4.436   5.047 -0.22 +0.00    +0.037 A 
ATOM     66  C25 UNL     1       4.570   3.195   5.596 -0.28 +0.00    +0.056 A 
ATOM     67  C26 UNL     1       4.132   2.135   4.784 -0.25 +0.00    +0.093 A 
ATOM     68  C27 UNL     1       3.995   2.290   3.378 -0.17 -0.00    -0.001 A 
ATOM     69  C28 UNL     1       3.559   1.283   2.477 -0.19 +0.00    +0.015 A 
ATOM     70  C32 UNL     1       4.322   3.563   2.833 -0.11 -0.00    -0.021 A 
ATOM     71  C29 UNL     1       3.450   1.515   1.101 -0.14 +0.00    +0.027 A 
ATOM     72  C30 UNL     1       3.783   2.765   0.593 -0.08 +0.00    +0.081 A 
ATOM     73  C31 UNL     1       4.208   3.785   1.449 -0.11 +0.00    +0.038 A 
ATOM     74  C33 UNL     1       4.759   4.611   3.672 -0.14 +0.00    +0.042 A 
BRANCH  67  75
ATOM     75  S2  UNL     1       3.756   0.561   5.624 +8.38 +0.00    +0.138 S 
ATOM     76  O8  UNL     1       3.826   0.916   7.039+16.20 -0.00    -0.591 OA
ATOM     77  O9  UNL     1       2.432   0.219   5.112 +0.04 -0.00    -0.591 OA
ATOM     78  O10 UNL     1       4.823  -0.338   5.176+14.12 -0.00    -0.591 OA
ENDBRANCH  67  75
BRANCH  72  79
ATOM     79  S1  UNL     1       3.636   3.115  -1.179 -0.14 +0.00    +0.137 S 
ATOM     80  O5  UNL     1       2.413   2.407  -1.553 +0.02 -0.00    -0.591 OA
ATOM     81  O6  UNL     1       4.862   2.561  -1.752 +0.02 -0.00    -0.591 OA
ATOM     82  O7  UNL     1       3.545   4.573  -1.204 -0.10 -0.00    -0.591 OA
ENDBRANCH  72  79
ENDBRANCH  62  65
ENDBRANCH  57  61
ENDBRANCH  52  55
ENDBRANCH  47  51
ENDBRANCH   3  45
TORSDOF 14
TER
