USER    Run = 1
USER    DPF = ligand_426_receptor.dpf
USER  
USER    Estimated Free Energy of Binding    =  +2.67e+004 kcal/mol  [=(1)+(2)+(3)-(4)]
USER    
USER    (1) Final Intermolecular Energy     =  +2.67e+004 kcal/mol
USER        vdW + Hbond + desolv Energy     =  +2.67e+004 kcal/mol
USER        Electrostatic Energy            =   +0.00 kcal/mol
USER    (2) Final Total Internal Energy     =   +0.00 kcal/mol
USER    (3) Torsional Free Energy           =   +1.19 kcal/mol
USER    (4) Unbound System's Energy  [=(2)] =   +0.00 kcal/mol
USER    
USER    
USER    NEWDPF move ligand_426.pdbqt
USER    NEWDPF about 0.000000 0.000000 0.000000
USER    NEWDPF tran0 15.888706 7.942680 4.237047
USER    NEWDPF quaternion0 0.610227 0.041709 0.021569 0.790834
USER    NEWDPF axisangle0 0.997053 0.068148 0.035241 75.472997
USER    NEWDPF quat0 0.997053 0.068148 0.035241 75.472997
USER  keepresnum = 1 
USER  
REMARK  0 active torsions:
REMARK  status: ('A' for Active; 'I' for Inactive)
REMARK       I    between atoms: C2_2  and  C3_3 
REMARK       I    between atoms: C2_2  and  O11_65 
REMARK       I    between atoms: C3_3  and  C4_4 
REMARK       I    between atoms: C3_3  and  N2_67 
REMARK       I    between atoms: C4_4  and  N1_66 
REMARK       I    between atoms: C5_5  and  C6_6 
REMARK       I    between atoms: C5_5  and  N2_67 
REMARK       I    between atoms: C6_6  and  C7_7 
REMARK       I    between atoms: C6_6  and  N6_72 
REMARK       I    between atoms: C7_7  and  C8_8 
REMARK       I    between atoms: C8_8  and  C9_9 
REMARK       I    between atoms: C9_9  and  N3_68 
REMARK       I    between atoms: C10_10  and  N4_70 
REMARK       I    between atoms: C10_10  and  N5_71 
REMARK       I    between atoms: C11_11  and  C12_12 
REMARK       I    between atoms: C11_11  and  N6_72 
REMARK       I    between atoms: C12_12  and  C13_13 
REMARK       I    between atoms: C12_12  and  N8_74 
REMARK       I    between atoms: C13_13  and  C14_14 
REMARK       I    between atoms: C14_14  and  C15_15 
REMARK       I    between atoms: C15_15  and  C16_16 
REMARK       I    between atoms: C16_16  and  N7_73 
REMARK       I    between atoms: C17_17  and  C18_18 
REMARK       I    between atoms: C17_17  and  N8_74 
REMARK       I    between atoms: C18_18  and  C19_19 
REMARK       I    between atoms: C18_18  and  N10_76 
REMARK       I    between atoms: C19_19  and  C20_20 
REMARK       I    between atoms: C20_20  and  C21_21 
REMARK       I    between atoms: C21_21  and  C22_22 
REMARK       I    between atoms: C22_22  and  N9_75 
REMARK       I    between atoms: C23_23  and  C24_24 
REMARK       I    between atoms: C23_23  and  N10_76 
REMARK       I    between atoms: C24_24  and  C25_25 
REMARK       I    between atoms: C24_24  and  N14_81 
REMARK       I    between atoms: C25_25  and  C26_26 
REMARK       I    between atoms: C26_26  and  C27_27 
REMARK       I    between atoms: C27_27  and  N11_77 
REMARK       I    between atoms: C28_28  and  N12_79 
REMARK       I    between atoms: C28_28  and  N13_80 
REMARK       I    between atoms: C29_29  and  C30_30 
REMARK       I    between atoms: C29_29  and  N14_81 
REMARK       I    between atoms: C30_30  and  C31_31 
REMARK       I    between atoms: C30_30  and  N15_82 
REMARK       I    between atoms: C31_31  and  C32_32 
REMARK       I    between atoms: C38_38  and  C39_39 
REMARK       I    between atoms: C38_38  and  N15_82 
REMARK       I    between atoms: C39_39  and  C40_40 
REMARK       I    between atoms: C39_39  and  N19_87 
REMARK       I    between atoms: C40_40  and  C41_41 
REMARK       I    between atoms: C41_41  and  C42_42 
REMARK       I    between atoms: C42_42  and  N16_83 
REMARK       I    between atoms: C43_43  and  N17_85 
REMARK       I    between atoms: C43_43  and  N18_86 
REMARK       I    between atoms: C44_44  and  C45_45 
REMARK       I    between atoms: C44_44  and  N19_87 
REMARK       I    between atoms: C45_45  and  N20_88 
REMARK       I    between atoms: C47_47  and  C48_48 
REMARK       I    between atoms: C47_47  and  N20_88 
REMARK       I    between atoms: C48_48  and  C49_49 
REMARK       I    between atoms: C48_48  and  N24_93 
REMARK       I    between atoms: C49_49  and  C50_50 
REMARK       I    between atoms: C50_50  and  C51_51 
REMARK       I    between atoms: C51_51  and  N21_89 
REMARK       I    between atoms: C52_52  and  N22_91 
REMARK       I    between atoms: C52_52  and  N23_92 
REMARK       I    between atoms: C53_53  and  N24_93 
USER                              x       y       z     vdW  Elec       q    Type
USER                           _______ _______ _______ _____ _____    ______ ____
ROOT
ATOM      1  C1  UNL     1       6.148   3.208   5.926 +3.86 +0.00    +0.042 C 
ATOM      2  C2  UNL     1       6.055   3.768   4.511 -0.21 +0.00    +0.145 C 
ATOM      3  C3  UNL     1       7.423   3.916   3.813 -0.19 +0.00    +0.199 C 
ATOM      4  C4  UNL     1       7.170   4.039   2.303 -0.08 +0.00    +0.220 C 
ATOM      5  C5  UNL     1       9.056   5.096   5.271 -0.20 +0.00    +0.241 C 
ATOM      6  C6  UNL     1       9.752   6.454   5.524 +0.03 +0.00    +0.176 C 
ATOM      7  C7  UNL     1       8.843   7.233   6.490+99.99 +0.00    +0.036 C 
ATOM      8  C8  UNL     1       9.529   8.372   7.255+64.30 +0.00    +0.022 C 
ATOM      9  C9  UNL     1       9.689   9.670   6.469+31.07 +0.00    +0.121 C 
ATOM     10  C10 UNL     1       8.047  10.358   4.879+99.99 +0.00    +0.121 C 
ATOM     11  C11 UNL     1      10.992   6.710   3.412 -0.24 +0.00    +0.241 C 
ATOM     12  C12 UNL     1      11.460   7.732   2.355 +0.42 +0.00    +0.176 C 
ATOM     13  C13 UNL     1      11.988   7.081   1.071 +0.17 +0.00    +0.035 C 
ATOM     14  C14 UNL     1      10.916   6.479   0.157 -0.38 +0.00    +0.004 C 
ATOM     15  C15 UNL     1      10.580   5.022   0.480 +0.78 +0.00    +0.030 C 
ATOM     16  C16 UNL     1       9.771   4.383  -0.650 -0.08 +0.00    +0.267 C 
ATOM     17  C17 UNL     1      12.423   9.645   3.644+15.91 +0.00    +0.241 C 
ATOM     18  C18 UNL     1      13.657  10.098   4.461+99.99 +0.00    +0.176 C 
ATOM     19  C19 UNL     1      14.375  11.253   3.744+99.99 +0.00    +0.035 C 
ATOM     20  C20 UNL     1      15.092  10.902   2.435 +0.51 +0.00    +0.004 C 
ATOM     21  C21 UNL     1      14.220  11.061   1.184+45.24 +0.00    +0.030 C 
ATOM     22  C22 UNL     1      14.969  10.702  -0.101 +9.48 +0.00    +0.267 C 
ATOM     23  C23 UNL     1      14.124   8.021   5.693 +0.22 +0.00    +0.241 C 
ATOM     24  C24 UNL     1      15.137   6.895   6.025 +1.04 +0.00    +0.176 C 
ATOM     25  C25 UNL     1      14.482   5.534   5.725 +2.87 +0.00    +0.036 C 
ATOM     26  C26 UNL     1      13.710   4.965   6.920 -0.61 +0.00    +0.022 C 
ATOM     27  C27 UNL     1      12.796   3.802   6.527 -0.18 +0.00    +0.121 C 
ATOM     28  C28 UNL     1      13.315   2.430   4.664+99.99 +0.00    +0.121 C 
ATOM     29  C29 UNL     1      17.540   6.406   5.705+99.99 +0.00    +0.241 C 
ATOM     30  C30 UNL     1      18.640   6.264   4.627+99.99 +0.00    +0.180 C 
ATOM     31  C31 UNL     1      19.799   5.409   5.163+99.99 +0.00    +0.073 C 
ATOM     32  C32 UNL     1      20.806   5.050   4.094+23.79 -0.00    -0.056 A 
ATOM     33  C33 UNL     1      21.902   5.886   3.838+99.99 +0.00    +0.007 A 
ATOM     34  C34 UNL     1      22.807   5.572   2.825+99.99 +0.00    +0.001 A 
ATOM     35  C35 UNL     1      22.632   4.418   2.064 +2.50 +0.00    +0.000 A 
ATOM     36  C36 UNL     1      21.548   3.578   2.314+29.06 +0.00    +0.001 A 
ATOM     37  C37 UNL     1      20.637   3.894   3.322+61.36 +0.00    +0.007 A 
ATOM     38  C38 UNL     1      18.363   8.396   3.390 -0.39 +0.00    +0.241 C 
ATOM     39  C39 UNL     1      18.768   9.887   3.366 +0.21 +0.00    +0.176 C 
ATOM     40  C40 UNL     1      19.851  10.199   2.330 -0.47 +0.00    +0.036 C 
ATOM     41  C41 UNL     1      21.127   9.355   2.452 -0.42 +0.00    +0.022 C 
ATOM     42  C42 UNL     1      22.282   9.926   1.630 -0.17 +0.00    +0.121 C 
ATOM     43  C43 UNL     1      22.725  10.402  -0.630 +0.24 +0.00    +0.121 C 
ATOM     44  C44 UNL     1      18.231  10.354   5.728+66.79 +0.00    +0.240 C 
ATOM     45  C45 UNL     1      18.793  10.288   7.170+99.99 +0.00    +0.172 C 
ATOM     46  C46 UNL     1      17.925  11.121   8.106+70.07 +0.00    +0.042 C 
ATOM     47  C47 UNL     1      21.224   9.797   7.012+16.51 +0.00    +0.241 C 
ATOM     48  C48 UNL     1      22.649  10.189   7.491 +4.65 +0.00    +0.176 C 
ATOM     49  C49 UNL     1      22.968  11.690   7.406+99.99 +0.00    +0.036 C 
ATOM     50  C50 UNL     1      24.420  12.075   7.713+99.99 +0.00    +0.022 C 
ATOM     51  C51 UNL     1      24.891  11.622   9.093 +0.69 +0.00    +0.121 C 
ATOM     52  C52 UNL     1      27.262  11.652   8.978+99.99 +0.00    +0.121 C 
ATOM     53  C53 UNL     1      23.919   9.474   5.479 +2.37 +0.00    +0.214 C 
ATOM     54  C54 UNL     1      24.836   8.410   4.939 +3.08 +0.00    +0.117 C 
ATOM     55  O1  UNL     1       7.314   3.120   1.503 -0.07 -0.00    -0.278 OA
ATOM     56  O2  UNL     1       9.169   4.138   6.031 -0.24 -0.00    -0.271 OA
ATOM     57  O3  UNL     1      11.546   5.622   3.570 -0.15 -0.00    -0.271 OA
ATOM     58  O4  UNL     1      11.419  10.346   3.517 +8.54 -0.00    -0.271 OA
ATOM     59  O5  UNL     1      12.986   8.045   6.161 -0.28 -0.00    -0.271 OA
ATOM     60  O6  UNL     1      17.679   6.026   6.865+54.11 -0.00    -0.271 OA
ATOM     61  O7  UNL     1      17.483   7.932   2.667 -0.48 -0.00    -0.271 OA
ATOM     62  O8  UNL     1      17.022  10.297   5.496 +0.67 -0.00    -0.271 OA
ATOM     63  O9  UNL     1      20.986   8.735   6.429 +8.39 -0.00    -0.271 OA
ATOM     64  O10 UNL     1      23.510  10.399   4.787 -0.60 -0.00    -0.274 OA
ATOM     65  O11 UNL     1       5.395   5.048   4.568 -0.06 -0.00    -0.393 OA
ATOM     66  N1  UNL     1       6.659   5.245   1.888 -0.05 -0.00    -0.271 NA
ATOM     67  N2  UNL     1       8.135   5.123   4.246 -0.06 -0.00    -0.344 N 
ATOM     68  N3  UNL     1       8.370  10.163   6.096+99.99 -0.00    -0.372 N 
ATOM     69  H3  UNL     1       7.687  10.357   6.828+99.99 +0.00    +0.161 HD
ATOM     70  N4  UNL     1       6.793  10.765   4.587+99.99 -0.00    -0.279 NA
ATOM     71  N5  UNL     1       8.752  10.202   3.737+99.99 -0.00    -0.279 NA
ATOM     72  N6  UNL     1       9.973   7.149   4.246 -0.13 -0.00    -0.346 N 
ATOM     73  N7  UNL     1       9.540   2.972  -0.378 -0.15 +0.00    +0.078 N 
ATOM     74  N8  UNL     1      12.569   8.448   2.984 +0.41 -0.00    -0.346 N 
ATOM     75  N9  UNL     1      16.069  11.622  -0.362 +9.22 +0.00    +0.078 N 
ATOM     76  N10 UNL     1      14.551   8.975   4.781 +0.08 -0.00    -0.346 N 
ATOM     77  N11 UNL     1      13.567   2.749   5.876+83.54 -0.00    -0.372 N 
ATOM     78  H11 UNL     1      14.308   2.267   6.387+43.67 +0.00    +0.161 HD
ATOM     79  N12 UNL     1      14.005   1.413   4.099+99.99 -0.00    -0.279 NA
ATOM     80  N13 UNL     1      12.427   2.920   3.772+99.99 -0.00    -0.279 NA
ATOM     81  N14 UNL     1      16.376   7.006   5.254 +0.79 -0.00    -0.346 N 
ATOM     82  N15 UNL     1      19.077   7.614   4.278 +0.15 -0.00    -0.346 N 
ATOM     83  N16 UNL     1      21.954   9.825   0.211 -0.20 -0.00    -0.372 N 
ATOM     84  H16 UNL     1      21.132   9.308  -0.101 +0.11 +0.00    +0.161 HD
ATOM     85  N17 UNL     1      23.850  11.121  -0.428+35.71 -0.00    -0.279 NA
ATOM     86  N18 UNL     1      22.443  10.343  -1.949+99.99 -0.00    -0.279 NA
ATOM     87  N19 UNL     1      19.170  10.288   4.717+99.99 -0.00    -0.346 N 
ATOM     88  N20 UNL     1      20.202  10.666   7.319+61.42 -0.00    -0.346 N 
ATOM     89  N21 UNL     1      26.191  12.209   9.395 +8.48 -0.00    -0.372 N 
ATOM     90  H21 UNL     1      26.246  13.069   9.941 +0.06 +0.00    +0.161 HD
ATOM     91  N22 UNL     1      28.459  12.210   9.260 +0.27 -0.00    -0.279 NA
ATOM     92  N23 UNL     1      27.442  10.535   8.240+99.99 -0.00    -0.279 NA
ATOM     93  N24 UNL     1      23.619   9.321   6.816+99.99 -0.00    -0.348 N 
ATOM     94  H67 UNL     1       5.920   5.585   5.191 +0.10 +0.00    +0.210 HD
ATOM     95  H68 UNL     1       6.050   5.710   2.559 +0.05 +0.00    +0.127 HD
ATOM     96  H69 UNL     1       6.314   5.237   0.936 +0.05 +0.00    +0.127 HD
ATOM     97  H70 UNL     1       8.254   5.871   3.570 +0.09 +0.00    +0.163 HD
ATOM     98  H71 UNL     1       6.228  10.749   5.431+99.99 +0.00    +0.126 HD
ATOM     99  H72 UNL     1       6.359  10.213   3.859 +1.75 +0.00    +0.126 HD
ATOM    100  H73 UNL     1       9.762  10.341   3.857 +1.04 +0.00    +0.126 HD
ATOM    101  H74 UNL     1       8.457  10.877   3.040+99.99 +0.00    +0.126 HD
ATOM    102  H75 UNL     1       9.743   8.138   4.206 +0.08 +0.00    +0.163 HD
ATOM    103  H76 UNL     1       8.906   2.885   0.430 +0.10 +0.00    +0.312 HD
ATOM    104  H77 UNL     1       9.013   2.560  -1.147 +0.14 +0.00    +0.312 HD
ATOM    105  H78 UNL     1      13.379   7.900   3.259 +0.02 +0.00    +0.163 HD
ATOM    106  H79 UNL     1      16.533  11.355  -1.230 +5.83 +0.00    +0.312 HD
ATOM    107  H80 UNL     1      15.703  12.562  -0.508 +0.56 +0.00    +0.312 HD
ATOM    108  H81 UNL     1      15.542   9.212   4.883 +0.12 +0.00    +0.163 HD
ATOM    109  H82 UNL     1      14.529   0.933   4.823+77.97 +0.00    +0.126 HD
ATOM    110  H83 UNL     1      13.383   0.767   3.628+99.99 +0.00    +0.126 HD
ATOM    111  H84 UNL     1      12.766   2.892   2.819+99.99 +0.00    +0.126 HD
ATOM    112  H85 UNL     1      12.068   3.856   3.968 +0.43 +0.00    +0.126 HD
ATOM    113  H86 UNL     1      16.300   7.162   4.248 +0.08 +0.00    +0.163 HD
ATOM    114  H87 UNL     1      19.662   8.085   4.963 +0.14 +0.00    +0.163 HD
ATOM    115  H88 UNL     1      24.545  10.947  -1.144+99.99 +0.00    +0.126 HD
ATOM    116  H89 UNL     1      24.248  11.012   0.496 +0.39 +0.00    +0.126 HD
ATOM    117  H90 UNL     1      22.486  11.256  -2.385 +4.13 +0.00    +0.126 HD
ATOM    118  H91 UNL     1      21.521   9.937  -2.075+99.99 +0.00    +0.126 HD
ATOM    119  H92 UNL     1      20.130  10.113   4.987+99.99 +0.00    +0.163 HD
ATOM    120  H93 UNL     1      20.403  11.619   7.591 +0.27 +0.00    +0.163 HD
ATOM    121  H94 UNL     1      29.048  12.285   8.439 -0.20 +0.00    +0.126 HD
ATOM    122  H95 UNL     1      28.317  13.128   9.673 -0.05 +0.00    +0.126 HD
ATOM    123  H96 UNL     1      28.257  10.011   8.538 +1.61 +0.00    +0.126 HD
ATOM    124  H97 UNL     1      26.629   9.939   8.175+77.11 +0.00    +0.126 HD
ATOM    125  H98 UNL     1      23.662   8.369   7.164+99.99 +0.00    +0.163 HD
ENDROOT
TORSDOF 48
TER
