USER    Run = 1
USER    DPF = ligand_220_receptor.dpf
USER  
USER    Estimated Free Energy of Binding    =  +85.56 kcal/mol  [=(1)+(2)+(3)-(4)]
USER    
USER    (1) Final Intermolecular Energy     =  +84.36 kcal/mol
USER        vdW + Hbond + desolv Energy     =  +84.36 kcal/mol
USER        Electrostatic Energy            =   +0.00 kcal/mol
USER    (2) Final Total Internal Energy     =  +11.62 kcal/mol
USER    (3) Torsional Free Energy           =   +1.19 kcal/mol
USER    (4) Unbound System's Energy  [=(2)] =  +11.62 kcal/mol
USER    
USER    
USER    NEWDPF move ligand_220.pdbqt
USER    NEWDPF about 0.000000 0.000000 0.000000
USER    NEWDPF tran0 15.331542 7.918739 1.163090
USER    NEWDPF quaternion0 0.738594 -0.492602 0.046221 0.457915
USER    NEWDPF axisangle0 0.830818 -0.554111 0.051992 125.494697
USER    NEWDPF quat0 0.830818 -0.554111 0.051992 125.494697
USER    NEWDPF dihe0 -175.27 -9.99 112.13 -109.61 -139.06 -179.74 -114.09 167.50 142.06 -77.05 105.69 -89.56 -6.87 -76.61 -2.15 95.78 94.66 180.00 
USER  keepresnum = 1 
USER  
REMARK  18 active torsions:
REMARK  status: ('A' for Active; 'I' for Inactive)
REMARK    1  A    between atoms: C2_2  and  C3_3 
REMARK    2  A    between atoms: C2_2  and  N1_65 
REMARK    3  A    between atoms: C9_9  and  C10_10 
REMARK       I    between atoms: C9_9  and  N1_65 
REMARK    4  A    between atoms: C15_15  and  C16_16 
REMARK       I    between atoms: C15_15  and  N2_66 
REMARK    5  A    between atoms: C16_16  and  C17_17 
REMARK    6  A    between atoms: C16_16  and  N3_67 
REMARK    7  A    between atoms: C21_21  and  C22_22 
REMARK       I    between atoms: C21_21  and  N3_67 
REMARK    8  A    between atoms: C22_22  and  N4_68 
REMARK    9  A    between atoms: C26_26  and  N5_69 
REMARK   10  A    between atoms: C29_29  and  C30_30 
REMARK       I    between atoms: C29_29  and  N5_69 
REMARK       I    between atoms: C38_38  and  N6_70 
REMARK       I    between atoms: C38_38  and  N7_71 
REMARK   11  A    between atoms: C39_39  and  N7_71 
REMARK   12  A    between atoms: C41_41  and  C53_53 
REMARK   13  A    between atoms: C43_43  and  C44_44 
REMARK       I    between atoms: C43_43  and  N8_72 
REMARK   14  A    between atoms: C44_44  and  C45_45 
REMARK   15  A    between atoms: C44_44  and  N9_73 
REMARK   16  A    between atoms: C49_49  and  C50_50 
REMARK       I    between atoms: C49_49  and  N9_73 
REMARK   17  A    between atoms: C50_50  and  N10_74 
REMARK       I    between atoms: C53_53  and  N11_75 
REMARK   18  A    between atoms: C54_54  and  N11_75 
USER                              x       y       z     vdW  Elec       q    Type
USER                           _______ _______ _______ _____ _____    ______ ____
ROOT
ATOM      1  C30 UNL     1      17.886   9.369   3.306 -0.46 +0.00    +0.044 A 
ATOM      2  C31 UNL     1      17.012   8.490   3.993 -0.53 +0.00    +0.008 A 
ATOM      3  C32 UNL     1      16.802   7.084   3.974 +1.62 +0.00    +0.032 C 
ATOM      4  C33 UNL     1      15.834   6.793   4.900 +2.80 +0.00    +0.103 C 
ATOM      5  C34 UNL     1      16.160   9.016   4.981 +3.24 +0.00    +0.054 A 
ATOM      6  C35 UNL     1      16.248  10.374   5.356 +8.44 +0.00    +0.031 A 
ATOM      7  C36 UNL     1      17.149  11.211   4.692 +8.25 +0.00    +0.003 A 
ATOM      8  C37 UNL     1      17.952  10.721   3.673 +0.09 +0.00    +0.018 A 
ATOM      9  C38 UNL     1      14.270   7.994   6.369 +4.79 +0.00    +0.327 C 
ATOM     10  N6  UNL     1      15.357   7.969   5.461 +2.59 -0.00    -0.274 N 
ATOM     11  N7  UNL     1      13.643   9.218   6.459 +0.22 -0.00    -0.336 N 
ATOM     12  O5  UNL     1      13.920   6.964   6.930 -0.32 -0.00    -0.246 OA
ATOM     13  H77 UNL     1      13.736   9.827   5.643 +0.26 +0.00    +0.164 HD
ENDROOT
BRANCH   1  14
ATOM     14  C29 UNL     1      18.774   8.900   2.213 +0.36 +0.00    +0.257 C 
ATOM     15  N5  UNL     1      20.072   9.373   2.285 -0.08 -0.00    -0.323 N 
ATOM     16  H76 UNL     1      20.304   9.936   3.093 +0.12 +0.00    +0.169 HD
ATOM     17  O4  UNL     1      18.317   8.116   1.392 +5.23 -0.00    -0.267 OA
BRANCH  15  18
ATOM     18  C26 UNL     1      21.126   9.130   1.380 +1.63 +0.00    +0.035 A 
ATOM     19  C25 UNL     1      21.854   7.946   1.552+15.73 +0.00    +0.039 A 
ATOM     20  C13 UNL     1      22.938   7.632   0.716 -0.09 -0.00    -0.032 A 
ATOM     21  C12 UNL     1      23.283   8.517  -0.331 -0.44 -0.00    -0.048 A 
ATOM     22  C14 UNL     1      23.704   6.335   0.934 -0.37 +0.00    +0.166 C 
ATOM     23  C11 UNL     1      24.459   8.241  -1.252 +0.70 +0.00    +0.074 C 
ATOM     24  C28 UNL     1      22.553   9.698  -0.498 -0.08 +0.00    +0.010 A 
ATOM     25  C10 UNL     1      25.025   6.840  -1.027 -0.39 +0.00    +0.184 C 
ATOM     26  N2  UNL     1      25.057   6.470   0.402 -0.16 -0.00    -0.332 N 
ATOM     27  C15 UNL     1      25.996   6.893   1.350 -0.26 +0.00    +0.244 C 
ATOM     28  O2  UNL     1      25.892   6.505   2.522 +0.01 -0.00    -0.271 OA
ATOM     29  C27 UNL     1      21.484  10.001   0.351 -0.44 +0.00    +0.030 A 
BRANCH  25  30
ATOM     30  C9  UNL     1      26.268   6.478  -1.852 -0.06 +0.00    +0.241 C 
ATOM     31  N1  UNL     1      27.440   6.976  -1.318 -0.15 -0.00    -0.351 N 
ATOM     32  H73 UNL     1      27.382   7.453  -0.422 +0.09 +0.00    +0.163 HD
ATOM     33  O1  UNL     1      26.242   5.703  -2.803 +2.47 -0.00    -0.271 OA
BRANCH  31  34
ATOM     34  C2  UNL     1      28.749   6.528  -1.765 -0.23 +0.00    +0.116 C 
ATOM     35  C1  UNL     1      29.258   7.388  -2.923 +0.05 +0.00    +0.037 C 
BRANCH  34  36
ATOM     36  C3  UNL     1      28.723   5.064  -2.147 -0.18 +0.00    +0.003 A 
ATOM     37  C4  UNL     1      29.006   4.672  -3.465 -0.07 +0.00    +0.012 A 
ATOM     38  C5  UNL     1      28.980   3.322  -3.828 -0.16 +0.00    +0.001 A 
ATOM     39  C6  UNL     1      28.669   2.347  -2.882 -0.19 +0.00    +0.003 A 
ATOM     40  C7  UNL     1      28.381   2.719  -1.572 -0.19 +0.00    +0.043 A 
ATOM     41  C8  UNL     1      28.408   4.065  -1.217 -0.17 +0.00    +0.124 A 
ATOM     42  F1  UNL     1      28.140   4.399   0.054 -0.07 -0.00    -0.205 F 
ENDBRANCH  34  36
ENDBRANCH  31  34
ENDBRANCH  25  30
BRANCH  27  43
ATOM     43  C16 UNL     1      27.038   7.989   0.994 -0.35 +0.00    +0.184 C 
BRANCH  43  44
ATOM     44  C17 UNL     1      28.430   7.832   1.696 -0.46 -0.00    -0.022 C 
ATOM     45  C18 UNL     1      29.439   8.817   1.078 +2.05 +0.00    +0.017 C 
ATOM     46  C19 UNL     1      29.019   6.410   1.609 +0.66 +0.00    +0.017 C 
ATOM     47  C20 UNL     1      28.300   8.192   3.194 +2.37 +0.00    +0.017 C 
ENDBRANCH  43  44
BRANCH  43  48
ATOM     48  N3  UNL     1      26.354   9.220   1.395 -0.17 -0.00    -0.345 N 
ATOM     49  C21 UNL     1      25.107   9.284   1.972 -0.36 +0.00    +0.251 C 
ATOM     50  O3  UNL     1      24.427   8.293   2.215 -0.27 -0.00    -0.271 OA
ATOM     51  H74 UNL     1      26.764  10.117   1.138 +0.15 +0.00    +0.163 HD
BRANCH  49  52
ATOM     52  C22 UNL     1      24.700  10.723   2.362 +0.85 +0.00    +0.307 C 
ATOM     53  C23 UNL     1      25.342  11.768   1.455 +5.29 +0.00    +0.053 C 
BRANCH  52  54
ATOM     54  N4  UNL     1      24.909  10.960   3.817 +0.11 +0.00    +0.092 N 
ATOM     55  C24 UNL     1      23.675  10.921   4.595 +0.16 +0.00    +0.307 C 
ATOM     56  H75 UNL     1      25.531  10.230   4.167 +0.77 +0.00    +0.316 HD
ENDBRANCH  52  54
ENDBRANCH  49  52
ENDBRANCH  43  48
ENDBRANCH  27  43
ENDBRANCH  15  18
ENDBRANCH   1  14
BRANCH  11  57
ATOM     57  C39 UNL     1      12.387   9.314   7.198 +0.67 +0.00    +0.106 C 
ATOM     58  C40 UNL     1      11.170   9.249   6.276 +6.09 +0.00    +0.061 C 
ATOM     59  C41 UNL     1      10.921   7.740   6.092 -0.26 +0.00    +0.181 C 
ATOM     60  N8  UNL     1      11.459   7.123   7.307 +0.38 -0.00    -0.335 N 
ATOM     61  C42 UNL     1      12.152   8.118   8.122 +2.20 +0.00    +0.152 C 
ATOM     62  C43 UNL     1      11.098   5.932   7.909 +0.84 +0.00    +0.244 C 
ATOM     63  O6  UNL     1      11.436   5.731   9.084 +0.05 -0.00    -0.271 OA
BRANCH  59  64
ATOM     64  C53 UNL     1      11.644   7.304   4.806 -0.27 +0.00    +0.241 C 
ATOM     65  N11 UNL     1      11.474   5.982   4.469 -0.10 -0.00    -0.351 N 
ATOM     66  H80 UNL     1      10.939   5.369   5.069 +0.10 +0.00    +0.163 HD
ATOM     67  O8  UNL     1      12.245   8.102   4.086 -0.29 -0.00    -0.271 OA
BRANCH  65  68
ATOM     68  C54 UNL     1      11.933   5.441   3.197 +3.69 +0.00    +0.118 C 
ATOM     69  C55 UNL     1      13.063   6.309   2.622 +1.25 +0.00    +0.030 C 
ATOM     70  C56 UNL     1      12.519   7.630   2.085 +1.64 +0.00    +0.007 C 
ATOM     71  C57 UNL     1      11.533   7.385   0.945 +0.97 +0.00    +0.039 C 
ATOM     72  C58 UNL     1      10.545   6.279   1.224 -0.27 -0.00    -0.050 A 
ATOM     73  C59 UNL     1       9.426   6.147   0.386 -0.23 +0.00    +0.007 A 
ATOM     74  C63 UNL     1      10.757   5.334   2.248 +1.52 -0.00    -0.029 A 
ATOM     75  C60 UNL     1       8.523   5.100   0.563 -0.15 +0.00    +0.001 A 
ATOM     76  C61 UNL     1       8.730   4.167   1.573 -0.15 +0.00    +0.001 A 
ATOM     77  C62 UNL     1       9.837   4.286   2.413 +1.91 +0.00    +0.010 A 
ENDBRANCH  65  68
ENDBRANCH  59  64
BRANCH  62  78
ATOM     78  C44 UNL     1      10.426   4.754   7.126 -0.34 +0.00    +0.184 C 
BRANCH  78  79
ATOM     79  C45 UNL     1      11.459   3.658   6.663 -0.48 -0.00    -0.022 C 
ATOM     80  C46 UNL     1      12.145   3.022   7.896 +1.90 +0.00    +0.017 C 
ATOM     81  C47 UNL     1      10.802   2.539   5.844 +0.78 +0.00    +0.017 C 
ATOM     82  C48 UNL     1      12.584   4.282   5.806 -0.44 +0.00    +0.017 C 
ENDBRANCH  78  79
BRANCH  78  83
ATOM     83  N9  UNL     1       9.508   5.142   6.053 -0.10 -0.00    -0.345 N 
ATOM     84  C49 UNL     1       8.523   4.255   5.636 -0.25 +0.00    +0.251 C 
ATOM     85  O7  UNL     1       8.133   3.313   6.316 -0.20 -0.00    -0.271 OA
ATOM     86  H78 UNL     1       9.872   5.681   5.271 +0.10 +0.00    +0.163 HD
BRANCH  84  87
ATOM     87  C50 UNL     1       7.907   4.652   4.276 -0.14 +0.00    +0.307 C 
ATOM     88  C51 UNL     1       8.316   6.056   3.845 -0.25 +0.00    +0.053 C 
BRANCH  87  89
ATOM     89  N10 UNL     1       6.444   4.406   4.294 -0.18 +0.00    +0.092 N 
ATOM     90  C52 UNL     1       5.719   5.251   5.240 -0.15 +0.00    +0.307 C 
ATOM     91  H79 UNL     1       6.076   4.584   3.357 +0.13 +0.00    +0.316 HD
ENDBRANCH  87  89
ENDBRANCH  84  87
ENDBRANCH  78  83
ENDBRANCH  62  78
ENDBRANCH  11  57
TORSDOF 18
TER
