USER    Run = 1
USER    DPF = ligand_52_receptor.dpf
USER  
USER    Estimated Free Energy of Binding    =  +9.29e+004 kcal/mol  [=(1)+(2)+(3)-(4)]
USER    
USER    (1) Final Intermolecular Energy     =  +9.29e+004 kcal/mol
USER        vdW + Hbond + desolv Energy     =  +9.29e+004 kcal/mol
USER        Electrostatic Energy            =   +0.00 kcal/mol
USER    (2) Final Total Internal Energy     =   +0.00 kcal/mol
USER    (3) Torsional Free Energy           =   +1.19 kcal/mol
USER    (4) Unbound System's Energy  [=(2)] =   +0.00 kcal/mol
USER    
USER    
USER    NEWDPF move ligand_52.pdbqt
USER    NEWDPF about 0.000000 0.000000 0.000000
USER    NEWDPF tran0 13.404392 6.543993 2.894938
USER    NEWDPF quaternion0 0.914136 0.115608 -0.136148 -0.363941
USER    NEWDPF axisangle0 0.981442 0.124120 -0.146173 -137.315094
USER    NEWDPF quat0 0.981442 0.124120 -0.146173 -137.315094
USER  keepresnum = 1 
USER  
REMARK  0 active torsions:
REMARK  status: ('A' for Active; 'I' for Inactive)
REMARK       I    between atoms: C2_2  and  C3_3 
REMARK       I    between atoms: C3_3  and  C5_5 
REMARK       I    between atoms: C5_5  and  C6_6 
REMARK       I    between atoms: C6_6  and  C8_8 
REMARK       I    between atoms: C8_8  and  C9_9 
REMARK       I    between atoms: C8_8  and  O23_92 
REMARK       I    between atoms: C9_9  and  C11_11 
REMARK       I    between atoms: C11_11  and  N1_93 
REMARK       I    between atoms: C12_12  and  C13_13 
REMARK       I    between atoms: C12_12  and  C14_14 
REMARK       I    between atoms: C12_12  and  N1_93 
REMARK       I    between atoms: C13_13  and  N2_94 
REMARK       I    between atoms: C14_14  and  N3_95 
REMARK       I    between atoms: C15_15  and  C16_16 
REMARK       I    between atoms: C15_15  and  C67_67 
REMARK       I    between atoms: C15_15  and  N3_95 
REMARK       I    between atoms: C16_16  and  C17_17 
REMARK       I    between atoms: C16_16  and  O21_90 
REMARK       I    between atoms: C17_17  and  C18_18 
REMARK       I    between atoms: C17_17  and  O20_89 
REMARK       I    between atoms: C18_18  and  N4_96 
REMARK       I    between atoms: C19_19  and  C20_20 
REMARK       I    between atoms: C19_19  and  C25_25 
REMARK       I    between atoms: C19_19  and  N4_96 
REMARK       I    between atoms: C20_20  and  C22_22 
REMARK       I    between atoms: C22_22  and  C24_24 
REMARK       I    between atoms: C24_24  and  N5_97 
REMARK       I    between atoms: C25_25  and  N6_98 
REMARK       I    between atoms: C26_26  and  N6_98 
REMARK       I    between atoms: C29_29  and  C62_62 
REMARK       I    between atoms: C31_31  and  C59_59 
REMARK       I    between atoms: C33_33  and  C56_56 
REMARK       I    between atoms: C35_35  and  C53_53 
REMARK       I    between atoms: C37_37  and  C48_48 
REMARK       I    between atoms: C38_38  and  O15_84 
REMARK       I    between atoms: C39_39  and  C45_45 
REMARK       I    between atoms: C41_41  and  C43_43 
REMARK       I    between atoms: C43_43  and  O14_83 
REMARK       I    between atoms: C45_45  and  C46_46 
REMARK       I    between atoms: C46_46  and  C47_47 
REMARK       I    between atoms: C47_47  and  N14_106 
REMARK       I    between atoms: C48_48  and  C49_49 
REMARK       I    between atoms: C53_53  and  C54_54 
REMARK       I    between atoms: C54_54  and  C55_55 
REMARK       I    between atoms: C55_55  and  N15_107 
REMARK       I    between atoms: C56_56  and  C57_57 
REMARK       I    between atoms: C56_56  and  O18_87 
REMARK       I    between atoms: C57_57  and  N16_108 
REMARK       I    between atoms: C59_59  and  C60_60 
REMARK       I    between atoms: C60_60  and  N17_109 
REMARK       I    between atoms: C62_62  and  C63_63 
REMARK       I    between atoms: C67_67  and  O22_91 
USER                              x       y       z     vdW  Elec       q    Type
USER                           _______ _______ _______ _____ _____    ______ ____
ROOT
ATOM      1  C1  UNL     1      26.794   2.245  -1.595+11.78 +0.00    +0.005 C 
ATOM      2  C2  UNL     1      26.515   3.734  -1.766 -0.42 -0.00    -0.000 C 
ATOM      3  C3  UNL     1      25.209   4.190  -1.084 -0.52 -0.00    -0.019 C 
ATOM      4  C4  UNL     1      23.973   3.576  -1.734+37.20 +0.00    +0.010 C 
ATOM      5  C5  UNL     1      25.129   5.726  -0.906 -0.54 +0.00    +0.011 C 
ATOM      6  C6  UNL     1      24.743   6.685  -2.068 -0.53 +0.00    +0.011 C 
ATOM      7  C7  UNL     1      25.581   6.460  -3.325+55.59 +0.00    +0.012 C 
ATOM      8  C8  UNL     1      23.203   6.748  -2.309 +1.60 +0.00    +0.134 C 
ATOM      9  C9  UNL     1      22.602   8.165  -2.491+99.99 +0.00    +0.103 C 
ATOM     10  C10 UNL     1      23.300   9.018  -3.551+99.99 +0.00    +0.022 C 
ATOM     11  C11 UNL     1      22.533   8.907  -1.159 +7.25 +0.00    +0.224 C 
ATOM     12  C12 UNL     1      21.611  10.902   0.008 -0.14 +0.00    +0.204 C 
ATOM     13  C13 UNL     1      21.301  12.360  -0.390 +1.18 +0.00    +0.301 C 
ATOM     14  C14 UNL     1      20.483  10.326   0.895 -0.35 +0.00    +0.242 C 
ATOM     15  C15 UNL     1      19.921   8.303   2.352+23.68 +0.00    +0.149 C 
ATOM     16  C16 UNL     1      18.446   8.063   1.876 +9.80 +0.00    +0.181 C 
ATOM     17  C17 UNL     1      17.715   6.936   2.639 +0.16 +0.00    +0.240 C 
ATOM     18  C18 UNL     1      16.904   7.420   3.857 -0.10 +0.00    +0.249 C 
ATOM     19  C19 UNL     1      14.725   8.499   4.499 -0.33 +0.00    +0.181 C 
ATOM     20  C20 UNL     1      15.052   9.940   4.985+36.06 +0.00    +0.026 C 
ATOM     21  C21 UNL     1      14.016  10.465   5.985+99.99 +0.00    +0.013 C 
ATOM     22  C22 UNL     1      15.408  10.966   3.871+99.99 +0.00    +0.080 C 
ATOM     23  C23 UNL     1      15.565  12.402   4.380+99.99 +0.00    +0.020 C 
ATOM     24  C24 UNL     1      14.444  10.957   2.698+19.71 +0.00    +0.219 C 
ATOM     25  C25 UNL     1      13.290   8.257   3.935 -0.28 +0.00    +0.241 C 
ATOM     26  C26 UNL     1      12.067   7.110   2.070 -0.18 +0.00    +0.205 C 
ATOM     27  C27 UNL     1      12.178   7.883   0.737+54.02 +0.00    +0.159 C 
ATOM     28  C28 UNL     1      10.632   8.698  -0.901+29.38 +0.00    +0.282 C 
ATOM     29  C29 UNL     1       9.280   8.413  -1.595 -0.09 +0.00    +0.186 C 
ATOM     30  C30 UNL     1       7.993   7.373   0.252 -0.30 +0.00    +0.243 C 
ATOM     31  C31 UNL     1       7.299   6.153   0.924 -0.19 +0.00    +0.185 C 
ATOM     32  C32 UNL     1       6.641   5.764   3.319 -0.13 +0.00    +0.244 C 
ATOM     33  C33 UNL     1       6.449   6.456   4.688 +3.19 +0.00    +0.214 C 
ATOM     34  C34 UNL     1       7.132   4.666   6.258 -0.31 +0.00    +0.241 C 
ATOM     35  C35 UNL     1       6.620   3.453   7.085 +0.83 +0.00    +0.179 C 
ATOM     36  C36 UNL     1       8.586   3.098   8.546 -0.31 +0.00    +0.253 C 
ATOM     37  C37 UNL     1      10.011   2.526   8.806+19.94 +0.00    +0.315 C 
ATOM     38  C38 UNL     1      12.128   2.238   7.495+99.99 +0.00    +0.377 C 
ATOM     39  C39 UNL     1      12.711   3.551   6.853 +0.60 +0.00    +0.143 C 
ATOM     40  C40 UNL     1      12.750   2.976   4.422+68.95 +0.00    +0.243 C 
ATOM     41  C41 UNL     1      12.225   3.396   3.038+99.99 +0.00    +0.205 C 
ATOM     42  C42 UNL     1      11.846   5.591   1.882 +2.21 +0.00    +0.243 C 
ATOM     43  C43 UNL     1      10.938   2.614   2.687+99.99 +0.00    +0.146 C 
ATOM     44  C44 UNL     1       9.659   3.179   3.290 +0.15 +0.00    +0.042 C 
ATOM     45  C45 UNL     1      12.556   4.847   7.682 -0.58 +0.00    +0.031 C 
ATOM     46  C46 UNL     1      11.260   5.641   7.459 -0.36 +0.00    +0.032 C 
ATOM     47  C47 UNL     1      11.117   6.834   8.402+99.99 +0.00    +0.267 C 
ATOM     48  C48 UNL     1      10.022   1.538   9.997+99.99 +0.00    +0.049 C 
ATOM     49  C49 UNL     1       9.626   0.072   9.729 +1.47 -0.00    -0.020 C 
ATOM     50  C50 UNL     1      10.387  -0.858  10.684+99.99 +0.00    +0.009 C 
ATOM     51  C51 UNL     1       8.125  -0.155   9.926 +0.31 +0.00    +0.009 C 
ATOM     52  C52 UNL     1       8.006   1.426   6.724+99.99 +0.00    +0.153 C 
ATOM     53  C53 UNL     1       5.570   3.712   8.189+24.09 +0.00    +0.044 C 
ATOM     54  C54 UNL     1       5.559   5.101   8.837+99.99 +0.00    +0.105 C 
ATOM     55  C55 UNL     1       4.478   6.012   8.292+17.78 +0.00    +0.215 C 
ATOM     56  C56 UNL     1       5.383   7.571   4.582+99.99 +0.00    +0.244 C 
ATOM     57  C57 UNL     1       4.099   7.034   3.926 +0.49 +0.00    +0.247 C 
ATOM     58  C58 UNL     1       4.503   9.420   5.782+99.99 +0.00    +0.202 C 
ATOM     59  C59 UNL     1       6.043   5.628   0.227 -0.20 +0.00    +0.137 C 
ATOM     60  C60 UNL     1       5.311   6.656  -0.593 +2.63 +0.00    +0.217 C 
ATOM     61  C61 UNL     1       8.770   5.977  -1.681 -0.10 +0.00    +0.153 C 
ATOM     62  C62 UNL     1       8.475   9.727  -1.712+99.99 +0.00    +0.039 C 
ATOM     63  C63 UNL     1       7.120   9.622  -2.434+99.99 -0.00    -0.020 C 
ATOM     64  C64 UNL     1       6.422  10.984  -2.426+99.99 +0.00    +0.009 C 
ATOM     65  C65 UNL     1       7.255   9.119  -3.870+99.99 +0.00    +0.009 C 
ATOM     66  C66 UNL     1      13.333   7.400  -0.145 +1.26 +0.00    +0.042 C 
ATOM     67  C67 UNL     1      20.175   8.746   3.833 +0.45 +0.00    +0.073 C 
ATOM     68  C68 UNL     1      19.364   9.949   4.312+99.99 +0.00    +0.047 C 
ATOM     69  C69 UNL     1      21.668   9.041   4.067 +2.23 +0.00    +0.047 C 
ATOM     70  O1  UNL     1      23.049   8.506  -0.118 -0.34 -0.00    -0.273 OA
ATOM     71  O2  UNL     1      19.464  10.947   1.185 -0.34 -0.00    -0.271 OA
ATOM     72  O3  UNL     1      17.290   7.286   5.014 +1.34 -0.00    -0.271 OA
ATOM     73  O4  UNL     1      13.349  11.502   2.699+99.99 -0.00    -0.273 OA
ATOM     74  O5  UNL     1      12.267   8.731   4.414 -0.08 -0.00    -0.271 OA
ATOM     75  O6  UNL     1      10.934   7.748   0.027 +0.43 -0.00    -0.312 OA
ATOM     76  O7  UNL     1      11.373   9.632  -1.192+99.99 -0.00    -0.263 OA
ATOM     77  O8  UNL     1       8.069   8.433   0.890 +0.76 -0.00    -0.271 OA
ATOM     78  O9  UNL     1       6.451   4.561   3.145 -0.07 -0.00    -0.271 OA
ATOM     79  O10 UNL     1       8.325   4.890   6.050 -0.21 -0.00    -0.271 OA
ATOM     80  O11 UNL     1       8.212   4.030   9.270 +0.81 -0.00    -0.271 OA
ATOM     81  O12 UNL     1      13.478   2.003   4.586+99.99 -0.00    -0.271 OA
ATOM     82  O13 UNL     1      11.372   5.068   0.878 +2.64 -0.00    -0.271 OA
ATOM     83  O14 UNL     1      10.767   2.533   1.266+99.99 -0.00    -0.393 OA
ATOM     84  O15 UNL     1      12.734   1.980   8.744 +4.34 -0.00    -0.366 OA
ATOM     85  O16 UNL     1       3.718   5.730   7.372 -0.23 -0.00    -0.274 OA
ATOM     86  O17 UNL     1       3.810   7.257   2.751 -0.02 -0.00    -0.271 OA
ATOM     87  O18 UNL     1       5.157   8.159   5.871+99.99 -0.00    -0.379 OA
ATOM     88  O19 UNL     1       5.304   6.639  -1.819+99.99 -0.00    -0.274 OA
ATOM     89  O20 UNL     1      16.767   6.311   1.739+42.35 -0.00    -0.383 OA
ATOM     90  O21 UNL     1      17.632   9.249   1.820 -0.19 -0.00    -0.390 OA
ATOM     91  O22 UNL     1      19.906   7.614   4.676 +5.19 -0.00    -0.388 OA
ATOM     92  O23 UNL     1      22.800   5.948  -3.425+99.99 -0.00    -0.394 OA
ATOM     93  N1  UNL     1      21.804  10.074  -1.192+20.84 -0.00    -0.346 N 
ATOM     94  N2  UNL     1      22.341  12.949  -1.247 +1.97 +0.00    +0.080 N 
ATOM     95  N3  UNL     1      20.720   9.055   1.362 +2.57 -0.00    -0.349 N 
ATOM     96  N4  UNL     1      15.703   8.003   3.524 -0.27 -0.00    -0.345 N 
ATOM     97  N5  UNL     1      14.865  10.237   1.612+12.71 -0.00    -0.370 N 
ATOM     98  N6  UNL     1      13.249   7.315   2.922 -0.21 -0.00    -0.344 N 
ATOM     99  N7  UNL     1       8.552   7.254  -1.011 -0.18 -0.00    -0.341 N 
ATOM    100  N8  UNL     1       7.018   6.603   2.301 -0.12 -0.00    -0.345 N 
ATOM    101  N9  UNL     1       6.135   5.438   5.698 -0.13 -0.00    -0.343 N 
ATOM    102  N10 UNL     1       7.763   2.616   7.532 +3.18 -0.00    -0.341 N 
ATOM    103  N11 UNL     1      10.676   2.114   7.552 +1.59 +0.00    +0.128 N 
ATOM    104  N12 UNL     1      12.285   3.756   5.464 -0.13 -0.00    -0.350 N 
ATOM    105  N13 UNL     1      12.108   4.863   3.024+23.20 -0.00    -0.344 N 
ATOM    106  N14 UNL     1      12.103   7.864   8.091 +0.96 +0.00    +0.078 N 
ATOM    107  N15 UNL     1       4.406   7.221   8.921+76.15 -0.00    -0.370 N 
ATOM    108  N16 UNL     1       3.301   6.254   4.708 -0.06 -0.00    -0.368 N 
ATOM    109  N17 UNL     1       4.654   7.618   0.109+99.99 -0.00    -0.370 N 
ATOM    110  H99 UNL     1      10.839   3.449   0.917+61.69 +0.00    +0.210 HD
ATOM    111  HA0 UNL     1      12.550   1.042   8.918 +0.29 +0.00    +0.212 HD
ATOM    112  HA1 UNL     1      16.551   5.447   2.137+12.46 +0.00    +0.210 HD
ATOM    113  HA2 UNL     1      18.228   9.981   1.538 +0.17 +0.00    +0.210 HD
ATOM    114  HA3 UNL     1      19.064   7.740   5.163 +0.30 +0.00    +0.210 HD
ATOM    115  HA4 UNL     1      23.238   6.275  -4.228 +0.92 +0.00    +0.210 HD
ATOM    116  HA5 UNL     1      21.152  10.210  -1.957+99.99 +0.00    +0.163 HD
ATOM    117  HA6 UNL     1      22.591  12.284  -1.978 +0.28 +0.00    +0.312 HD
ATOM    118  HA7 UNL     1      23.195  13.080  -0.702 +0.01 +0.00    +0.312 HD
ATOM    119  HA8 UNL     1      21.637   8.661   1.136 +0.13 +0.00    +0.163 HD
ATOM    120  HA9 UNL     1      15.658   8.374   2.576 +0.01 +0.00    +0.163 HD
ATOM    121  HB0 UNL     1      14.298  10.384   0.782+13.86 +0.00    +0.159 HD
ATOM    122  HB1 UNL     1      15.866  10.145   1.441 +0.00 +0.00    +0.159 HD
ATOM    123  HB2 UNL     1      14.147   6.976   2.591 -0.48 +0.00    +0.163 HD
ATOM    124  HB3 UNL     1       7.343   7.549   2.502 +0.08 +0.00    +0.163 HD
ATOM    125  HB4 UNL     1       5.200   5.041   5.662 +0.08 +0.00    +0.163 HD
ATOM    126  HB5 UNL     1      10.311   2.705   6.803 +0.23 +0.00    +0.320 HD
ATOM    127  HB6 UNL     1      11.454   4.311   5.289 +0.10 +0.00    +0.163 HD
ATOM    128  HB7 UNL     1      12.617   5.370   3.745 +0.29 +0.00    +0.163 HD
ATOM    129  HB8 UNL     1      11.926   8.217   7.146 +0.25 +0.00    +0.312 HD
ATOM    130  HB9 UNL     1      11.956   8.661   8.709 +0.40 +0.00    +0.312 HD
ATOM    131  HC0 UNL     1       5.209   7.573   9.428 +8.52 +0.00    +0.159 HD
ATOM    132  HC1 UNL     1       3.806   7.911   8.492 +0.10 +0.00    +0.159 HD
ATOM    133  HC2 UNL     1       3.388   6.269   5.729 +0.06 +0.00    +0.159 HD
ATOM    134  HC3 UNL     1       2.407   5.963   4.338 +0.04 +0.00    +0.159 HD
ATOM    135  HC4 UNL     1       4.066   8.242  -0.426+99.99 +0.00    +0.159 HD
ATOM    136  HC5 UNL     1       4.359   7.449   1.074 +2.65 +0.00    +0.159 HD
ENDROOT
TORSDOF 44
TER
