USER    Run = 1
USER    DPF = ligand_11_receptor.dpf
USER  
USER    Estimated Free Energy of Binding    =  +9.44e+003 kcal/mol  [=(1)+(2)+(3)-(4)]
USER    
USER    (1) Final Intermolecular Energy     =  +9.44e+003 kcal/mol
USER        vdW + Hbond + desolv Energy     =  +9.44e+003 kcal/mol
USER        Electrostatic Energy            =   +0.00 kcal/mol
USER    (2) Final Total Internal Energy     =   +0.00 kcal/mol
USER    (3) Torsional Free Energy           =   +1.19 kcal/mol
USER    (4) Unbound System's Energy  [=(2)] =   +0.00 kcal/mol
USER    
USER    
USER    NEWDPF move ligand_11.pdbqt
USER    NEWDPF about 0.000000 0.000000 0.000000
USER    NEWDPF tran0 15.211910 6.747957 4.433611
USER    NEWDPF quaternion0 0.075904 0.102383 -0.982675 -0.134558
USER    NEWDPF axisangle0 0.076600 0.103322 -0.991694 -164.533849
USER    NEWDPF quat0 0.076600 0.103322 -0.991694 -164.533849
USER  keepresnum = 1 
USER  
REMARK  0 active torsions:
REMARK  status: ('A' for Active; 'I' for Inactive)
REMARK       I    between atoms: C2_2  and  C3_3 
REMARK       I    between atoms: C3_3  and  C5_5 
REMARK       I    between atoms: C5_5  and  C6_6 
REMARK       I    between atoms: C5_5  and  N4_84 
REMARK       I    between atoms: C6_6  and  N1_80 
REMARK       I    between atoms: C8_8  and  C9_9 
REMARK       I    between atoms: C8_8  and  C29_29 
REMARK       I    between atoms: C8_8  and  N1_80 
REMARK       I    between atoms: C9_9  and  C10_10 
REMARK       I    between atoms: C10_10  and  C11_11 
REMARK       I    between atoms: C10_10  and  O5_70 
REMARK       I    between atoms: C12_12  and  C14_14 
REMARK       I    between atoms: C14_14  and  N3_83 
REMARK       I    between atoms: C15_15  and  C16_16 
REMARK       I    between atoms: C15_15  and  C23_23 
REMARK       I    between atoms: C15_15  and  N3_83 
REMARK       I    between atoms: C16_16  and  C17_17 
REMARK       I    between atoms: C23_23  and  C24_24 
REMARK       I    between atoms: C24_24  and  C26_26 
REMARK       I    between atoms: C26_26  and  O4_69 
REMARK       I    between atoms: C27_27  and  O5_70 
REMARK       I    between atoms: C32_32  and  C33_33 
REMARK       I    between atoms: C32_32  and  N4_84 
REMARK       I    between atoms: C39_39  and  C40_40 
REMARK       I    between atoms: C39_39  and  N5_85 
REMARK       I    between atoms: C43_43  and  N6_86 
REMARK       I    between atoms: C46_46  and  C47_47 
REMARK       I    between atoms: C46_46  and  N6_86 
REMARK       I    between atoms: C47_47  and  N7_87 
REMARK       I    between atoms: C49_49  and  C50_50 
REMARK       I    between atoms: C49_49  and  N7_87 
REMARK       I    between atoms: C50_50  and  C51_51 
REMARK       I    between atoms: C50_50  and  N8_88 
REMARK       I    between atoms: C54_54  and  C55_55 
REMARK       I    between atoms: C54_54  and  N8_88 
REMARK       I    between atoms: C55_55  and  C56_56 
REMARK       I    between atoms: C55_55  and  N10_90 
REMARK       I    between atoms: C56_56  and  N9_89 
REMARK       I    between atoms: C57_57  and  O12_77 
REMARK       I    between atoms: C57_57  and  N9_89 
REMARK       I    between atoms: C58_58  and  O12_77 
USER                              x       y       z     vdW  Elec       q    Type
USER                           _______ _______ _______ _____ _____    ______ ____
ROOT
ATOM      1  C1  UNL     1      10.020   1.518   3.380+99.99 +0.00    +0.005 C 
ATOM      2  C2  UNL     1      11.127   1.970   4.322 +3.46 +0.00    +0.002 C 
ATOM      3  C3  UNL     1      10.651   2.731   5.585 -0.06 +0.00    +0.013 C 
ATOM      4  C4  UNL     1       9.895   1.765   6.506+99.99 +0.00    +0.012 C 
ATOM      5  C5  UNL     1       9.827   4.005   5.269 -0.34 +0.00    +0.180 C 
ATOM      6  C6  UNL     1       9.584   4.925   6.509 -0.26 +0.00    +0.243 C 
ATOM      7  C7  UNL     1       7.311   3.901   6.970 -0.33 +0.00    +0.153 C 
ATOM      8  C8  UNL     1       8.097   5.888   8.253 -0.04 +0.00    +0.092 C 
ATOM      9  C9  UNL     1       8.060   7.335   7.683+99.99 +0.00    +0.065 C 
ATOM     10  C10 UNL     1       6.705   7.723   7.072+99.99 +0.00    +0.190 C 
ATOM     11  C11 UNL     1       6.466   7.179   5.681+99.36 +0.00    +0.081 A 
ATOM     12  C12 UNL     1       6.785   6.538   3.555 +0.20 +0.00    +0.108 A 
ATOM     13  C13 UNL     1       5.403   6.504   3.605 +0.48 +0.00    +0.086 A 
ATOM     14  C14 UNL     1       7.632   6.225   2.390 -0.15 +0.00    +0.269 C 
ATOM     15  C15 UNL     1       7.684   5.337   0.059 -0.15 +0.00    +0.089 C 
ATOM     16  C16 UNL     1       8.296   3.921   0.215 -0.13 +0.00    +0.063 C 
ATOM     17  C17 UNL     1       7.382   2.764   0.553 -0.10 -0.00    -0.056 A 
ATOM     18  C18 UNL     1       7.243   1.694  -0.344 -0.13 +0.00    +0.007 A 
ATOM     19  C19 UNL     1       6.417   0.610  -0.042 +0.55 +0.00    +0.001 A 
ATOM     20  C20 UNL     1       5.734   0.569   1.170 +4.03 +0.00    +0.000 A 
ATOM     21  C21 UNL     1       5.885   1.606   2.084 -0.24 +0.00    +0.001 A 
ATOM     22  C22 UNL     1       6.709   2.692   1.781 -0.17 +0.00    +0.007 A 
ATOM     23  C23 UNL     1       6.863   5.603  -1.224+17.21 +0.00    +0.040 C 
ATOM     24  C24 UNL     1       5.730   4.640  -1.626 +2.77 +0.00    +0.081 C 
ATOM     25  C25 UNL     1       5.066   5.140  -2.912+99.99 +0.00    +0.021 C 
ATOM     26  C26 UNL     1       4.664   4.467  -0.565 -0.16 +0.00    +0.143 C 
ATOM     27  C27 UNL     1       6.244   9.844   8.018+33.55 +0.00    +0.255 C 
ATOM     28  C28 UNL     1       6.208  11.313   7.730+99.99 +0.00    +0.126 C 
ATOM     29  C29 UNL     1       9.059   5.760   9.482 +5.82 +0.00    +0.000 C 
ATOM     30  C30 UNL     1       9.266   4.304   9.918+99.99 +0.00    +0.011 C 
ATOM     31  C31 UNL     1       8.530   6.539  10.698+29.74 +0.00    +0.011 C 
ATOM     32  C32 UNL     1      11.703   5.388   4.320 +0.08 +0.00    +0.249 C 
ATOM     33  C33 UNL     1      11.906   6.754   3.609 -0.25 +0.00    +0.281 C 
ATOM     34  C34 UNL     1      11.127   7.875   4.312 -0.45 +0.00    +0.043 C 
ATOM     35  C35 UNL     1      11.182   9.178   3.527 +2.15 +0.00    +0.004 C 
ATOM     36  C36 UNL     1      12.613   9.605   3.240 +9.66 +0.00    +0.028 C 
ATOM     37  C37 UNL     1      13.424   8.498   2.578+15.84 +0.00    +0.238 C 
ATOM     38  C38 UNL     1      14.114   6.123   2.562+99.99 +0.00    +0.274 C 
ATOM     39  C39 UNL     1      14.164   7.359   4.757 -0.34 +0.00    +0.276 C 
ATOM     40  C40 UNL     1      15.634   7.718   4.686 -0.31 -0.00    -0.032 A 
ATOM     41  C41 UNL     1      16.065   9.049   4.727 +0.58 +0.00    +0.011 A 
ATOM     42  C42 UNL     1      17.428   9.361   4.654 -0.07 +0.00    +0.030 A 
ATOM     43  C43 UNL     1      18.391   8.353   4.540 +0.53 +0.00    +0.034 A 
ATOM     44  C44 UNL     1      17.967   7.026   4.520+21.58 +0.00    +0.030 A 
ATOM     45  C45 UNL     1      16.605   6.711   4.600+10.32 +0.00    +0.011 A 
ATOM     46  C46 UNL     1      20.854   7.940   4.307+99.99 +0.00    +0.244 C 
ATOM     47  C47 UNL     1      22.180   8.728   4.255+11.81 +0.00    +0.172 C 
ATOM     48  C48 UNL     1      22.284   9.509   2.950 -0.51 +0.00    +0.042 C 
ATOM     49  C49 UNL     1      24.546   8.175   4.749 +0.79 +0.00    +0.241 C 
ATOM     50  C50 UNL     1      25.594   7.036   4.791 +1.05 +0.00    +0.180 C 
ATOM     51  C51 UNL     1      25.395   6.137   6.031 +6.79 +0.00    +0.009 C 
ATOM     52  C52 UNL     1      26.298   4.903   5.956+99.99 +0.00    +0.012 C 
ATOM     53  C53 UNL     1      25.623   6.869   7.358+99.99 +0.00    +0.012 C 
ATOM     54  C54 UNL     1      27.486   7.988   3.531+10.04 +0.00    +0.243 C 
ATOM     55  C55 UNL     1      28.609   9.037   3.633+32.19 +0.00    +0.206 C 
ATOM     56  C56 UNL     1      27.982  10.426   3.866+94.33 +0.00    +0.160 C 
ATOM     57  C57 UNL     1      28.119  10.767   6.311+99.99 +0.00    +0.361 C 
ATOM     58  C58 UNL     1      27.805  10.944   8.719+23.11 +0.00    +0.061 C 
ATOM     59  C59 UNL     1      28.521  12.288   8.894 +4.49 +0.00    +0.046 C 
ATOM     60  C60 UNL     1      28.704   9.762   9.102+99.99 +0.00    +0.046 C 
ATOM     61  C61 UNL     1      26.561  10.926   9.619 +1.06 +0.00    +0.046 C 
ATOM     62  C62 UNL     1      29.177   9.535   1.239+87.73 +0.00    +0.251 A 
ATOM     63  C63 UNL     1      30.167   9.025   0.283 +0.10 +0.00    +0.080 A 
ATOM     64  C64 UNL     1      30.915   8.122   0.918 -0.22 +0.00    +0.080 A 
ATOM     65  C65 UNL     1      30.421   8.027   2.294 -0.03 +0.00    +0.251 A 
ATOM     66  O1  UNL     1      10.467   5.728   6.844 -0.20 -0.00    -0.271 OA
ATOM     67  O2  UNL     1       8.861   6.291   2.455 -0.14 -0.00    -0.266 OA
ATOM     68  O3  UNL     1       4.540   5.117   0.462 -0.18 -0.00    -0.650 OA
ATOM     69  O4  UNL     1       3.815   3.463  -0.853 +0.01 -0.00    -0.776 OA
ATOM     70  O5  UNL     1       6.658   9.160   6.919+99.99 -0.00    -0.309 OA
ATOM     71  O6  UNL     1       5.949   9.337   9.090 +0.05 -0.00    -0.266 OA
ATOM     72  O7  UNL     1      12.627   4.790   4.864 +0.81 -0.00    -0.271 OA
ATOM     73  O8  UNL     1      20.844   6.714   4.189+99.99 -0.00    -0.271 OA
ATOM     74  O9  UNL     1      24.818   9.339   5.050 +3.01 -0.00    -0.271 OA
ATOM     75  O10 UNL     1      27.091   7.511   2.469 -0.27 -0.00    -0.271 OA
ATOM     76  O11 UNL     1      29.336  10.841   6.335+12.99 -0.00    -0.238 OA
ATOM     77  O12 UNL     1      27.286  10.796   7.373+99.99 -0.00    -0.294 OA
ATOM     78  O13 UNL     1      28.319  10.347   0.947+99.99 -0.00    -0.268 OA
ATOM     79  O14 UNL     1      30.846   7.236   3.114 +2.03 -0.00    -0.268 OA
ATOM     80  N1  UNL     1       8.364   4.890   7.183 -0.21 -0.00    -0.350 N 
ATOM     81  N2  UNL     1       7.381   6.906   4.770 +3.70 -0.00    -0.347 N 
ATOM     82  H2  UNL     1       8.388   6.955   4.929 +0.15 +0.00    +0.166 HD
ATOM     83  N3  UNL     1       6.984   5.813   1.245 -0.05 -0.00    -0.351 N 
ATOM     84  N4  UNL     1      10.412   4.902   4.252 -0.09 -0.00    -0.346 N 
ATOM     85  N5  UNL     1      13.420   7.207   3.396 -0.43 -0.00    -0.054 N 
ATOM     86  N6  UNL     1      19.742   8.753   4.464 +1.22 -0.00    -0.325 N 
ATOM     87  N7  UNL     1      23.281   7.784   4.391+15.73 -0.00    -0.346 N 
ATOM     88  N8  UNL     1      26.911   7.661   4.749+93.59 -0.00    -0.346 N 
ATOM     89  N9  UNL     1      27.385  10.587   5.181+99.99 -0.00    -0.334 N 
ATOM     90  N10 UNL     1      29.429   8.943   2.432+15.36 -0.00    -0.266 N 
ATOM     91  S1  UNL     1       4.839   6.940   5.159+13.78 -0.00    -0.084 SA
ATOM     92  H87 UNL     1       3.199   3.400  -0.096 +0.02 +0.00    +0.167 HD
ATOM     93  H88 UNL     1       5.977   5.659   1.263 +0.06 +0.00    +0.163 HD
ATOM     94  H89 UNL     1       9.727   5.508   3.797 +0.09 +0.00    +0.163 HD
ATOM     95  H90 UNL     1      19.915   9.749   4.537 +6.10 +0.00    +0.169 HD
ATOM     96  H91 UNL     1      23.097   6.823   4.113+99.99 +0.00    +0.163 HD
ATOM     97  H92 UNL     1      27.109   8.304   5.508+99.99 +0.00    +0.163 HD
ATOM     98  H93 UNL     1      26.375  10.489   5.291+99.99 +0.00    +0.164 HD
ENDROOT
TORSDOF 34
TER
