USER    Run = 1
USER    DPF = ligand_455_receptor.dpf
USER  
USER    Estimated Free Energy of Binding    =  +1.26e+003 kcal/mol  [=(1)+(2)+(3)-(4)]
USER    
USER    (1) Final Intermolecular Energy     =  +1.26e+003 kcal/mol
USER        vdW + Hbond + desolv Energy     =  +1.26e+003 kcal/mol
USER        Electrostatic Energy            =   +0.00 kcal/mol
USER    (2) Final Total Internal Energy     =   +0.00 kcal/mol
USER    (3) Torsional Free Energy           =   +1.19 kcal/mol
USER    (4) Unbound System's Energy  [=(2)] =   +0.00 kcal/mol
USER    
USER    
USER    NEWDPF move ligand_455.pdbqt
USER    NEWDPF about 0.000000 0.000000 0.000000
USER    NEWDPF tran0 11.982727 6.349236 2.339716
USER    NEWDPF quaternion0 0.295745 -0.945049 -0.114679 0.079163
USER    NEWDPF axisangle0 0.296676 -0.948024 -0.115040 170.919087
USER    NEWDPF quat0 0.296676 -0.948024 -0.115040 170.919087
USER  keepresnum = 1 
USER  
REMARK  0 active torsions:
REMARK  status: ('A' for Active; 'I' for Inactive)
REMARK       I    between atoms: C2_2  and  C3_3 
REMARK       I    between atoms: C3_3  and  C5_5 
REMARK       I    between atoms: C5_5  and  C6_6 
REMARK       I    between atoms: C5_5  and  N2_60 
REMARK       I    between atoms: C6_6  and  N1_59 
REMARK       I    between atoms: C7_7  and  C8_8 
REMARK       I    between atoms: C7_7  and  C9_9 
REMARK       I    between atoms: C7_7  and  N1_59 
REMARK       I    between atoms: C8_8  and  S1_71 
REMARK       I    between atoms: C9_9  and  O3_47 
REMARK       I    between atoms: C10_10  and  C11_11 
REMARK       I    between atoms: C10_10  and  N2_60 
REMARK       I    between atoms: C11_11  and  C12_12 
REMARK       I    between atoms: C11_11  and  N3_61 
REMARK       I    between atoms: C12_12  and  C13_13 
REMARK       I    between atoms: C16_16  and  O5_49 
REMARK       I    between atoms: C19_19  and  C20_20 
REMARK       I    between atoms: C19_19  and  N3_61 
REMARK       I    between atoms: C24_24  and  C25_25 
REMARK       I    between atoms: C24_24  and  N4_62 
REMARK       I    between atoms: C25_25  and  C26_26 
REMARK       I    between atoms: C25_25  and  N5_63 
REMARK       I    between atoms: C26_26  and  O8_52 
REMARK       I    between atoms: C28_28  and  C29_29 
REMARK       I    between atoms: C28_28  and  N5_63 
REMARK       I    between atoms: C29_29  and  C30_30 
REMARK       I    between atoms: C29_29  and  N8_67 
REMARK       I    between atoms: C30_30  and  C31_31 
REMARK       I    between atoms: C34_34  and  C35_35 
REMARK       I    between atoms: C34_34  and  N8_67 
REMARK       I    between atoms: C35_35  and  C36_36 
REMARK       I    between atoms: C35_35  and  N9_68 
REMARK       I    between atoms: C36_36  and  O11_55 
REMARK       I    between atoms: C38_38  and  C39_39 
REMARK       I    between atoms: C38_38  and  N9_68 
REMARK       I    between atoms: C39_39  and  C40_40 
REMARK       I    between atoms: C39_39  and  N10_69 
REMARK       I    between atoms: C40_40  and  O13_57 
REMARK       I    between atoms: C42_42  and  C43_43 
REMARK       I    between atoms: C42_42  and  N10_69 
REMARK       I    between atoms: C43_43  and  C44_44 
REMARK       I    between atoms: C43_43  and  N11_70 
REMARK       I    between atoms: C44_44  and  S2_72 
USER                              x       y       z     vdW  Elec       q    Type
USER                           _______ _______ _______ _____ _____    ______ ____
ROOT
ATOM      1  C1  UNL     1      17.705  12.902   1.870 -0.74 +0.00    +0.005 C 
ATOM      2  C2  UNL     1      18.281  11.665   1.196 -0.70 +0.00    +0.002 C 
ATOM      3  C3  UNL     1      17.501  10.348   1.402 -0.54 +0.00    +0.013 C 
ATOM      4  C4  UNL     1      16.137  10.388   0.706 -0.46 +0.00    +0.012 C 
ATOM      5  C5  UNL     1      17.487   9.881   2.877 -0.40 +0.00    +0.180 C 
ATOM      6  C6  UNL     1      16.506  10.609   3.825 +0.71 +0.00    +0.241 C 
ATOM      7  C7  UNL     1      16.128  11.248   6.203+50.43 +0.00    +0.191 C 
ATOM      8  C8  UNL     1      15.092  10.219   6.670+72.93 +0.00    +0.106 C 
ATOM      9  C9  UNL     1      17.062  11.629   7.349 +5.65 +0.00    +0.164 C 
ATOM     10  C10 UNL     1      17.598   7.700   4.034 -0.09 +0.00    +0.241 C 
ATOM     11  C11 UNL     1      17.000   6.278   4.141+74.63 +0.00    +0.180 C 
ATOM     12  C12 UNL     1      17.671   5.332   3.136+24.70 +0.00    +0.073 C 
ATOM     13  C13 UNL     1      19.039   4.868   3.576+66.76 -0.00    -0.056 A 
ATOM     14  C14 UNL     1      19.171   3.733   4.389+70.84 +0.00    +0.010 A 
ATOM     15  C15 UNL     1      20.432   3.309   4.808 +5.93 +0.00    +0.037 A 
ATOM     16  C16 UNL     1      21.561   4.021   4.424+24.31 +0.00    +0.065 A 
ATOM     17  C17 UNL     1      21.451   5.152   3.623+52.82 +0.00    +0.037 A 
ATOM     18  C18 UNL     1      20.189   5.575   3.199+99.99 +0.00    +0.010 A 
ATOM     19  C19 UNL     1      14.676   6.819   4.815 -0.02 +0.00    +0.241 C 
ATOM     20  C20 UNL     1      13.307   7.303   4.271 -0.40 +0.00    +0.179 C 
ATOM     21  C21 UNL     1      12.217   7.202   5.344 -0.42 +0.00    +0.037 C 
ATOM     22  C22 UNL     1      11.609   5.830   5.074 -0.37 +0.00    +0.022 C 
ATOM     23  C23 UNL     1      11.591   5.769   3.555 -0.00 +0.00    +0.127 C 
ATOM     24  C24 UNL     1      13.205   6.718   1.845 +1.72 +0.00    +0.245 C 
ATOM     25  C25 UNL     1      12.357   6.129   0.694 -0.27 +0.00    +0.205 C 
ATOM     26  C26 UNL     1      13.087   6.145  -0.672 -0.03 +0.00    +0.146 C 
ATOM     27  C27 UNL     1      13.244   7.527  -1.305+36.49 +0.00    +0.042 C 
ATOM     28  C28 UNL     1       9.916   6.207   0.262 -0.18 +0.00    +0.241 C 
ATOM     29  C29 UNL     1       8.659   7.098   0.167 -0.28 +0.00    +0.182 C 
ATOM     30  C30 UNL     1       8.284   7.687   1.544 -0.26 +0.00    +0.093 C 
ATOM     31  C31 UNL     1       7.491   6.770   2.424 -0.29 +0.00    +0.028 A 
ATOM     32  C32 UNL     1       7.602   5.434   2.749 -0.13 +0.00    +0.114 A 
ATOM     33  C33 UNL     1       5.842   6.120   3.748 +0.09 +0.00    +0.180 A 
ATOM     34  C34 UNL     1       6.310   6.663  -0.610 +4.53 +0.00    +0.243 C 
ATOM     35  C35 UNL     1       5.374   5.516  -1.056 +5.21 +0.00    +0.205 C 
ATOM     36  C36 UNL     1       3.890   5.828  -0.764 +2.75 +0.00    +0.146 C 
ATOM     37  C37 UNL     1       3.561   6.022   0.713+27.68 +0.00    +0.042 C 
ATOM     38  C38 UNL     1       6.452   3.257  -1.137 -0.05 +0.00    +0.243 C 
ATOM     39  C39 UNL     1       7.096   2.169  -0.245 -0.07 +0.00    +0.205 C 
ATOM     40  C40 UNL     1       7.129   0.761  -0.881 -0.13 +0.00    +0.146 C 
ATOM     41  C41 UNL     1       5.791   0.314  -1.460 -0.07 +0.00    +0.042 C 
ATOM     42  C42 UNL     1       7.158   1.757   2.212 -0.18 +0.00    +0.252 C 
ATOM     43  C43 UNL     1       6.269   1.629   3.462 -0.13 +0.00    +0.318 C 
ATOM     44  C44 UNL     1       5.917   0.146   3.638 +2.47 +0.00    +0.116 C 
ATOM     45  O1  UNL     1      15.369  10.947   3.508 +6.51 -0.00    -0.271 OA
ATOM     46  O2  UNL     1      18.235  11.307   7.469 +3.59 -0.00    -0.648 OA
ATOM     47  O3  UNL     1      16.479  12.400   8.290+36.37 -0.00    -0.775 OA
ATOM     48  O4  UNL     1      18.494   8.107   4.769 +0.57 -0.00    -0.271 OA
ATOM     49  O5  UNL     1      22.773   3.574   4.862+20.36 -0.00    -0.361 OA
ATOM     50  O6  UNL     1      15.020   6.987   5.983 -0.09 -0.00    -0.271 OA
ATOM     51  O7  UNL     1      14.280   7.295   1.642+12.81 -0.00    -0.271 OA
ATOM     52  O8  UNL     1      14.374   5.528  -0.573+17.90 -0.00    -0.393 OA
ATOM     53  O9  UNL     1       9.875   4.999   0.029 -0.12 -0.00    -0.271 OA
ATOM     54  O10 UNL     1       5.944   7.830  -0.486 -0.17 -0.00    -0.271 OA
ATOM     55  O11 UNL     1       3.444   6.980  -1.485+19.95 -0.00    -0.393 OA
ATOM     56  O12 UNL     1       6.605   3.330  -2.350 -0.09 -0.00    -0.271 OA
ATOM     57  O13 UNL     1       8.127   0.646  -1.897 -0.07 -0.00    -0.393 OA
ATOM     58  O14 UNL     1       8.353   1.482   2.210 +0.06 -0.00    -0.271 OA
ATOM     59  N1  UNL     1      16.964  10.715   5.121 +0.68 -0.00    -0.344 N 
ATOM     60  N2  UNL     1      17.126   8.463   2.974 -0.27 -0.00    -0.346 N 
ATOM     61  N3  UNL     1      15.562   6.373   3.858+99.99 -0.00    -0.346 N 
ATOM     62  N4  UNL     1      12.753   6.546   3.139 -0.12 -0.00    -0.337 N 
ATOM     63  N5  UNL     1      11.075   6.843   0.639 -0.15 -0.00    -0.344 N 
ATOM     64  N6  UNL     1       6.551   5.034   3.535 -0.03 -0.00    -0.360 N 
ATOM     65  H6  UNL     1       6.359   4.094   3.881 +0.07 +0.00    +0.166 HD
ATOM     66  N7  UNL     1       6.367   7.196   3.092 +0.67 -0.00    -0.354 N 
ATOM     67  N8  UNL     1       7.615   6.277  -0.434 -0.05 -0.00    -0.346 N 
ATOM     68  N9  UNL     1       5.810   4.258  -0.428 -0.06 -0.00    -0.344 N 
ATOM     69  N10 UNL     1       6.473   2.146   1.080 -0.05 -0.00    -0.344 N 
ATOM     70  N11 UNL     1       5.062   2.495   3.300 -0.17 +0.00    +0.092 N 
ATOM     71  S1  UNL     1      13.654  10.963   7.513 +2.06 -0.00    -0.180 SA
ATOM     72  S2  UNL     1       4.808  -0.151   5.056+14.21 -0.00    -0.180 SA
ATOM     73  H51 UNL     1      17.201  12.570   8.934+20.14 +0.00    +0.167 HD
ATOM     74  H52 UNL     1      23.456   4.190   4.552+10.27 +0.00    +0.217 HD
ATOM     75  H53 UNL     1      14.964   6.159  -0.117 +0.38 +0.00    +0.210 HD
ATOM     76  H54 UNL     1       4.024   7.727  -1.232 +7.53 +0.00    +0.210 HD
ATOM     77  H55 UNL     1       8.988   0.860  -1.495 +0.11 +0.00    +0.210 HD
ATOM     78  H56 UNL     1      17.791  10.173   5.387 +0.12 +0.00    +0.163 HD
ATOM     79  H57 UNL     1      16.210   8.214   2.612 +0.03 +0.00    +0.163 HD
ATOM     80  H58 UNL     1      15.275   6.472   2.890 +0.34 +0.00    +0.163 HD
ATOM     81  H59 UNL     1      11.101   7.856   0.684 +0.16 +0.00    +0.163 HD
ATOM     82  H60 UNL     1       5.973   8.128   3.075 +0.29 +0.00    +0.166 HD
ATOM     83  H61 UNL     1       7.871   5.319  -0.663 +0.00 +0.00    +0.163 HD
ATOM     84  H62 UNL     1       5.941   4.253   0.582 +0.05 +0.00    +0.163 HD
ATOM     85  H63 UNL     1       5.461   2.221   1.184 +0.05 +0.00    +0.163 HD
ATOM     86  H64 UNL     1       4.531   2.423   4.171 +0.12 +0.00    +0.313 HD
ATOM     87  H65 UNL     1       5.424   3.464   3.327 +0.12 +0.00    +0.313 HD
ATOM     88  H66 UNL     1      14.356  11.634   8.443 -0.16 +0.00    +0.101 HD
ATOM     89  H67 UNL     1       3.703   0.347   4.480 +0.03 +0.00    +0.101 HD
ENDROOT
TORSDOF 35
TER
