USER    Run = 1
USER    DPF = ligand_540_receptor.dpf
USER  
USER    Estimated Free Energy of Binding    = +154.56 kcal/mol  [=(1)+(2)+(3)-(4)]
USER    
USER    (1) Final Intermolecular Energy     = +153.37 kcal/mol
USER        vdW + Hbond + desolv Energy     = +153.37 kcal/mol
USER        Electrostatic Energy            =   +0.00 kcal/mol
USER    (2) Final Total Internal Energy     =   +6.42 kcal/mol
USER    (3) Torsional Free Energy           =   +1.19 kcal/mol
USER    (4) Unbound System's Energy  [=(2)] =   +6.42 kcal/mol
USER    
USER    
USER    NEWDPF move ligand_540.pdbqt
USER    NEWDPF about 0.000000 0.000000 0.000000
USER    NEWDPF tran0 17.195954 8.024743 1.528649
USER    NEWDPF quaternion0 0.228707 0.537756 0.782335 0.215555
USER    NEWDPF axisangle0 0.234213 0.550702 0.801169 155.103825
USER    NEWDPF quat0 0.234213 0.550702 0.801169 155.103825
USER    NEWDPF dihe0 -119.73 166.82 -53.26 -141.42 -6.44 170.85 -91.24 30.70 42.02 -170.15 -18.86 -12.38 -21.72 75.51 8.93 180.00 41.24 6.32 33.15 180.00 45.25 143.09 122.90 -136.07 
USER  keepresnum = 1 
USER  
REMARK  24 active torsions:
REMARK  status: ('A' for Active; 'I' for Inactive)
REMARK    1  A    between atoms: C2_2  and  C3_3 
REMARK    2  A    between atoms: C2_2  and  N10_86 
REMARK       I    between atoms: C3_3  and  N1_77 
REMARK    3  A    between atoms: C4_4  and  C5_5 
REMARK    4  A    between atoms: C4_4  and  C62_62 
REMARK    5  A    between atoms: C4_4  and  N1_77 
REMARK       I    between atoms: C5_5  and  N2_78 
REMARK    6  A    between atoms: C10_10  and  C11_11 
REMARK       I    between atoms: C11_11  and  N3_79 
REMARK    7  A    between atoms: C12_12  and  C13_13 
REMARK    8  A    between atoms: C12_12  and  C15_15 
REMARK    9  A    between atoms: C12_12  and  N3_79 
REMARK   10  A    between atoms: C13_13  and  O4_70 
REMARK   11  A    between atoms: C23_23  and  C25_25 
REMARK   12  A    between atoms: C25_25  and  C61_61 
REMARK   13  A    between atoms: C28_28  and  C31_31 
REMARK       I    between atoms: C31_31  and  N4_80 
REMARK   14  A    between atoms: C32_32  and  N4_80 
REMARK   15  A    between atoms: C37_37  and  C49_49 
REMARK   16  A    between atoms: C39_39  and  C40_40 
REMARK       I    between atoms: C39_39  and  N5_81 
REMARK   17  A    between atoms: C40_40  and  C41_41 
REMARK   18  A    between atoms: C40_40  and  N6_82 
REMARK   19  A    between atoms: C45_45  and  C46_46 
REMARK       I    between atoms: C45_45  and  N6_82 
REMARK   20  A    between atoms: C46_46  and  N7_83 
REMARK       I    between atoms: C49_49  and  N8_84 
REMARK   21  A    between atoms: C50_50  and  C51_51 
REMARK   22  A    between atoms: C50_50  and  C53_53 
REMARK   23  A    between atoms: C50_50  and  N8_84 
REMARK   24  A    between atoms: C51_51  and  O9_75 
REMARK       I    between atoms: C61_61  and  N9_85 
USER                              x       y       z     vdW  Elec       q    Type
USER                           _______ _______ _______ _____ _____    ______ ____
ROOT
ATOM      1  C25 UNL     1      19.950   9.732   2.049 -0.34 +0.00    +0.088 C 
ATOM      2  C26 UNL     1      18.838  10.107   1.010 -0.47 +0.00    +0.056 C 
ATOM      3  C27 UNL     1      17.417   9.899   1.467 -0.54 -0.00    -0.008 C 
ATOM      4  C28 UNL     1      17.112   9.150   2.538 -0.55 +0.00    +0.028 C 
ATOM      5  C29 UNL     1      18.144   8.466   3.289 -0.60 +0.00    +0.014 C 
ATOM      6  C30 UNL     1      19.446   8.717   3.081 -0.17 -0.00    -0.001 C 
ENDROOT
BRANCH   1   7
ATOM      7  C23 UNL     1      21.181   9.250   1.249 +0.62 -0.00    -0.036 A 
ATOM      8  C22 UNL     1      21.614   9.904   0.083 -0.37 +0.00    +0.009 A 
ATOM      9  C21 UNL     1      22.747   9.471  -0.611 +0.09 +0.00    +0.008 A 
ATOM     10  C8  UNL     1      23.491   8.381  -0.147 -0.45 -0.00    -0.048 A 
ATOM     11  C7  UNL     1      23.103   7.736   1.049 -0.27 -0.00    -0.033 A 
ATOM     12  C9  UNL     1      24.734   7.955  -0.911 -0.06 +0.00    +0.074 C 
ATOM     13  C6  UNL     1      23.900   6.559   1.600 +0.20 +0.00    +0.166 C 
ATOM     14  C24 UNL     1      21.955   8.172   1.727 +3.83 +0.00    +0.018 A 
ATOM     15  N2  UNL     1      25.275   6.609   1.099 -0.15 -0.00    -0.332 N 
ATOM     16  C5  UNL     1      26.141   7.352   1.915 -0.29 +0.00    +0.244 C 
ATOM     17  C10 UNL     1      25.273   6.622  -0.383 -0.36 +0.00    +0.184 C 
ATOM     18  O2  UNL     1      25.812   7.651   3.071 -0.39 -0.00    -0.271 OA
BRANCH  16  19
ATOM     19  C4  UNL     1      27.479   7.903   1.366 -0.37 +0.00    +0.184 C 
BRANCH  19  20
ATOM     20  C62 UNL     1      28.739   7.413   2.162 -0.26 -0.00    -0.022 C 
ATOM     21  C63 UNL     1      28.449   7.390   3.675+19.27 +0.00    +0.017 C 
ATOM     22  C64 UNL     1      29.995   8.278   1.928 +0.28 +0.00    +0.017 C 
ATOM     23  C65 UNL     1      29.084   5.971   1.723 +3.41 +0.00    +0.017 C 
ENDBRANCH  19  20
BRANCH  19  24
ATOM     24  N1  UNL     1      27.323   9.356   1.445 +1.17 -0.00    -0.345 N 
ATOM     25  C3  UNL     1      26.338  10.055   0.784+13.92 +0.00    +0.251 C 
ATOM     26  O1  UNL     1      25.494   9.495   0.091+12.26 -0.00    -0.271 OA
ATOM     27  H78 UNL     1      27.958   9.860   2.055 +2.07 +0.00    +0.163 HD
BRANCH  25  28
ATOM     28  C2  UNL     1      26.361  11.578   1.059+35.44 +0.00    +0.307 C 
ATOM     29  C1  UNL     1      24.954  12.162   0.986+16.67 +0.00    +0.053 C 
BRANCH  28  30
ATOM     30  N10 UNL     1      27.211  12.273   0.068+10.91 +0.00    +0.092 N 
ATOM     31  C66 UNL     1      27.482  13.655   0.434+26.11 +0.00    +0.307 C 
ATOM     32  H86 UNL     1      28.078  11.757  -0.083 +0.97 +0.00    +0.316 HD
ENDBRANCH  28  30
ENDBRANCH  25  28
ENDBRANCH  19  24
ENDBRANCH  16  19
BRANCH  17  33
ATOM     33  C11 UNL     1      26.469   6.058  -1.164 -0.27 +0.00    +0.241 C 
ATOM     34  O3  UNL     1      27.102   6.718  -1.982 -0.22 -0.00    -0.271 OA
ATOM     35  N3  UNL     1      26.645   4.700  -1.009 -0.15 -0.00    -0.349 N 
ATOM     36  H79 UNL     1      26.003   4.187  -0.416 +0.09 +0.00    +0.163 HD
BRANCH  35  37
ATOM     37  C12 UNL     1      27.561   3.942  -1.860 -0.25 +0.00    +0.141 C 
BRANCH  37  38
ATOM     38  C13 UNL     1      26.799   3.052  -2.879 -0.25 +0.00    +0.197 C 
BRANCH  38  39
ATOM     39  O4  UNL     1      25.666   3.698  -3.470 +0.46 -0.00    -0.394 OA
ATOM     40  C14 UNL     1      24.913   4.461  -2.536 +0.84 +0.00    +0.201 C 
ENDBRANCH  38  39
ENDBRANCH  37  38
BRANCH  37  41
ATOM     41  C15 UNL     1      28.574   4.917  -2.450 -0.16 -0.00    -0.033 A 
ATOM     42  C16 UNL     1      28.624   5.238  -3.814 +2.58 +0.00    +0.009 A 
ATOM     43  C17 UNL     1      29.547   6.172  -4.295 +0.54 +0.00    +0.001 A 
ATOM     44  C18 UNL     1      30.427   6.804  -3.420 -0.18 +0.00    +0.000 A 
ATOM     45  C19 UNL     1      30.388   6.503  -2.061 -0.13 +0.00    +0.001 A 
ATOM     46  C20 UNL     1      29.467   5.570  -1.580 -0.14 +0.00    +0.009 A 
ENDBRANCH  37  41
ENDBRANCH  35  37
ENDBRANCH  17  33
ENDBRANCH   1   7
BRANCH   1  47
ATOM     47  C61 UNL     1      20.304  10.977   2.923 +1.73 +0.00    +0.232 C 
ATOM     48  O10 UNL     1      21.353  11.119   3.546 +1.64 -0.00    -0.272 OA
ATOM     49  N9  UNL     1      19.381  11.995   2.943 +1.68 -0.00    -0.369 N 
ATOM     50  H84 UNL     1      19.573  12.768   3.566 +1.08 +0.00    +0.159 HD
ATOM     51  H85 UNL     1      18.422  11.839   2.660 +0.13 +0.00    +0.159 HD
ENDBRANCH   1  47
BRANCH   4  52
ATOM     52  C31 UNL     1      15.664   8.997   2.900 -0.32 +0.00    +0.255 C 
ATOM     53  O5  UNL     1      15.097   9.857   3.562 +0.20 -0.00    -0.267 OA
ATOM     54  N4  UNL     1      15.148   7.802   2.440 +0.81 -0.00    -0.323 N 
ATOM     55  H80 UNL     1      15.810   7.158   2.026 +0.80 +0.00    +0.169 HD
BRANCH  54  56
ATOM     56  C32 UNL     1      13.820   7.344   2.553 +1.28 +0.00    +0.035 A 
ATOM     57  C33 UNL     1      13.073   6.857   1.479 +0.92 +0.00    +0.039 A 
ATOM     58  C34 UNL     1      11.759   6.412   1.674 -0.32 -0.00    -0.032 A 
ATOM     59  C35 UNL     1      11.185   6.463   2.952 -0.30 -0.00    -0.048 A 
ATOM     60  C38 UNL     1      10.908   5.921   0.527 -0.25 +0.00    +0.166 C 
ATOM     61  C36 UNL     1       9.751   6.027   3.084 -0.26 +0.00    +0.074 C 
ATOM     62  C59 UNL     1      11.923   6.955   4.027 -0.38 +0.00    +0.010 A 
ATOM     63  C37 UNL     1       9.485   4.761   2.246 -0.01 +0.00    +0.184 C 
ATOM     64  N5  UNL     1      10.122   4.745   0.909 +0.58 -0.00    -0.332 N 
ATOM     65  C39 UNL     1      10.075   3.543   0.215 +2.60 +0.00    +0.244 C 
ATOM     66  O6  UNL     1       9.516   2.559   0.723 -0.05 -0.00    -0.271 OA
ATOM     67  C60 UNL     1      13.238   7.383   3.827 -0.44 +0.00    +0.030 A 
BRANCH  63  68
ATOM     68  C49 UNL     1       7.959   4.631   2.074 -0.08 +0.00    +0.241 C 
ATOM     69  O8  UNL     1       7.320   3.672   2.502 -0.09 -0.00    -0.271 OA
ATOM     70  N8  UNL     1       7.383   5.722   1.447 -0.04 -0.00    -0.349 N 
ATOM     71  H83 UNL     1       7.837   6.601   1.701 +0.09 +0.00    +0.163 HD
BRANCH  70  72
ATOM     72  C50 UNL     1       5.932   5.841   1.341 -0.21 +0.00    +0.141 C 
BRANCH  72  73
ATOM     73  C51 UNL     1       5.551   6.707   0.115 +0.58 +0.00    +0.197 C 
BRANCH  73  74
ATOM     74  O9  UNL     1       6.196   7.989   0.117 -0.20 -0.00    -0.394 OA
ATOM     75  C52 UNL     1       7.433   7.997  -0.583 -0.29 +0.00    +0.201 C 
ENDBRANCH  73  74
ENDBRANCH  72  73
BRANCH  72  76
ATOM     76  C53 UNL     1       5.257   4.480   1.247 -0.14 -0.00    -0.033 A 
ATOM     77  C54 UNL     1       4.563   3.963   2.350 -0.12 +0.00    +0.009 A 
ATOM     78  C55 UNL     1       3.923   2.724   2.271 -0.11 +0.00    +0.001 A 
ATOM     79  C56 UNL     1       3.969   1.988   1.090 -0.13 +0.00    +0.000 A 
ATOM     80  C57 UNL     1       4.659   2.486  -0.013 -0.10 +0.00    +0.001 A 
ATOM     81  C58 UNL     1       5.301   3.724   0.065 -0.12 +0.00    +0.009 A 
ENDBRANCH  72  76
ENDBRANCH  70  72
ENDBRANCH  63  68
BRANCH  65  82
ATOM     82  C40 UNL     1      10.637   3.437  -1.232 -0.07 +0.00    +0.184 C 
BRANCH  82  83
ATOM     83  C41 UNL     1      10.272   4.661  -2.137 -0.23 -0.00    -0.022 C 
ATOM     84  C42 UNL     1      11.409   5.698  -2.167 -0.18 +0.00    +0.017 C 
ATOM     85  C43 UNL     1      10.054   4.175  -3.590 +0.46 +0.00    +0.017 C 
ATOM     86  C44 UNL     1       8.989   5.375  -1.668 -0.19 +0.00    +0.017 C 
ENDBRANCH  82  83
BRANCH  82  87
ATOM     87  N6  UNL     1      10.090   2.194  -1.786 -0.08 -0.00    -0.345 N 
ATOM     88  C45 UNL     1      10.610   0.964  -1.436 -0.22 +0.00    +0.251 C 
ATOM     89  O7  UNL     1      11.664   0.818  -0.826 -0.33 -0.00    -0.271 OA
ATOM     90  H81 UNL     1       9.078   2.148  -1.909 +0.07 +0.00    +0.163 HD
BRANCH  88  91
ATOM     91  C46 UNL     1       9.769  -0.223  -1.949 -0.13 +0.00    +0.307 C 
ATOM     92  C47 UNL     1       9.779  -0.202  -3.476 -0.17 +0.00    +0.053 C 
BRANCH  91  93
ATOM     93  N7  UNL     1       8.365  -0.115  -1.472 -0.18 +0.00    +0.092 N 
ATOM     94  C48 UNL     1       7.519   0.541  -2.469 -0.07 +0.00    +0.307 C 
ATOM     95  H82 UNL     1       8.352   0.455  -0.624 +0.15 +0.00    +0.316 HD
ENDBRANCH  91  93
ENDBRANCH  88  91
ENDBRANCH  82  87
ENDBRANCH  65  82
ENDBRANCH  54  56
ENDBRANCH   4  52
TORSDOF 24
TER
