USER    Run = 1
USER    DPF = ligand_132_receptor.dpf
USER  
USER    Estimated Free Energy of Binding    =  +1.18e+005 kcal/mol  [=(1)+(2)+(3)-(4)]
USER    
USER    (1) Final Intermolecular Energy     =  +1.18e+005 kcal/mol
USER        vdW + Hbond + desolv Energy     =  +1.18e+005 kcal/mol
USER        Electrostatic Energy            =   +0.00 kcal/mol
USER    (2) Final Total Internal Energy     =   +0.00 kcal/mol
USER    (3) Torsional Free Energy           =   +1.19 kcal/mol
USER    (4) Unbound System's Energy  [=(2)] =   +0.00 kcal/mol
USER    
USER    
USER    NEWDPF move ligand_132.pdbqt
USER    NEWDPF about 0.000000 0.000000 0.000000
USER    NEWDPF tran0 18.398318 7.559386 1.422343
USER    NEWDPF quaternion0 0.598021 0.257252 -0.031658 0.758413
USER    NEWDPF axisangle0 0.917528 0.394695 -0.048572 81.351065
USER    NEWDPF quat0 0.917528 0.394695 -0.048572 81.351065
USER  keepresnum = 1 
USER  
REMARK  0 active torsions:
REMARK  status: ('A' for Active; 'I' for Inactive)
REMARK       I    between atoms: C2_2  and  C3_3 
REMARK       I    between atoms: C3_3  and  C5_5 
REMARK       I    between atoms: C5_5  and  C6_6 
REMARK       I    between atoms: C5_5  and  N3_77 
REMARK       I    between atoms: C6_6  and  C7_7 
REMARK       I    between atoms: C6_6  and  O5_61 
REMARK       I    between atoms: C7_7  and  C8_8 
REMARK       I    between atoms: C8_8  and  N1_75 
REMARK       I    between atoms: C12_12  and  C13_13 
REMARK       I    between atoms: C13_13  and  C14_14 
REMARK       I    between atoms: C13_13  and  O4_60 
REMARK       I    between atoms: C14_14  and  C16_16 
REMARK       I    between atoms: C16_16  and  N2_76 
REMARK       I    between atoms: C17_17  and  C19_19 
REMARK       I    between atoms: C17_17  and  N2_76 
REMARK       I    between atoms: C19_19  and  C20_20 
REMARK       I    between atoms: C19_19  and  O3_59 
REMARK       I    between atoms: C29_29  and  C30_30 
REMARK       I    between atoms: C29_29  and  N3_77 
REMARK       I    between atoms: C30_30  and  C31_31 
REMARK       I    between atoms: C30_30  and  N4_78 
REMARK       I    between atoms: C34_34  and  C35_35 
REMARK       I    between atoms: C34_34  and  N4_78 
REMARK       I    between atoms: C35_35  and  C36_36 
REMARK       I    between atoms: C35_35  and  N5_79 
REMARK       I    between atoms: C40_40  and  O9_65 
REMARK       I    between atoms: C40_40  and  N5_79 
REMARK       I    between atoms: C41_41  and  C42_42 
REMARK       I    between atoms: C41_41  and  O9_65 
REMARK       I    between atoms: C43_43  and  O17_74 
REMARK       I    between atoms: C45_45  and  O10_66 
REMARK       I    between atoms: C48_48  and  O10_66 
REMARK       I    between atoms: C49_49  and  O16_73 
REMARK       I    between atoms: C50_50  and  O15_72 
REMARK       I    between atoms: C51_51  and  O14_71 
REMARK       I    between atoms: C52_52  and  C53_53 
REMARK       I    between atoms: C53_53  and  N6_80 
REMARK       I    between atoms: C54_54  and  O17_74 
REMARK       I    between atoms: O13_69  and  N6_80 
USER                              x       y       z     vdW  Elec       q    Type
USER                           _______ _______ _______ _____ _____    ______ ____
ROOT
ATOM      1  C1  UNL     1      20.387   8.670   5.049+17.42 +0.00    +0.005 C 
ATOM      2  C2  UNL     1      19.496   7.686   4.304 +1.03 +0.00    +0.002 C 
ATOM      3  C3  UNL     1      18.967   8.174   2.940 +0.63 +0.00    +0.006 C 
ATOM      4  C4  UNL     1      18.090   9.423   3.141 -0.55 +0.00    +0.012 C 
ATOM      5  C5  UNL     1      20.060   8.422   1.835+88.79 +0.00    +0.119 C 
ATOM      6  C6  UNL     1      20.965   7.170   1.521+99.99 +0.00    +0.152 C 
ATOM      7  C7  UNL     1      22.253   7.081   2.364+17.55 +0.00    +0.137 C 
ATOM      8  C8  UNL     1      23.209   8.264   2.236 -0.26 +0.00    +0.222 C 
ATOM      9  C9  UNL     1      24.857   6.971   3.652+21.68 +0.00    +0.126 C 
ATOM     10  C10 UNL     1      26.240   7.338   4.164 +0.44 +0.00    +0.022 C 
ATOM     11  C11 UNL     1      26.674   8.435   3.199 -0.34 +0.00    +0.029 C 
ATOM     12  C12 UNL     1      25.388   9.242   2.983 -0.59 +0.00    +0.117 C 
ATOM     13  C13 UNL     1      25.115  10.340   4.068+27.15 +0.00    +0.156 C 
ATOM     14  C14 UNL     1      26.179  11.469   4.163+90.31 +0.00    +0.105 C 
ATOM     15  C15 UNL     1      26.746  11.890   2.804+99.99 +0.00    +0.022 C 
ATOM     16  C16 UNL     1      27.273  11.137   5.174+99.99 +0.00    +0.224 C 
ATOM     17  C17 UNL     1      29.312  12.005   6.331+67.16 +0.00    +0.113 C 
ATOM     18  C18 UNL     1      30.433  12.955   5.904+10.11 +0.00    +0.035 C 
ATOM     19  C19 UNL     1      28.814  12.276   7.789+11.89 +0.00    +0.173 C 
ATOM     20  C20 UNL     1      29.926  12.290   8.818 +0.07 -0.00    -0.028 A 
ATOM     21  C21 UNL     1      30.608  11.113   9.160+99.99 +0.00    +0.010 A 
ATOM     22  C22 UNL     1      31.649  11.138  10.089+99.99 +0.00    +0.001 A 
ATOM     23  C23 UNL     1      32.021  12.340  10.688 +0.21 +0.00    +0.000 A 
ATOM     24  C24 UNL     1      31.348  13.516  10.363 -0.17 +0.00    +0.001 A 
ATOM     25  C25 UNL     1      30.306  13.492   9.435 -0.26 +0.00    +0.010 A 
ATOM     26  C26 UNL     1      23.109  11.348   4.904 +6.30 +0.00    +0.202 C 
ATOM     27  C27 UNL     1      21.455   5.823  -0.400+28.97 +0.00    +0.202 C 
ATOM     28  C28 UNL     1      20.093  10.194   0.087 -0.07 +0.00    +0.153 C 
ATOM     29  C29 UNL     1      18.542   8.220  -0.133+76.38 +0.00    +0.243 C 
ATOM     30  C30 UNL     1      17.981   8.784  -1.464 +2.02 +0.00    +0.180 C 
ATOM     31  C31 UNL     1      18.961   8.563  -2.639+99.99 +0.00    +0.009 C 
ATOM     32  C32 UNL     1      18.582   9.451  -3.827+99.99 +0.00    +0.012 C 
ATOM     33  C33 UNL     1      19.046   7.103  -3.099+60.96 +0.00    +0.012 C 
ATOM     34  C34 UNL     1      15.501   8.707  -1.303+17.22 +0.00    +0.241 C 
ATOM     35  C35 UNL     1      14.322   7.699  -1.229+39.82 +0.00    +0.184 C 
ATOM     36  C36 UNL     1      12.898   8.315  -1.192+99.99 +0.00    +0.010 C 
ATOM     37  C37 UNL     1      12.630   9.382  -2.257+99.99 +0.00    +0.012 C 
ATOM     38  C38 UNL     1      12.573   8.883   0.196+99.99 +0.00    +0.012 C 
ATOM     39  C39 UNL     1      14.494   6.922  -3.639+25.29 +0.00    +0.156 C 
ATOM     40  C40 UNL     1      14.124   5.282  -1.900+99.99 +0.00    +0.363 C 
ATOM     41  C41 UNL     1      13.520   3.789  -0.163+99.99 +0.00    +0.222 C 
ATOM     42  C42 UNL     1      12.016   3.677  -0.188+16.52 -0.00    -0.000 A 
ATOM     43  C43 UNL     1      11.362   2.641  -0.863 +0.59 +0.00    +0.081 A 
ATOM     44  C44 UNL     1       9.965   2.531  -0.847 -0.16 +0.00    +0.074 A 
ATOM     45  C45 UNL     1       9.196   3.481  -0.178 -0.10 +0.00    +0.074 A 
ATOM     46  C46 UNL     1       9.838   4.531   0.480 +0.24 +0.00    +0.037 A 
ATOM     47  C47 UNL     1      11.233   4.626   0.484+22.40 +0.00    +0.015 A 
ATOM     48  C48 UNL     1       7.102   2.391  -0.637 -0.02 +0.00    +0.298 C 
ATOM     49  C49 UNL     1       5.665   2.506  -0.073 -0.06 +0.00    +0.205 C 
ATOM     50  C50 UNL     1       4.733   1.437  -0.667 -0.11 +0.00    +0.183 C 
ATOM     51  C51 UNL     1       5.392   0.697  -1.834 -0.09 +0.00    +0.188 C 
ATOM     52  C52 UNL     1       6.109   1.696  -2.753 -0.06 +0.00    +0.249 C 
ATOM     53  C53 UNL     1       5.127   2.626  -3.497 -0.06 +0.00    +0.272 C 
ATOM     54  C54 UNL     1      12.093   1.874  -2.928+37.55 +0.00    +0.268 C 
ATOM     55  C55 UNL     1      11.322   0.805  -3.583 +0.66 -0.00    -0.091 C 
ATOM     56  C56 UNL     1      10.695  -0.066  -4.123 +5.58 +0.00    +0.014 C 
ATOM     57  O1  UNL     1      22.983   9.226   1.508 -0.29 -0.00    -0.273 OA
ATOM     58  O2  UNL     1      27.302  10.104   5.836+99.99 -0.00    -0.273 OA
ATOM     59  O3  UNL     1      27.858  11.304   8.229+91.18 -0.00    -0.389 OA
ATOM     60  O4  UNL     1      23.857  10.980   3.753 -0.21 -0.00    -0.388 OA
ATOM     61  O5  UNL     1      21.347   7.138   0.126+99.99 -0.00    -0.388 OA
ATOM     62  O6  UNL     1      18.176   7.097   0.245+99.99 -0.00    -0.271 OA
ATOM     63  O7  UNL     1      15.428   9.870  -0.918+44.88 -0.00    -0.271 OA
ATOM     64  O8  UNL     1      14.034   4.385  -2.730+99.99 -0.00    -0.238 OA
ATOM     65  O9  UNL     1      13.921   5.106  -0.570+28.22 -0.00    -0.299 OA
ATOM     66  O10 UNL     1       7.832   3.502  -0.094 -0.03 -0.00    -0.318 OA
ATOM     67  O11 UNL     1       7.147   2.405  -2.067 -0.04 -0.00    -0.341 OA
ATOM     68  O12 UNL     1       4.292   2.219  -4.301 -0.03 -0.00    -0.268 OA
ATOM     69  O13 UNL     1       4.399   4.752  -3.937 +6.12 -0.00    -0.287 OA
ATOM     70  H13 UNL     1       4.451   5.689  -3.793+99.99 +0.00    +0.244 HD
ATOM     71  O14 UNL     1       4.441  -0.115  -2.515 +0.00 -0.00    -0.390 OA
ATOM     72  O15 UNL     1       3.533   2.068  -1.135 -0.02 -0.00    -0.390 OA
ATOM     73  O16 UNL     1       5.687   2.359   1.356 -0.04 -0.00    -0.388 OA
ATOM     74  O17 UNL     1      12.091   1.674  -1.504 +0.45 -0.00    -0.339 OA
ATOM     75  N1  UNL     1      24.359   8.181   3.010 -0.13 -0.00    -0.345 N 
ATOM     76  N2  UNL     1      28.215  12.125   5.352+99.99 -0.00    -0.354 N 
ATOM     77  N3  UNL     1      19.448   8.988   0.597 +9.94 -0.00    -0.347 N 
ATOM     78  N4  UNL     1      16.692   8.128  -1.703 -0.21 -0.00    -0.346 N 
ATOM     79  N5  UNL     1      14.440   6.597  -2.222 +5.63 -0.00    -0.319 N 
ATOM     80  N6  UNL     1       5.208   4.094  -3.271 +0.45 -0.00    -0.235 N 
ATOM     81  H6  UNL     1       5.871   4.520  -2.624 -0.26 +0.00    +0.197 HD
ATOM     82  H77 UNL     1      27.665  10.703   7.481 +9.09 +0.00    +0.210 HD
ATOM     83  H78 UNL     1       4.171  -0.840  -1.921 +0.31 +0.00    +0.210 HD
ATOM     84  H79 UNL     1       3.045   1.415  -1.677 +0.04 +0.00    +0.210 HD
ATOM     85  H80 UNL     1       6.233   3.096   1.697 +0.08 +0.00    +0.210 HD
ATOM     86  H81 UNL     1      28.003  13.051   4.999+99.99 +0.00    +0.163 HD
ATOM     87  H82 UNL     1      16.709   7.115  -1.631 +0.06 +0.00    +0.163 HD
ENDROOT
TORSDOF 33
TER
