USER    Run = 1
USER    DPF = ligand_521_receptor.dpf
USER  
USER    Estimated Free Energy of Binding    =  +1.72e+003 kcal/mol  [=(1)+(2)+(3)-(4)]
USER    
USER    (1) Final Intermolecular Energy     =  +1.72e+003 kcal/mol
USER        vdW + Hbond + desolv Energy     =  +1.72e+003 kcal/mol
USER        Electrostatic Energy            =   +0.00 kcal/mol
USER    (2) Final Total Internal Energy     =   +0.00 kcal/mol
USER    (3) Torsional Free Energy           =   +1.19 kcal/mol
USER    (4) Unbound System's Energy  [=(2)] =   +0.00 kcal/mol
USER    
USER    
USER    NEWDPF move ligand_521.pdbqt
USER    NEWDPF about 0.000000 0.000000 0.000000
USER    NEWDPF tran0 14.343226 7.622599 2.702788
USER    NEWDPF quaternion0 -0.933965 -0.211103 0.074917 -0.278446
USER    NEWDPF axisangle0 -0.972422 -0.219796 0.078002 -147.665011
USER    NEWDPF quat0 -0.972422 -0.219796 0.078002 -147.665011
USER  keepresnum = 1 
USER  
REMARK  0 active torsions:
REMARK  status: ('A' for Active; 'I' for Inactive)
REMARK       I    between atoms: C2_2  and  C3_3 
REMARK       I    between atoms: C2_2  and  O15_54 
REMARK       I    between atoms: C3_3  and  C4_4 
REMARK       I    between atoms: C3_3  and  N18_74 
REMARK       I    between atoms: C4_4  and  N1_55 
REMARK       I    between atoms: C5_5  and  C6_6 
REMARK       I    between atoms: C5_5  and  N1_55 
REMARK       I    between atoms: C6_6  and  N2_56 
REMARK       I    between atoms: C7_7  and  C9_9 
REMARK       I    between atoms: C7_7  and  N2_56 
REMARK       I    between atoms: C9_9  and  N3_57 
REMARK       I    between atoms: C10_10  and  C11_11 
REMARK       I    between atoms: C10_10  and  N3_57 
REMARK       I    between atoms: C11_11  and  N4_58 
REMARK       I    between atoms: C12_12  and  C14_14 
REMARK       I    between atoms: C12_12  and  N4_58 
REMARK       I    between atoms: C14_14  and  N5_59 
REMARK       I    between atoms: C15_15  and  C16_16 
REMARK       I    between atoms: C15_15  and  N5_59 
REMARK       I    between atoms: C16_16  and  N6_60 
REMARK       I    between atoms: C17_17  and  C19_19 
REMARK       I    between atoms: C17_17  and  N6_60 
REMARK       I    between atoms: C19_19  and  N7_61 
REMARK       I    between atoms: C20_20  and  C21_21 
REMARK       I    between atoms: C20_20  and  C25_25 
REMARK       I    between atoms: C20_20  and  N7_61 
REMARK       I    between atoms: C21_21  and  C22_22 
REMARK       I    between atoms: C22_22  and  C23_23 
REMARK       I    between atoms: C23_23  and  N8_62 
REMARK       I    between atoms: C24_24  and  N9_64 
REMARK       I    between atoms: C24_24  and  N10_65 
REMARK       I    between atoms: C25_25  and  N11_66 
REMARK       I    between atoms: C26_26  and  C27_27 
REMARK       I    between atoms: C26_26  and  N11_66 
REMARK       I    between atoms: C27_27  and  N12_67 
REMARK       I    between atoms: C28_28  and  C29_29 
REMARK       I    between atoms: C28_28  and  C33_33 
REMARK       I    between atoms: C28_28  and  N12_67 
REMARK       I    between atoms: C29_29  and  C30_30 
REMARK       I    between atoms: C30_30  and  C31_31 
REMARK       I    between atoms: C31_31  and  N13_68 
REMARK       I    between atoms: C32_32  and  N14_70 
REMARK       I    between atoms: C32_32  and  N15_71 
REMARK       I    between atoms: C33_33  and  N16_72 
REMARK       I    between atoms: C34_34  and  C35_35 
REMARK       I    between atoms: C34_34  and  N16_72 
REMARK       I    between atoms: C35_35  and  N17_73 
REMARK       I    between atoms: C36_36  and  C37_37 
REMARK       I    between atoms: C36_36  and  N17_73 
REMARK       I    between atoms: C37_37  and  O13_52 
REMARK       I    between atoms: C38_38  and  C39_39 
REMARK       I    between atoms: C38_38  and  N18_74 
REMARK       I    between atoms: C39_39  and  N19_75 
USER                              x       y       z     vdW  Elec       q    Type
USER                           _______ _______ _______ _____ _____    ______ ____
ROOT
ATOM      1  C1  UNL     1      26.712   9.619  -0.590+86.94 +0.00    +0.042 C 
ATOM      2  C2  UNL     1      25.546   9.587   0.393+20.04 +0.00    +0.146 C 
ATOM      3  C3  UNL     1      25.991   9.953   1.827 +0.12 +0.00    +0.205 C 
ATOM      4  C4  UNL     1      24.779   9.905   2.784 -0.44 +0.00    +0.243 C 
ATOM      5  C5  UNL     1      22.460  10.601   3.029 +2.46 +0.00    +0.225 C 
ATOM      6  C6  UNL     1      21.768   9.611   2.077 -0.32 +0.00    +0.236 C 
ATOM      7  C7  UNL     1      19.619   8.532   1.552+75.03 +0.00    +0.172 C 
ATOM      8  C8  UNL     1      18.648   7.654   2.331+13.95 +0.00    +0.042 C 
ATOM      9  C9  UNL     1      18.838   9.563   0.712 +0.24 +0.00    +0.240 C 
ATOM     10  C10 UNL     1      17.298   9.851  -1.171 +2.12 +0.00    +0.225 C 
ATOM     11  C11 UNL     1      15.907   9.637  -0.567 +7.30 +0.00    +0.236 C 
ATOM     12  C12 UNL     1      13.683  10.654  -0.179+99.99 +0.00    +0.172 C 
ATOM     13  C13 UNL     1      12.756  11.566  -0.970+25.59 +0.00    +0.042 C 
ATOM     14  C14 UNL     1      13.757  11.078   1.307+99.99 +0.00    +0.240 C 
ATOM     15  C15 UNL     1      14.675  10.387   3.522+28.77 +0.00    +0.225 C 
ATOM     16  C16 UNL     1      13.692   9.634   4.424+24.28 +0.00    +0.236 C 
ATOM     17  C17 UNL     1      11.423   8.713   4.571 +0.55 +0.00    +0.172 C 
ATOM     18  C18 UNL     1      10.004   9.205   4.332 +0.02 +0.00    +0.042 C 
ATOM     19  C19 UNL     1      11.631   7.312   3.963 -0.29 +0.00    +0.240 C 
ATOM     20  C20 UNL     1      11.146   4.900   4.233 -0.06 +0.00    +0.176 C 
ATOM     21  C21 UNL     1      12.480   4.304   4.711 +8.96 +0.00    +0.036 C 
ATOM     22  C22 UNL     1      12.777   4.412   6.214 -0.56 +0.00    +0.022 C 
ATOM     23  C23 UNL     1      13.254   5.801   6.652 -0.47 +0.00    +0.121 C 
ATOM     24  C24 UNL     1      14.140   6.789   8.580 -0.54 +0.00    +0.121 C 
ATOM     25  C25 UNL     1       9.915   4.109   4.712 -0.27 +0.00    +0.240 C 
ATOM     26  C26 UNL     1       8.650   2.009   4.495+60.60 +0.00    +0.225 C 
ATOM     27  C27 UNL     1       7.609   2.318   3.416 +0.07 +0.00    +0.236 C 
ATOM     28  C28 UNL     1       5.886   3.995   2.706 -0.10 +0.00    +0.176 C 
ATOM     29  C29 UNL     1       4.977   5.001   3.441 -0.18 +0.00    +0.036 C 
ATOM     30  C30 UNL     1       5.641   6.092   4.304 +0.24 +0.00    +0.022 C 
ATOM     31  C31 UNL     1       6.806   6.880   3.704 +2.15 +0.00    +0.121 C 
ATOM     32  C32 UNL     1       5.770   8.159   1.996 +0.51 +0.00    +0.121 C 
ATOM     33  C33 UNL     1       6.261   4.492   1.274 -0.07 +0.00    +0.240 C 
ATOM     34  C34 UNL     1       7.843   4.228  -0.601 -0.06 +0.00    +0.225 C 
ATOM     35  C35 UNL     1       8.523   5.557  -0.959 -0.08 +0.00    +0.235 C 
ATOM     36  C36 UNL     1       8.991   7.868  -0.231 +0.11 +0.00    +0.232 C 
ATOM     37  C37 UNL     1      10.310   7.892   0.533 +2.98 +0.00    +0.158 C 
ATOM     38  C38 UNL     1      27.915   9.400   3.267 +8.32 +0.00    +0.246 C 
ATOM     39  C39 UNL     1      28.693   8.267   3.949+99.99 +0.00    +0.368 C 
ATOM     40  O1  UNL     1      24.651   9.044   3.656 -0.77 -0.00    -0.271 OA
ATOM     41  O2  UNL     1      22.308   9.176   1.058 -0.30 -0.00    -0.272 OA
ATOM     42  O3  UNL     1      18.705  10.735   1.062 -0.31 -0.00    -0.271 OA
ATOM     43  O4  UNL     1      15.594   8.603   0.028 -0.39 -0.00    -0.272 OA
ATOM     44  O5  UNL     1      13.289  12.126   1.742 +1.39 -0.00    -0.271 OA
ATOM     45  O6  UNL     1      14.019   9.179   5.521 +0.06 -0.00    -0.272 OA
ATOM     46  O7  UNL     1      12.316   7.106   2.957 -0.31 -0.00    -0.271 OA
ATOM     47  O8  UNL     1       9.027   4.616   5.399 -0.18 -0.00    -0.271 OA
ATOM     48  O9  UNL     1       7.437   1.603   2.433 -0.23 -0.00    -0.272 OA
ATOM     49  O10 UNL     1       5.490   5.130   0.559 -0.15 -0.00    -0.271 OA
ATOM     50  O11 UNL     1       9.179   5.682  -1.993 -0.12 -0.00    -0.272 OA
ATOM     51  O12 UNL     1      10.996   8.890   0.724+99.99 -0.00    -0.649 OA
ATOM     52  O13 UNL     1      10.705   6.690   1.002 +0.06 -0.00    -0.775 OA
ATOM     53  O14 UNL     1      28.149  10.583   3.506+99.99 -0.00    -0.272 OA
ATOM     54  O15 UNL     1      24.970   8.276   0.342 -0.15 -0.00    -0.393 OA
ATOM     55  N1  UNL     1      23.804  10.858   2.543 +9.30 -0.00    -0.350 N 
ATOM     56  N2  UNL     1      20.492   9.262   2.468 -0.12 -0.00    -0.347 N 
ATOM     57  N3  UNL     1      18.259   9.054  -0.431 +0.25 -0.00    -0.351 N 
ATOM     58  N4  UNL     1      15.030  10.681  -0.758+99.99 -0.00    -0.347 N 
ATOM     59  N5  UNL     1      14.413  10.170   2.109+22.01 -0.00    -0.351 N 
ATOM     60  N6  UNL     1      12.392   9.607   3.962 +9.91 -0.00    -0.347 N 
ATOM     61  N7  UNL     1      10.974   6.295   4.606 -0.09 -0.00    -0.346 N 
ATOM     62  N8  UNL     1      13.797   5.698   8.003 -0.29 -0.00    -0.372 N 
ATOM     63  H8  UNL     1      13.899   4.796   8.467 +0.12 +0.00    +0.161 HD
ATOM     64  N9  UNL     1      14.629   6.747   9.839 +2.60 -0.00    -0.279 NA
ATOM     65  N10 UNL     1      14.084   8.069   8.153 +1.57 -0.00    -0.279 NA
ATOM     66  N11 UNL     1       9.839   2.809   4.261 +0.17 -0.00    -0.351 N 
ATOM     67  N12 UNL     1       6.972   3.526   3.573 -0.08 -0.00    -0.346 N 
ATOM     68  N13 UNL     1       6.571   7.216   2.314 -0.16 -0.00    -0.372 N 
ATOM     69  H13 UNL     1       7.051   6.693   1.581 +0.08 +0.00    +0.161 HD
ATOM     70  N14 UNL     1       5.086   9.025   2.772 +3.18 -0.00    -0.279 NA
ATOM     71  N15 UNL     1       5.478   8.366   0.694+13.77 -0.00    -0.279 NA
ATOM     72  N16 UNL     1       7.481   4.051   0.800 +0.01 -0.00    -0.351 N 
ATOM     73  N17 UNL     1       8.277   6.610  -0.113 -0.10 -0.00    -0.350 N 
ATOM     74  N18 UNL     1      26.980   9.004   2.337 -0.18 -0.00    -0.344 N 
ATOM     75  N19 UNL     1      28.050   6.950   3.810+55.28 +0.00    +0.087 N 
ATOM     76  H46 UNL     1      11.547   6.861   1.495 +0.08 +0.00    +0.167 HD
ATOM     77  H47 UNL     1      24.021   8.370   0.580 +0.17 +0.00    +0.210 HD
ATOM     78  H48 UNL     1      23.873  11.404   1.696 +6.18 +0.00    +0.163 HD
ATOM     79  H49 UNL     1      20.020   9.910   3.089 +0.11 +0.00    +0.163 HD
ATOM     80  H50 UNL     1      18.148   8.049  -0.497 +0.71 +0.00    +0.163 HD
ATOM     81  H51 UNL     1      15.428  11.598  -0.922 +2.86 +0.00    +0.163 HD
ATOM     82  H52 UNL     1      14.728   9.297   1.682 +0.05 +0.00    +0.163 HD
ATOM     83  H53 UNL     1      12.288   9.775   2.964 -0.10 +0.00    +0.163 HD
ATOM     84  H54 UNL     1      10.404   6.482   5.427 +0.11 +0.00    +0.163 HD
ATOM     85  H55 UNL     1      14.191   7.436  10.438 +0.26 +0.00    +0.126 HD
ATOM     86  H56 UNL     1      14.509   5.813  10.219 +3.45 +0.00    +0.126 HD
ATOM     87  H57 UNL     1      13.983   8.206   7.144 +0.11 +0.00    +0.126 HD
ATOM     88  H58 UNL     1      14.871   8.619   8.475 +1.28 +0.00    +0.126 HD
ATOM     89  H59 UNL     1      10.456   2.514   3.512 -0.27 +0.00    +0.163 HD
ATOM     90  H60 UNL     1       7.347   4.150   4.284 +0.08 +0.00    +0.163 HD
ATOM     91  H61 UNL     1       5.424   9.101   3.722+32.98 +0.00    +0.126 HD
ATOM     92  H62 UNL     1       4.994   9.939   2.343 +0.14 +0.00    +0.126 HD
ATOM     93  H63 UNL     1       4.481   8.472   0.547+94.02 +0.00    +0.126 HD
ATOM     94  H64 UNL     1       5.790   7.556   0.154 +0.02 +0.00    +0.126 HD
ATOM     95  H65 UNL     1       7.788   3.180   1.221 +0.07 +0.00    +0.163 HD
ATOM     96  H66 UNL     1       7.811   6.421   0.774 +0.08 +0.00    +0.163 HD
ATOM     97  H67 UNL     1      26.634   8.056   2.416 +0.10 +0.00    +0.163 HD
ATOM     98  H68 UNL     1      27.094   7.000   4.162 -0.18 +0.00    +0.313 HD
ATOM     99  H69 UNL     1      28.021   6.681   2.829 +0.73 +0.00    +0.313 HD
ENDROOT
TORSDOF 37
TER
