USER    Run = 1
USER    DPF = ligand_142_receptor.dpf
USER  
USER    Estimated Free Energy of Binding    =  +2.94e+006 kcal/mol  [=(1)+(2)+(3)-(4)]
USER    
USER    (1) Final Intermolecular Energy     =  +2.94e+006 kcal/mol
USER        vdW + Hbond + desolv Energy     =  +1.60e+006 kcal/mol
USER        Electrostatic Energy            =  +1.34e+006 kcal/mol
USER    (2) Final Total Internal Energy     =   +0.00 kcal/mol
USER    (3) Torsional Free Energy           =   +1.19 kcal/mol
USER    (4) Unbound System's Energy  [=(2)] =   +0.00 kcal/mol
USER    
USER    
USER    NEWDPF move ligand_142.pdbqt
USER    NEWDPF about 0.000000 0.000000 0.000000
USER    NEWDPF tran0 16.648392 6.024637 1.990473
USER    NEWDPF quaternion0 0.116614 0.980454 0.149971 0.051192
USER    NEWDPF axisangle0 0.116767 0.981741 0.150168 174.131254
USER    NEWDPF quat0 0.116767 0.981741 0.150168 174.131254
USER  keepresnum = 1 
USER  
REMARK  0 active torsions:
REMARK  status: ('A' for Active; 'I' for Inactive)
REMARK       I    between atoms: C2_2  and  O1_69 
REMARK       I    between atoms: C3_3  and  C14_14 
REMARK       I    between atoms: C5_5  and  N1_83 
REMARK       I    between atoms: C8_8  and  C9_9 
REMARK       I    between atoms: C8_8  and  N1_83 
REMARK       I    between atoms: C9_9  and  C10_10 
REMARK       I    between atoms: C9_9  and  N5_88 
REMARK       I    between atoms: C10_10  and  C11_11 
REMARK       I    between atoms: C11_11  and  C12_12 
REMARK       I    between atoms: C12_12  and  N2_84 
REMARK       I    between atoms: C13_13  and  N2_84 
REMARK       I    between atoms: C13_13  and  N3_85 
REMARK       I    between atoms: C13_13  and  N4_87 
REMARK       I    between atoms: C14_14  and  N6_89 
REMARK       I    between atoms: C15_15  and  C16_16 
REMARK       I    between atoms: C15_15  and  C20_20 
REMARK       I    between atoms: C15_15  and  N6_89 
REMARK       I    between atoms: C16_16  and  C17_17 
REMARK       I    between atoms: C17_17  and  C18_18 
REMARK       I    between atoms: C18_18  and  N7_90 
REMARK       I    between atoms: C19_19  and  N7_90 
REMARK       I    between atoms: C19_19  and  N8_91 
REMARK       I    between atoms: C19_19  and  N9_93 
REMARK       I    between atoms: C20_20  and  N10_94 
REMARK       I    between atoms: C21_21  and  N10_94 
REMARK       I    between atoms: C23_23  and  C28_28 
REMARK       I    between atoms: C24_24  and  O5_73 
REMARK       I    between atoms: C28_28  and  N11_95 
REMARK       I    between atoms: C29_29  and  C30_30 
REMARK       I    between atoms: C29_29  and  C34_34 
REMARK       I    between atoms: C29_29  and  N11_95 
REMARK       I    between atoms: C30_30  and  C31_31 
REMARK       I    between atoms: C31_31  and  C32_32 
REMARK       I    between atoms: C32_32  and  N12_96 
REMARK       I    between atoms: C33_33  and  N12_96 
REMARK       I    between atoms: C33_33  and  N13_97 
REMARK       I    between atoms: C33_33  and  N14_99 
REMARK       I    between atoms: C34_34  and  N15_100 
REMARK       I    between atoms: C35_35  and  N15_100 
REMARK       I    between atoms: C37_37  and  C42_42 
REMARK       I    between atoms: C38_38  and  O8_76 
REMARK       I    between atoms: C42_42  and  N16_101 
REMARK       I    between atoms: C43_43  and  C44_44 
REMARK       I    between atoms: C43_43  and  C49_49 
REMARK       I    between atoms: C43_43  and  N16_101 
REMARK       I    between atoms: C44_44  and  C45_45 
REMARK       I    between atoms: C45_45  and  C46_46 
REMARK       I    between atoms: C46_46  and  C47_47 
REMARK       I    between atoms: C47_47  and  N17_102 
REMARK       I    between atoms: C48_48  and  N17_102 
REMARK       I    between atoms: C48_48  and  N19_105 
REMARK       I    between atoms: C49_49  and  N20_106 
REMARK       I    between atoms: C50_50  and  N20_106 
REMARK       I    between atoms: C52_52  and  C57_57 
REMARK       I    between atoms: C53_53  and  O11_79 
REMARK       I    between atoms: C57_57  and  N21_107 
REMARK       I    between atoms: C58_58  and  C59_59 
REMARK       I    between atoms: C58_58  and  C68_68 
REMARK       I    between atoms: C58_58  and  N21_107 
REMARK       I    between atoms: C59_59  and  C60_60 
REMARK       I    between atoms: C68_68  and  O14_82 
USER                              x       y       z     vdW  Elec       q    Type
USER                           _______ _______ _______ _____ _____    ______ ____
ROOT
ATOM      1  C1  UNL     1       6.031  10.009   0.797+99.99 +0.00    +0.210 C 
ATOM      2  C2  UNL     1       5.234   9.162   2.888+14.95 +0.00    +0.084 A 
ATOM      3  C3  UNL     1       5.271   8.150   3.869+99.99 +0.00    +0.067 A 
ATOM      4  C4  UNL     1       4.683   8.371   5.132+99.99 +0.00    +0.049 A 
ATOM      5  C5  UNL     1       4.046   9.577   5.424+32.34 +0.00    +0.035 A 
ATOM      6  C6  UNL     1       4.003  10.568   4.442 +1.37 +0.00    +0.032 A 
ATOM      7  C7  UNL     1       4.587  10.365   3.187+22.89 +0.00    +0.040 A 
ATOM      8  C8  UNL     1       3.262   9.035   7.746 -0.25 +0.00    +0.255 C 
ATOM      9  C9  UNL     1       2.562   9.734   8.936 -0.15 +0.00    +0.309 C 
ATOM     10  C10 UNL     1       3.574  10.583   9.717 +5.33 +0.00    +0.047 C 
ATOM     11  C11 UNL     1       2.946  11.593  10.690+22.07 +0.00    +0.022 C 
ATOM     12  C12 UNL     1       2.052  12.659  10.048+99.99+99.99    +0.122 C 
ATOM     13  C13 UNL     1       3.096  13.203   7.853 -0.24 +0.00    +0.143 C 
ATOM     14  C14 UNL     1       5.931   6.820   3.673 +4.01 +0.00    +0.255 C 
ATOM     15  C15 UNL     1       6.905   5.179   2.079 -0.11 +0.00    +0.177 C 
ATOM     16  C16 UNL     1       6.556   4.673   0.674 -0.15 +0.00    +0.036 C 
ATOM     17  C17 UNL     1       5.095   4.213   0.569 -0.17 +0.00    +0.022 C 
ATOM     18  C18 UNL     1       4.748   3.689  -0.824 -0.13 +0.00    +0.122 C 
ATOM     19  C19 UNL     1       5.125   1.235  -0.766 -0.12 +0.00    +0.143 C 
ATOM     20  C20 UNL     1       8.425   5.454   2.212 -0.10 +0.00    +0.245 C 
ATOM     21  C21 UNL     1      10.090   5.887   4.048 -0.25 +0.00    +0.035 A 
ATOM     22  C22 UNL     1      11.254   5.912   3.276 -0.21 +0.00    +0.049 A 
ATOM     23  C23 UNL     1      12.506   6.177   3.865 +0.11 +0.00    +0.067 A 
ATOM     24  C24 UNL     1      12.576   6.383   5.250 -0.33 +0.00    +0.084 A 
ATOM     25  C25 UNL     1      11.412   6.379   6.023 -0.31 +0.00    +0.040 A 
ATOM     26  C26 UNL     1      10.179   6.125   5.424 -0.26 +0.00    +0.032 A 
ATOM     27  C27 UNL     1      14.237   5.477   6.562 -0.14 +0.00    +0.210 C 
ATOM     28  C28 UNL     1      13.695   6.203   2.959 +7.89 +0.00    +0.255 C 
ATOM     29  C29 UNL     1      16.094   6.753   2.723+65.24 +0.00    +0.177 C 
ATOM     30  C30 UNL     1      16.807   8.109   2.637 -0.57 +0.00    +0.036 C 
ATOM     31  C31 UNL     1      16.287   9.020   1.517 -0.54 +0.00    +0.022 C 
ATOM     32  C32 UNL     1      16.836   8.664   0.132 -0.47 +0.00    +0.122 C 
ATOM     33  C33 UNL     1      16.722   6.313  -0.628+99.99 +0.00    +0.143 C 
ATOM     34  C34 UNL     1      17.001   5.737   3.453+99.99 +0.00    +0.245 C 
ATOM     35  C35 UNL     1      19.064   4.378   2.997+99.99 +0.00    +0.035 A 
ATOM     36  C36 UNL     1      19.993   4.048   2.008+99.99 +0.00    +0.049 A 
ATOM     37  C37 UNL     1      21.042   3.141   2.256+31.06 +0.00    +0.067 A 
ATOM     38  C38 UNL     1      21.164   2.548   3.526 +2.95 +0.00    +0.084 A 
ATOM     39  C39 UNL     1      20.238   2.893   4.518+44.20 +0.00    +0.040 A 
ATOM     40  C40 UNL     1      19.199   3.797   4.255+54.86 +0.00    +0.032 A 
ATOM     41  C41 UNL     1      22.218   0.946   4.958+99.99 +0.00    +0.210 C 
ATOM     42  C42 UNL     1      21.953   2.861   1.101+18.02 +0.00    +0.255 C 
ATOM     43  C43 UNL     1      24.024   1.686   0.333+99.99 +0.00    +0.177 C 
ATOM     44  C44 UNL     1      23.316   0.499  -0.344+99.99 +0.00    +0.035 C 
ATOM     45  C45 UNL     1      24.103  -0.388  -1.321+48.66 +0.00    +0.004 C 
ATOM     46  C46 UNL     1      25.190  -1.304  -0.747+99.99+99.99    +0.020 C 
ATOM     47  C47 UNL     1      26.479  -0.680  -0.216+99.99 +0.00    +0.122 C 
ATOM     48  C48 UNL     1      28.297   0.806  -0.935+99.99 +0.00    +0.143 C 
ATOM     49  C49 UNL     1      24.654   2.719  -0.644 +8.21 +0.00    +0.245 C 
ATOM     50  C50 UNL     1      25.505   5.079  -0.559 -0.46 +0.00    +0.035 A 
ATOM     51  C51 UNL     1      26.377   5.014  -1.641 -0.35 +0.00    +0.049 A 
ATOM     52  C52 UNL     1      27.186   6.114  -1.979 -0.07 +0.00    +0.067 A 
ATOM     53  C53 UNL     1      27.085   7.320  -1.270 -0.04 +0.00    +0.084 A 
ATOM     54  C54 UNL     1      26.186   7.389  -0.202 -0.34 +0.00    +0.040 A 
ATOM     55  C55 UNL     1      25.411   6.277   0.153 -0.39 +0.00    +0.032 A 
ATOM     56  C56 UNL     1      27.619   9.640  -1.118+99.99 +0.00    +0.210 C 
ATOM     57  C57 UNL     1      28.158   5.895  -3.081 +5.75 +0.00    +0.255 C 
ATOM     58  C58 UNL     1      30.550   5.765  -3.647 -0.09 +0.00    +0.187 C 
ATOM     59  C59 UNL     1      31.795   6.662  -3.610 -0.06 +0.00    +0.077 C 
ATOM     60  C60 UNL     1      32.372   6.873  -2.240 -0.03 -0.00    -0.028 A 
ATOM     61  C61 UNL     1      33.239   6.027  -1.577+99.99+99.99    +0.096 A 
ATOM     62  C62 UNL     1      32.862   7.764  -0.199+99.99+99.99    +0.042 A 
ATOM     63  C63 UNL     1      32.860   8.660   0.878+99.99+99.99    +0.030 A 
ATOM     64  C64 UNL     1      32.097   9.825   0.751 -0.19 +0.00    +0.002 A 
ATOM     65  C65 UNL     1      31.365  10.078  -0.406 -0.29 +0.00    +0.001 A 
ATOM     66  C66 UNL     1      31.374   9.168  -1.469 -0.23 +0.00    +0.014 A 
ATOM     67  C67 UNL     1      32.139   7.988  -1.370 -0.10 -0.00    -0.002 A 
ATOM     68  C68 UNL     1      30.891   4.334  -3.217 -0.03 +0.00    +0.163 C 
ATOM     69  O1  UNL     1       5.834   8.908   1.681 +2.09 -0.00    -0.355 OA
ATOM     70  O2  UNL     1       3.605   7.857   7.821 -0.20 -0.00    -0.271 OA
ATOM     71  O3  UNL     1       6.274   6.135   4.635 +0.01 -0.00    -0.268 OA
ATOM     72  O4  UNL     1       9.162   5.523   1.231 -0.11 -0.00    -0.271 OA
ATOM     73  O5  UNL     1      13.766   6.646   5.881 -0.25 -0.00    -0.355 OA
ATOM     74  O6  UNL     1      13.645   5.659   1.859+27.48 -0.00    -0.268 OA
ATOM     75  O7  UNL     1      16.810   5.434   4.631+99.99 -0.00    -0.271 OA
ATOM     76  O8  UNL     1      22.191   1.661   3.726+14.20 -0.00    -0.355 OA
ATOM     77  O9  UNL     1      21.622   3.168  -0.039+99.99 -0.00    -0.268 OA
ATOM     78  O10 UNL     1      25.164   2.362  -1.705 +1.24 -0.00    -0.271 OA
ATOM     79  O11 UNL     1      27.880   8.358  -1.676 +1.62 -0.00    -0.355 OA
ATOM     80  O12 UNL     1      27.822   5.299  -4.098+99.99 -0.00    -0.268 OA
ATOM     81  O13 UNL     1      30.512   3.751  -2.211 +0.07 -0.00    -0.648 OA
ATOM     82  O14 UNL     1      31.697   3.697  -4.095 +0.06 -0.00    -0.775 OA
ATOM     83  N1  UNL     1       3.434   9.875   6.658 -0.16 -0.00    -0.325 N 
ATOM     84  N2  UNL     1       2.802  13.501   9.132 +1.67 -0.00    -0.367 N 
ATOM     85  N3  UNL     1       2.380  12.512   7.040 -0.12 -0.00    -0.376 N 
ATOM     86  H3  UNL     1       2.659  12.186   6.114 +0.06 +0.00    +0.158 HD
ATOM     87  N4  UNL     1       4.285  13.689   7.459 +6.51 -0.00    -0.274 NA
ATOM     88  N5  UNL     1       1.937   8.736   9.829+99.99+99.99    +0.092 N 
ATOM     89  N6  UNL     1       6.173   6.409   2.384 -0.11 -0.00    -0.344 N 
ATOM     90  N7  UNL     1       5.489   2.482  -1.131 -0.00 -0.00    -0.367 N 
ATOM     91  N8  UNL     1       4.208   0.869   0.049 -0.06 -0.00    -0.376 N 
ATOM     92  H8  UNL     1       3.984  -0.097   0.286 +0.04 +0.00    +0.158 HD
ATOM     93  N9  UNL     1       5.883   0.302  -1.371 -0.07 -0.00    -0.274 NA
ATOM     94  N10 UNL     1       8.806   5.633   3.534 -0.07 -0.00    -0.325 N 
ATOM     95  N11 UNL     1      14.811   6.876   3.408 +1.46 -0.00    -0.344 N 
ATOM     96  N12 UNL     1      16.148   7.515  -0.417 -0.00 -0.00    -0.367 N 
ATOM     97  N13 UNL     1      17.871   5.948  -0.184+99.99 -0.00    -0.376 N 
ATOM     98  H13 UNL     1      18.482   6.494   0.424+99.99 +0.00    +0.158 HD
ATOM     99  N14 UNL     1      15.899   5.491  -1.307+99.99 -0.00    -0.274 NA
ATOM    100  N15 UNL     1      18.042   5.285   2.651 +5.60 -0.00    -0.325 N 
ATOM    101  N16 UNL     1      23.180   2.295   1.376+37.31 -0.00    -0.344 N 
ATOM    102  N17 UNL     1      27.086   0.238  -1.162+99.99 -0.00    -0.367 N 
ATOM    103  N18 UNL     1      29.308   0.275  -0.352+99.99 -0.00    -0.376 N 
ATOM    104  H18 UNL     1      30.193   0.742  -0.156 +0.24 +0.00    +0.158 HD
ATOM    105  N19 UNL     1      28.350   2.070  -1.388 +0.20 -0.00    -0.274 NA
ATOM    106  N20 UNL     1      24.749   3.986  -0.096 -0.29 -0.00    -0.325 N 
ATOM    107  N21 UNL     1      29.455   6.286  -2.828 -0.09 -0.00    -0.342 N 
ATOM    108  N22 UNL     1      33.515   6.564  -0.349+99.99+99.99    -0.365 N 
ATOM    109  H63 UNL     1      31.782   2.796  -3.715 +0.02 +0.00    +0.167 HD
ATOM    110  H64 UNL     1       3.036  10.819   6.735 +0.08 +0.00    +0.169 HD
ATOM    111  H65 UNL     1       3.446  14.139   9.586+24.07 +0.00    +0.162 HD
ATOM    112  H66 UNL     1       1.475  12.351   7.496+99.99+99.99    +0.158 HD
ATOM    113  H67 UNL     1       5.042  13.552   8.116 -0.16 +0.00    +0.127 HD
ATOM    114  H68 UNL     1       4.538  13.347   6.538 +1.05 +0.00    +0.127 HD
ATOM    115  H69 UNL     1       2.672   8.073  10.097 +2.01 +0.00    +0.313 HD
ATOM    116  H70 UNL     1       1.311   8.158   9.262+99.99+99.99    +0.313 HD
ATOM    117  H71 UNL     1       6.120   7.121   1.661 +0.07 +0.00    +0.163 HD
ATOM    118  H72 UNL     1       5.917   2.497  -2.051 +0.04 +0.00    +0.162 HD
ATOM    119  H73 UNL     1       3.736   1.690   0.425 +0.04 +0.00    +0.158 HD
ATOM    120  H74 UNL     1       5.668  -0.606  -0.968 +0.08 +0.00    +0.127 HD
ATOM    121  H75 UNL     1       6.873   0.493  -1.279 +0.04 +0.00    +0.127 HD
ATOM    122  H76 UNL     1       8.036   5.641   4.208 +0.09 +0.00    +0.169 HD
ATOM    123  H77 UNL     1      14.846   7.095   4.401 +0.07 +0.00    +0.163 HD
ATOM    124  H78 UNL     1      15.390   7.745  -1.047 +0.06 +0.00    +0.162 HD
ATOM    125  H79 UNL     1      18.065   5.010  -0.551+99.99 +0.00    +0.158 HD
ATOM    126  H80 UNL     1      14.936   5.575  -0.987+13.43 +0.00    +0.127 HD
ATOM    127  H81 UNL     1      16.163   4.515  -1.294+99.99 +0.00    +0.127 HD
ATOM    128  H82 UNL     1      18.048   5.626   1.680 +0.66 +0.00    +0.169 HD
ATOM    129  H83 UNL     1      23.284   1.920   2.315 +6.38 +0.00    +0.163 HD
ATOM    130  H84 UNL     1      26.427   0.943  -1.503 +2.26 +0.00    +0.162 HD
ATOM    131  H85 UNL     1      29.079  -0.689  -0.116+99.99 +0.00    +0.158 HD
ATOM    132  H86 UNL     1      29.297   2.456  -1.377 +0.03 +0.00    +0.127 HD
ATOM    133  H87 UNL     1      27.930   2.215  -2.297 -0.04 +0.00    +0.127 HD
ATOM    134  H88 UNL     1      24.175   4.130   0.727 +0.11 +0.00    +0.169 HD
ATOM    135  H89 UNL     1      29.675   6.550  -1.873 +0.06 +0.00    +0.163 HD
ATOM    136  H90 UNL     1      34.113   6.144   0.349+99.99+99.99    +0.165 HD
ENDROOT
TORSDOF 42
TER
