USER    Run = 1
USER    DPF = ligand_534_receptor.dpf
USER  
USER    Estimated Free Energy of Binding    =  -11.65 kcal/mol  [=(1)+(2)+(3)-(4)]
USER    Estimated Inhibition Constant, Ki   =    2.87 nM (nanomolar)  [Temperature = 298.15 K]
USER    
USER    (1) Final Intermolecular Energy     =  -12.85 kcal/mol
USER        vdW + Hbond + desolv Energy     =  -12.85 kcal/mol
USER        Electrostatic Energy            =   +0.00 kcal/mol
USER    (2) Final Total Internal Energy     =   -1.49 kcal/mol
USER    (3) Torsional Free Energy           =   +1.19 kcal/mol
USER    (4) Unbound System's Energy  [=(2)] =   -1.49 kcal/mol
USER    
USER    
USER    NEWDPF move ligand_534.pdbqt
USER    NEWDPF about 0.000000 0.000000 0.000000
USER    NEWDPF tran0 20.408248 7.729863 -2.713028
USER    NEWDPF quaternion0 0.066631 -0.459029 -0.881038 -0.092872
USER    NEWDPF axisangle0 0.066920 -0.461022 -0.884862 -169.342330
USER    NEWDPF quat0 0.066920 -0.461022 -0.884862 -169.342330
USER    NEWDPF dihe0 103.08 180.00 168.25 60.23 -11.63 -179.95 -23.64 -83.23 180.00 157.91 83.56 -1.74 165.03 21.31 -179.73 -123.47 63.28 46.81 -32.46 18.97 -180.00 
USER  keepresnum = 1 
USER  
REMARK  21 active torsions:
REMARK  status: ('A' for Active; 'I' for Inactive)
REMARK    1  A    between atoms: C2_2  and  C3_3 
REMARK    2  A    between atoms: C2_2  and  N10_65 
REMARK       I    between atoms: C3_3  and  N1_52 
REMARK    3  A    between atoms: C4_4  and  N1_52 
REMARK    4  A    between atoms: C12_12  and  C13_13 
REMARK    5  A    between atoms: C12_12  and  N2_53 
REMARK    6  A    between atoms: C13_13  and  C14_14 
REMARK    7  A    between atoms: C14_14  and  C15_15 
REMARK    8  A    between atoms: C15_15  and  C16_16 
REMARK    9  A    between atoms: C15_15  and  N3_54 
REMARK   10  A    between atoms: C16_16  and  O5_47 
REMARK   11  A    between atoms: C18_18  and  C19_19 
REMARK       I    between atoms: C18_18  and  N3_54 
REMARK   12  A    between atoms: C22_22  and  C25_25 
REMARK   13  A    between atoms: C25_25  and  C26_26 
REMARK   14  A    between atoms: C26_26  and  C27_27 
REMARK   15  A    between atoms: C31_31  and  N9_64 
REMARK   16  A    between atoms: C32_32  and  N8_63 
REMARK   17  A    between atoms: C33_33  and  C34_34 
REMARK       I    between atoms: C33_33  and  N10_65 
REMARK   18  A    between atoms: C34_34  and  C35_35 
REMARK   19  A    between atoms: C34_34  and  N11_66 
REMARK   20  A    between atoms: C38_38  and  O9_51 
REMARK       I    between atoms: C38_38  and  N11_66 
REMARK   21  A    between atoms: C39_39  and  O9_51 
USER                              x       y       z     vdW  Elec       q    Type
USER                           _______ _______ _______ _____ _____    ______ ____
ROOT
ATOM      1  C14 UNL     1      16.225  10.163   3.252 -0.38 +0.00    +0.037 C 
ENDROOT
BRANCH   1   2
ATOM      2  C13 UNL     1      15.762  11.317   2.346 -0.32 +0.00    +0.023 C 
BRANCH   2   3
ATOM      3  C12 UNL     1      16.902  12.256   1.938 -0.43 +0.00    +0.135 C 
BRANCH   3   4
ATOM      4  N2  UNL     1      18.161  11.549   1.774 -0.30 -0.00    -0.280 N 
ATOM      5  C10 UNL     1      18.785  10.855   2.775 -0.09 +0.00    +0.261 A 
ATOM      6  C7  UNL     1      19.949  10.214   2.168 -0.41 +0.00    +0.048 A 
ATOM      7  O2  UNL     1      18.483  10.756   3.949 +1.19 -0.00    -0.267 OA
ATOM      8  C6  UNL     1      19.985  10.574   0.835 -0.48 +0.00    +0.050 A 
ATOM      9  C8  UNL     1      20.889   9.370   2.720 -0.36 +0.00    +0.020 A 
ATOM     10  C5  UNL     1      20.965  10.116  -0.029 -0.10 +0.00    +0.047 A 
ATOM     11  C11 UNL     1      18.827  11.432   0.584 -0.36 +0.00    +0.261 A 
ATOM     12  C4  UNL     1      21.930   9.252   0.495 -0.29 +0.00    +0.035 A 
ATOM     13  C9  UNL     1      21.885   8.886   1.865 -0.11 +0.00    +0.030 A 
ATOM     14  O3  UNL     1      18.539  11.903  -0.501 +0.55 -0.00    -0.267 OA
BRANCH  12  15
ATOM     15  N1  UNL     1      22.964   8.677  -0.266 -0.24 -0.00    -0.325 N 
ATOM     16  C3  UNL     1      23.948   7.790   0.143 -0.34 +0.00    +0.244 C 
ATOM     17  O1  UNL     1      24.026   7.260   1.247 -0.27 -0.00    -0.271 OA
ATOM     18  H44 UNL     1      23.022   8.975  -1.242 +0.15 +0.00    +0.169 HD
BRANCH  16  19
ATOM     19  C2  UNL     1      24.965   7.490  -0.991 -0.19 +0.00    +0.172 C 
ATOM     20  C1  UNL     1      24.531   6.291  -1.827 -0.58 +0.00    +0.042 C 
BRANCH  19  21
ATOM     21  N10 UNL     1      26.295   7.245  -0.432 -0.14 -0.00    -0.346 N 
ATOM     22  C33 UNL     1      26.657   6.046   0.149 -0.24 +0.00    +0.241 C 
ATOM     23  O7  UNL     1      25.856   5.114   0.216 -0.34 -0.00    -0.271 OA
ATOM     24  H50 UNL     1      27.053   7.853  -0.741 +0.09 +0.00    +0.163 HD
BRANCH  22  25
ATOM     25  C34 UNL     1      28.158   5.946   0.535 -0.14 +0.00    +0.182 C 
BRANCH  25  26
ATOM     26  C35 UNL     1      29.008   7.202   0.234 -0.31 +0.00    +0.009 C 
ATOM     27  C36 UNL     1      29.692   7.811   1.462 -0.39 +0.00    +0.012 C 
ATOM     28  C37 UNL     1      30.032   6.941  -0.876 -0.19 +0.00    +0.012 C 
ENDBRANCH  25  26
BRANCH  25  29
ATOM     29  N11 UNL     1      28.757   4.758  -0.072 -0.08 -0.00    -0.323 N 
ATOM     30  C38 UNL     1      29.936   4.225   0.341 -0.09 +0.00    +0.362 C 
ATOM     31  O8  UNL     1      30.646   4.720   1.205 -0.19 -0.00    -0.238 OA
ATOM     32  H51 UNL     1      28.187   4.134  -0.626 +0.08 +0.00    +0.165 HD
BRANCH  30  33
ATOM     33  O9  UNL     1      30.133   3.055  -0.300 -0.11 -0.00    -0.294 OA
BRANCH  33  34
ATOM     34  C39 UNL     1      31.452   2.454  -0.369 -0.19 +0.00    +0.061 C 
ATOM     35  C40 UNL     1      32.349   3.191  -1.366 -0.07 +0.00    +0.046 C 
ATOM     36  C41 UNL     1      31.208   1.029  -0.888 -0.16 +0.00    +0.046 C 
ATOM     37  C42 UNL     1      32.081   2.365   1.025 -0.27 +0.00    +0.046 C 
ENDBRANCH  33  34
ENDBRANCH  30  33
ENDBRANCH  25  29
ENDBRANCH  22  25
ENDBRANCH  19  21
ENDBRANCH  16  19
ENDBRANCH  12  15
ENDBRANCH   3   4
ENDBRANCH   2   3
ENDBRANCH   1   2
BRANCH   1  38
ATOM     38  C15 UNL     1      15.744   8.782   2.775 -0.39 +0.00    +0.184 C 
BRANCH  38  39
ATOM     39  C16 UNL     1      16.946   7.906   2.385 -0.30 +0.00    +0.281 C 
ATOM     40  O4  UNL     1      17.174   6.797   2.854 -0.83 -0.00    -0.263 OA
BRANCH  39  41
ATOM     41  O5  UNL     1      17.718   8.518   1.435 -0.20 -0.00    -0.325 OA
ATOM     42  C17 UNL     1      17.161   8.472   0.121 +0.01 +0.00    +0.213 C 
ENDBRANCH  39  41
ENDBRANCH  38  39
BRANCH  38  43
ATOM     43  N3  UNL     1      14.885   8.145   3.779 -0.26 -0.00    -0.343 N 
ATOM     44  C18 UNL     1      13.707   7.516   3.455 -0.30 +0.00    +0.252 C 
ATOM     45  O6  UNL     1      13.298   7.399   2.306 -0.22 -0.00    -0.268 OA
ATOM     46  H45 UNL     1      15.246   8.102   4.724 +0.11 +0.00    +0.163 HD
BRANCH  44  47
ATOM     47  C19 UNL     1      12.916   6.963   4.586 -0.41 +0.00    +0.032 A 
ATOM     48  C20 UNL     1      12.061   7.822   5.287 -0.38 +0.00    +0.017 A 
ATOM     49  C21 UNL     1      11.333   7.351   6.383 -0.34 +0.00    +0.008 A 
ATOM     50  C22 UNL     1      11.469   6.021   6.801 -0.30 -0.00    -0.058 A 
ATOM     51  C23 UNL     1      12.330   5.166   6.100 -0.43 +0.00    +0.008 A 
ATOM     52  C24 UNL     1      13.052   5.633   5.000 +0.06 +0.00    +0.017 A 
BRANCH  50  53
ATOM     53  C25 UNL     1      10.701   5.508   7.993 -0.05 +0.00    +0.044 C 
BRANCH  53  54
ATOM     54  C26 UNL     1       9.634   4.490   7.587 -0.49 +0.00    +0.063 C 
BRANCH  54  55
ATOM     55  C27 UNL     1       9.406   4.458   6.100 -0.36 +0.00    +0.025 A 
ATOM     56  C28 UNL     1       9.159   3.267   5.443 -0.31 +0.00    +0.114 A 
ATOM     57  N4  UNL     1       8.926   3.193   4.110 -0.13 -0.00    -0.348 N 
ATOM     58  C29 UNL     1       8.928   4.333   3.408 -0.17 +0.00    +0.138 A 
ATOM     59  H4  UNL     1       8.755   2.297   3.655 -0.43 +0.00    +0.167 HD
ATOM     60  C30 UNL     1       9.156   5.542   4.074 -0.18 +0.00    +0.116 A 
ATOM     61  N7  UNL     1       8.722   4.252   2.099 -0.05 -0.00    -0.317 N 
ATOM     62  C31 UNL     1       9.137   6.656   3.243 -0.23 +0.00    +0.111 A 
ATOM     63  N5  UNL     1       9.386   5.624   5.419 -0.07 -0.00    -0.353 N 
ATOM     64  N6  UNL     1       8.932   6.591   1.921 -0.11 -0.00    -0.322 N 
ATOM     65  C32 UNL     1       8.747   5.382   1.402 -0.10 +0.00    +0.157 A 
ATOM     66  H6  UNL     1       8.918   7.430   1.340 +0.10 +0.00    +0.169 HD
ATOM     67  H5  UNL     1       9.534   6.520   5.885 +0.11 +0.00    +0.166 HD
ATOM     68  H7  UNL     1       8.550   3.355   1.645 +0.05 +0.00    +0.170 HD
BRANCH  62  69
ATOM     69  N9  UNL     1       9.339   7.948   3.797 -0.20 -0.00    -0.287 NA
ATOM     70  H48 UNL     1       8.659   8.576   3.372 +0.02 +0.00    +0.125 HD
ATOM     71  H49 UNL     1      10.240   8.288   3.461 +0.05 +0.00    +0.125 HD
ENDBRANCH  62  69
BRANCH  65  72
ATOM     72  N8  UNL     1       8.535   5.300   0.043 -0.05 -0.00    -0.274 NA
ATOM     73  H46 UNL     1       7.545   5.299  -0.164 +0.03 +0.00    +0.127 HD
ATOM     74  H47 UNL     1       9.112   5.976  -0.440 +0.07 +0.00    +0.127 HD
ENDBRANCH  65  72
ENDBRANCH  54  55
ENDBRANCH  53  54
ENDBRANCH  50  53
ENDBRANCH  44  47
ENDBRANCH  38  43
ENDBRANCH   1  38
TORSDOF 21
TER
