USER    Run = 1
USER    DPF = ligand_536_receptor.dpf
USER  
USER    Estimated Free Energy of Binding    =  +2.03e+007 kcal/mol  [=(1)+(2)+(3)-(4)]
USER    
USER    (1) Final Intermolecular Energy     =  +2.03e+007 kcal/mol
USER        vdW + Hbond + desolv Energy     =  +1.05e+007 kcal/mol
USER        Electrostatic Energy            =  +9.85e+006 kcal/mol
USER    (2) Final Total Internal Energy     =   +0.00 kcal/mol
USER    (3) Torsional Free Energy           =   +1.19 kcal/mol
USER    (4) Unbound System's Energy  [=(2)] =   +0.00 kcal/mol
USER    
USER    
USER    NEWDPF move ligand_536.pdbqt
USER    NEWDPF about 0.000000 0.000000 0.000000
USER    NEWDPF tran0 16.996390 8.002216 3.872961
USER    NEWDPF quaternion0 0.123272 0.810128 0.562863 0.108083
USER    NEWDPF axisangle0 0.123999 0.814902 0.566180 167.590342
USER    NEWDPF quat0 0.123999 0.814902 0.566180 167.590342
USER  keepresnum = 1 
USER  
REMARK  0 active torsions:
REMARK  status: ('A' for Active; 'I' for Inactive)
REMARK       I    between atoms: C4_4  and  C5_5 
REMARK       I    between atoms: C5_5  and  N3_81 
REMARK       I    between atoms: C6_6  and  N3_81 
REMARK       I    between atoms: C8_8  and  C9_9 
REMARK       I    between atoms: C9_9  and  N6_85 
REMARK       I    between atoms: C10_10  and  N6_85 
REMARK       I    between atoms: C12_12  and  C14_14 
REMARK       I    between atoms: C14_14  and  N8_87 
REMARK       I    between atoms: C15_15  and  N8_87 
REMARK       I    between atoms: C17_17  and  C19_19 
REMARK       I    between atoms: C19_19  and  N10_89 
REMARK       I    between atoms: C20_20  and  C21_21 
REMARK       I    between atoms: C20_20  and  N10_89 
REMARK       I    between atoms: C21_21  and  C22_22 
REMARK       I    between atoms: C22_22  and  C23_23 
REMARK       I    between atoms: C23_23  and  N11_90 
REMARK       I    between atoms: C23_23  and  O14_119 
REMARK       I    between atoms: C24_24  and  N11_90 
REMARK       I    between atoms: C26_26  and  C27_27 
REMARK       I    between atoms: C27_27  and  N14_95 
REMARK       I    between atoms: C28_28  and  N14_95 
REMARK       I    between atoms: C30_30  and  C32_32 
REMARK       I    between atoms: C32_32  and  N16_97 
REMARK       I    between atoms: C33_33  and  N16_97 
REMARK       I    between atoms: C35_35  and  C37_37 
REMARK       I    between atoms: C37_37  and  N18_99 
REMARK       I    between atoms: C38_38  and  N18_99 
REMARK       I    between atoms: C40_40  and  C42_42 
REMARK       I    between atoms: C42_42  and  N20_101 
REMARK       I    between atoms: C43_43  and  C44_44 
REMARK       I    between atoms: C43_43  and  N20_101 
REMARK       I    between atoms: C44_44  and  C45_45 
REMARK       I    between atoms: C45_45  and  N21_102 
REMARK       I    between atoms: C47_47  and  C48_48 
REMARK       I    between atoms: C47_47  and  N21_102 
REMARK       I    between atoms: C48_48  and  C49_49 
REMARK       I    between atoms: C49_49  and  N22_103 
REMARK       I    between atoms: C50_50  and  N22_103 
REMARK       I    between atoms: C50_50  and  N23_105 
REMARK       I    between atoms: C50_50  and  S1_120 
REMARK       I    between atoms: C51_51  and  N23_105 
REMARK       I    between atoms: C53_53  and  C70_70 
REMARK       I    between atoms: C54_54  and  C57_57 
REMARK       I    between atoms: C68_68  and  O11_116 
REMARK       I    between atoms: C70_70  and  O13_118 
USER                              x       y       z     vdW  Elec       q    Type
USER                           _______ _______ _______ _____ _____    ______ ____
ROOT
ATOM      1  C1  UNL     1      -1.381   4.369  16.239+99.99+99.99    +0.157 C 
ATOM      2  C2  UNL     1      -3.519   4.971  17.389+99.99+99.99    +0.109 A 
ATOM      3  C3  UNL     1      -4.446   5.964  17.186+99.99+99.99    +0.107 A 
ATOM      4  C4  UNL     1      -2.939   6.263  15.680+99.99+99.99    +0.176 A 
ATOM      5  C5  UNL     1      -2.220   6.837  14.547+99.99+99.99    +0.291 C 
ATOM      6  C6  UNL     1      -2.486   8.691  12.984+99.99+99.99    +0.125 A 
ATOM      7  C7  UNL     1      -3.166   9.779  12.490+99.99+99.99    +0.140 A 
ATOM      8  C8  UNL     1      -1.306   9.411  11.340+99.99+99.99    +0.178 A 
ATOM      9  C9  UNL     1      -0.220   9.505  10.374+99.99+99.99    +0.290 C 
ATOM     10  C10 UNL     1       1.869   8.319   9.845+99.99+99.99    +0.053 A 
ATOM     11  C11 UNL     1       2.753   7.301  10.101+99.99 +0.00    +0.120 A 
ATOM     12  C12 UNL     1       3.583   8.462   8.345 +0.70 +0.00    +0.105 A 
ATOM     13  C13 UNL     1       2.389   9.049   8.753 -0.13 +0.00    +0.066 A 
ATOM     14  C14 UNL     1       4.494   8.847   7.271 +0.84 +0.00    +0.273 C 
ATOM     15  C15 UNL     1       4.553  10.169   5.200+63.82 +0.00    +0.053 A 
ATOM     16  C16 UNL     1       3.918  10.960   4.272 +0.40 +0.00    +0.120 A 
ATOM     17  C17 UNL     1       6.056  10.723   3.571+99.99 +0.00    +0.104 A 
ATOM     18  C18 UNL     1       5.886  10.015   4.757+99.99 +0.00    +0.066 A 
ATOM     19  C19 UNL     1       7.241  10.872   2.738+99.99 +0.00    +0.268 C 
ATOM     20  C20 UNL     1       9.673  10.434   2.619+99.99 +0.00    +0.123 C 
ATOM     21  C21 UNL     1      10.862  10.344   3.572+16.54 +0.00    +0.027 C 
ATOM     22  C22 UNL     1      11.293  11.685   4.165+99.99 +0.00    +0.085 C 
ATOM     23  C23 UNL     1      10.186  12.505   4.776+99.99 +0.00    +0.116 C 
ATOM     24  C24 UNL     1       9.692  11.240   6.615+99.99 +0.00    +0.124 A 
ATOM     25  C25 UNL     1       8.680  10.650   7.326+99.99 +0.00    +0.140 A 
ATOM     26  C26 UNL     1      10.607   9.623   7.689 +4.86 +0.00    +0.178 A 
ATOM     27  C27 UNL     1      11.623   8.694   8.170+19.21 +0.00    +0.290 C 
ATOM     28  C28 UNL     1      14.060   8.375   7.937 +7.33 +0.00    +0.053 A 
ATOM     29  C29 UNL     1      14.265   7.252   8.695 -0.10 +0.00    +0.120 A 
ATOM     30  C30 UNL     1      16.289   7.863   7.886+99.99 +0.00    +0.105 A 
ATOM     31  C31 UNL     1      15.326   8.762   7.433+99.99 +0.00    +0.066 A 
ATOM     32  C32 UNL     1      17.733   7.829   7.653+99.99 +0.00    +0.273 C 
ATOM     33  C33 UNL     1      19.457   8.814   6.188+99.99 +0.00    +0.053 A 
ATOM     34  C34 UNL     1      20.602   8.246   6.691+58.37 +0.00    +0.120 A 
ATOM     35  C35 UNL     1      21.236   9.583   4.992+62.93 +0.00    +0.105 A 
ATOM     36  C36 UNL     1      19.854   9.635   5.106+99.99 +0.00    +0.066 A 
ATOM     37  C37 UNL     1      22.050  10.298   4.025 +1.19 +0.00    +0.273 C 
ATOM     38  C38 UNL     1      24.132  11.587   3.892 +2.33 +0.00    +0.053 A 
ATOM     39  C39 UNL     1      25.188  12.213   4.508+99.99 +0.00    +0.120 A 
ATOM     40  C40 UNL     1      25.419  12.576   2.285+16.29 +0.00    +0.104 A 
ATOM     41  C41 UNL     1      24.279  11.808   2.505+99.99 +0.00    +0.066 A 
ATOM     42  C42 UNL     1      25.992  13.064   1.039 +5.38 +0.00    +0.268 C 
ATOM     43  C43 UNL     1      25.655  13.247  -1.406+99.99 +0.00    +0.125 C 
ATOM     44  C44 UNL     1      26.654  12.267  -2.024+99.99 +0.00    +0.050 C 
ATOM     45  C45 UNL     1      26.018  10.898  -2.303+99.99 +0.00    +0.273 C 
ATOM     46  C46 UNL     1      27.314  10.269  -4.268+99.99 +0.00    +0.309 C 
ATOM     47  C47 UNL     1      28.019   9.515  -2.062+99.99 +0.00    +0.273 C 
ATOM     48  C48 UNL     1      28.720   8.211  -2.465 +0.85 +0.00    +0.050 C 
ATOM     49  C49 UNL     1      27.771   7.013  -2.497 +3.32 +0.00    +0.123 C 
ATOM     50  C50 UNL     1      28.078   4.631  -2.745 +0.10 +0.00    +0.137 C 
ATOM     51  C51 UNL     1      30.116   3.258  -3.302 -0.07 +0.00    +0.035 A 
ATOM     52  C52 UNL     1      30.576   1.935  -3.407 -0.07 +0.00    +0.048 A 
ATOM     53  C53 UNL     1      31.915   1.641  -3.725 -0.04 +0.00    +0.051 A 
ATOM     54  C54 UNL     1      32.825   2.679  -3.976+99.99+99.99    -0.007 A 
ATOM     55  C55 UNL     1      32.370   4.001  -3.865 -0.00 +0.00    +0.015 A 
ATOM     56  C56 UNL     1      31.040   4.280  -3.528 -0.04 +0.00    +0.030 A 
ATOM     57  C57 UNL     1      34.240   2.466  -4.390+99.99+99.99    +0.001 A 
ATOM     58  C58 UNL     1      34.547   2.235  -5.696+99.99+99.99    +0.010 A 
ATOM     59  C59 UNL     1      33.519   2.191  -6.747+99.99+99.99    +0.019 A 
ATOM     60  C60 UNL     1      33.828   1.936  -8.026+99.99+99.99    +0.056 A 
ATOM     61  C61 UNL     1      35.229   1.697  -8.433+99.99+99.99    +0.174 A 
ATOM     62  C62 UNL     1      36.266   1.771  -7.386+99.99+99.99    +0.092 A 
ATOM     63  C63 UNL     1      35.946   2.025  -6.109+99.99+99.99    +0.091 A 
ATOM     64  C64 UNL     1      36.672   2.329  -3.865+99.99+99.99    +0.089 A 
ATOM     65  C65 UNL     1      35.364   2.518  -3.418+99.99+99.99    +0.010 A 
ATOM     66  C66 UNL     1      35.162   2.750  -2.047+99.99+99.99    +0.018 A 
ATOM     67  C67 UNL     1      36.239   2.796  -1.155+99.99+99.99    +0.037 A 
ATOM     68  C68 UNL     1      37.529   2.607  -1.634+99.99+99.99    +0.068 A 
ATOM     69  C69 UNL     1      37.754   2.374  -2.983+99.99+99.99    +0.074 A 
ATOM     70  C70 UNL     1      32.261   0.209  -3.819 -0.07 +0.00    +0.177 C 
ATOM     71  C71 UNL     1      27.161  13.568   3.818+99.99 +0.00    +0.156 C 
ATOM     72  C72 UNL     1      23.009   8.152   6.083+76.84 +0.00    +0.156 C 
ATOM     73  C73 UNL     1      16.183   5.821   9.370+99.99 +0.00    +0.156 C 
ATOM     74  C74 UNL     1       8.593   8.710   8.895+99.99 +0.00    +0.157 C 
ATOM     75  C75 UNL     1       4.509  12.106   2.140+99.99 +0.00    +0.156 C 
ATOM     76  C76 UNL     1       4.897   6.464   9.154+99.99 +0.00    +0.156 C 
ATOM     77  C77 UNL     1      -2.709  11.363  10.606+99.99+99.99    +0.157 C 
ATOM     78  N1  UNL     1      -2.566   5.171  16.427+99.99+99.99    -0.342 N 
ATOM     79  N2  UNL     1      -4.086   6.760  16.130+99.99+99.99    -0.346 N 
ATOM     80  H2  UNL     1      -4.592   7.567  15.765+99.99+99.99    +0.167 HD
ATOM     81  N3  UNL     1      -2.892   7.930  14.043+99.99+99.99    -0.305 N 
ATOM     82  N4  UNL     1      -2.405  10.229  11.445+99.99+99.99    -0.339 N 
ATOM     83  N5  UNL     1      -1.346   8.472  12.274+99.99+99.99    -0.323 N 
ATOM     84  H5  UNL     1      -0.660   7.733  12.429+99.99+99.99    +0.169 HD
ATOM     85  N6  UNL     1       0.720   8.513  10.578+99.99+99.99    -0.319 N 
ATOM     86  N7  UNL     1       3.785   7.391   9.201+99.99 -0.00    -0.354 N 
ATOM     87  N8  UNL     1       3.917   9.667   6.318 +0.77 -0.00    -0.320 N 
ATOM     88  N9  UNL     1       4.822  11.281   3.290+99.99 -0.00    -0.354 N 
ATOM     89  N10 UNL     1       8.416  10.473   3.331+99.99 -0.00    -0.356 N 
ATOM     90  N11 UNL     1       9.457  12.357   5.827+99.99 -0.00    -0.326 N 
ATOM     91  H11 UNL     1       8.735  13.035   6.071 +2.47 +0.00    +0.169 HD
ATOM     92  N12 UNL     1       9.268   9.620   8.002+15.45 -0.00    -0.339 N 
ATOM     93  N13 UNL     1      10.884  10.620   6.854+99.99 -0.00    -0.323 N 
ATOM     94  H13 UNL     1      11.796  10.869   6.471+99.99 +0.00    +0.169 HD
ATOM     95  N14 UNL     1      12.875   9.034   7.691 -0.32 -0.00    -0.319 N 
ATOM     96  N15 UNL     1      15.603   6.952   8.673 +9.29 -0.00    -0.354 N 
ATOM     97  N16 UNL     1      18.153   8.645   6.616+99.99 -0.00    -0.320 N 
ATOM     98  N17 UNL     1      21.666   8.674   5.938+93.70 -0.00    -0.354 N 
ATOM     99  N18 UNL     1      23.166  10.888   4.588 -0.26 -0.00    -0.320 N 
ATOM    100  N19 UNL     1      25.959  12.806   3.539+89.03 -0.00    -0.354 N 
ATOM    101  N20 UNL     1      25.220  12.852  -0.083+23.23 -0.00    -0.356 N 
ATOM    102  N21 UNL     1      26.885   9.880  -2.925+99.99 +0.00    +0.084 N 
ATOM    103  N22 UNL     1      28.562   5.819  -2.766 +0.03 -0.00    -0.371 N 
ATOM    104  H22 UNL     1      29.552   5.934  -2.983 +0.04 +0.00    +0.161 HD
ATOM    105  N23 UNL     1      28.770   3.469  -2.963 -0.05 -0.00    -0.337 N 
ATOM    106  O1  UNL     1      -1.161   6.377  14.131+99.99+99.99    -0.264 OA
ATOM    107  O2  UNL     1      -0.173  10.363   9.498+99.99+99.99    -0.264 OA
ATOM    108  O3  UNL     1       5.658   8.453   7.235 +4.09 -0.00    -0.266 OA
ATOM    109  O4  UNL     1       7.213  11.323   1.596+99.99 -0.00    -0.266 OA
ATOM    110  O5  UNL     1      11.367   7.742   8.901+99.99 -0.00    -0.264 OA
ATOM    111  O6  UNL     1      18.480   7.121   8.322+99.99 -0.00    -0.266 OA
ATOM    112  O7  UNL     1      21.722  10.388   2.847 -0.25 -0.00    -0.266 OA
ATOM    113  O8  UNL     1      27.082  13.626   0.971 +5.20 -0.00    -0.266 OA
ATOM    114  O9  UNL     1      35.517   1.454  -9.597+99.99+99.99    -0.288 OA
ATOM    115  O10 UNL     1      36.972   2.088  -5.178+99.99+99.99    -0.309 OA
ATOM    116  O11 UNL     1      38.609   2.644  -0.803+99.99+99.99    -0.361 OA
ATOM    117  O12 UNL     1      31.550  -0.654  -4.301 +0.00 -0.00    -0.646 OA
ATOM    118  O13 UNL     1      33.425  -0.083  -3.218+99.99+99.99    -0.773 OA
ATOM    119  O14 UNL     1       9.922  13.604   4.039+99.99 -0.00    -0.349 OA
ATOM    120  S1  UNL     1      26.383   4.258  -2.414 -0.14 -0.00    -0.107 SA
ATOM    121  H69 UNL     1      -3.759   8.171  14.512+99.99+99.99    +0.170 HD
ATOM    122  H70 UNL     1       0.520   7.874  11.348+99.99+99.99    +0.169 HD
ATOM    123  H71 UNL     1       2.938   9.898   6.410 +0.07 +0.00    +0.169 HD
ATOM    124  H72 UNL     1       8.375  10.070   4.256 +0.15 +0.00    +0.162 HD
ATOM    125  H73 UNL     1      12.901   9.863   7.104 +0.16 +0.00    +0.169 HD
ATOM    126  H74 UNL     1      17.455   9.139   6.083 +3.54 +0.00    +0.169 HD
ATOM    127  H75 UNL     1      23.248  10.887   5.594 -0.46 +0.00    +0.169 HD
ATOM    128  H76 UNL     1      24.320  12.405   0.013 +0.35 +0.00    +0.162 HD
ATOM    129  H77 UNL     1      28.202   2.636  -2.894 +0.07 +0.00    +0.168 HD
ATOM    130  H78 UNL     1      38.302   2.814   0.102+99.99+99.99    +0.217 HD
ATOM    131  H79 UNL     1      33.531  -1.050  -3.331+99.99+99.99    +0.167 HD
ATOM    132  H80 UNL     1       9.183  14.064   4.471+99.99 +0.00    +0.219 HD
ATOM    133  H81 UNL     1      25.870   5.458  -2.706 +0.08 +0.00    +0.110 HD
ENDROOT
TORSDOF 37
TER
