USER    Run = 1
USER    DPF = ligand_317_receptor.dpf
USER  
USER    Estimated Free Energy of Binding    =  +8.69e+003 kcal/mol  [=(1)+(2)+(3)-(4)]
USER    
USER    (1) Final Intermolecular Energy     =  +8.68e+003 kcal/mol
USER        vdW + Hbond + desolv Energy     =  +8.68e+003 kcal/mol
USER        Electrostatic Energy            =   +0.00 kcal/mol
USER    (2) Final Total Internal Energy     =   -3.31 kcal/mol
USER    (3) Torsional Free Energy           =   +1.19 kcal/mol
USER    (4) Unbound System's Energy  [=(2)] =   -3.31 kcal/mol
USER    
USER    
USER    NEWDPF move ligand_317.pdbqt
USER    NEWDPF about 0.000000 0.000000 0.000000
USER    NEWDPF tran0 15.181754 2.181228 10.339734
USER    NEWDPF quaternion0 -0.715531 0.330696 -0.236379 -0.568138
USER    NEWDPF axisangle0 -0.869488 0.401850 -0.287239 -110.759069
USER    NEWDPF quat0 -0.869488 0.401850 -0.287239 -110.759069
USER    NEWDPF dihe0 112.50 172.09 12.18 -174.73 176.17 50.92 108.72 93.05 -48.56 -59.37 15.79 -120.02 93.63 170.30 14.98 -32.52 -121.07 -123.62 
USER  keepresnum = 1 
USER  
REMARK  18 active torsions:
REMARK  status: ('A' for Active; 'I' for Inactive)
REMARK    1  A    between atoms: C3_3  and  C35_35 
REMARK    2  A    between atoms: C5_5  and  N2_47 
REMARK    3  A    between atoms: C6_6  and  C7_7 
REMARK       I    between atoms: C6_6  and  N2_47 
REMARK    4  A    between atoms: C9_9  and  N4_49 
REMARK       I    between atoms: C11_11  and  N4_49 
REMARK       I    between atoms: C11_11  and  N5_50 
REMARK    5  A    between atoms: C12_12  and  N5_50 
REMARK    6  A    between atoms: C14_14  and  C17_17 
REMARK       I    between atoms: C17_17  and  N7_52 
REMARK    7  A    between atoms: C18_18  and  N7_52 
REMARK    8  A    between atoms: C20_20  and  C23_23 
REMARK       I    between atoms: C23_23  and  N9_54 
REMARK    9  A    between atoms: C24_24  and  N9_54 
REMARK   10  A    between atoms: C29_29  and  S2_74 
REMARK   11  A    between atoms: C31_31  and  S1_73 
REMARK       I    between atoms: C35_35  and  N10_55 
REMARK   12  A    between atoms: C36_36  and  N10_55 
REMARK   13  A    between atoms: C41_41  and  S4_76 
REMARK   14  A    between atoms: C43_43  and  S3_75 
REMARK   15  A    between atoms: O7_62  and  S1_73 
REMARK   16  A    between atoms: O10_65  and  S2_74 
REMARK   17  A    between atoms: O14_69  and  S3_75 
REMARK   18  A    between atoms: O17_72  and  S4_76 
USER                              x       y       z     vdW  Elec       q    Type
USER                           _______ _______ _______ _____ _____    ______ ____
ROOT
ATOM      1  C11 UNL     1      16.138   3.259   8.022+99.99 +0.00    +0.327 C 
ATOM      2  N4  UNL     1      15.169   3.267   9.021+99.99 -0.00    -0.294 N 
ATOM      3  N5  UNL     1      17.006   2.189   8.208+99.99 -0.00    -0.294 N 
ATOM      4  O2  UNL     1      16.214   4.085   7.124+99.99 -0.00    -0.247 OA
ATOM      5  H32 UNL     1      15.456   2.888   9.911+25.55 +0.00    +0.172 HD
ATOM      6  H33 UNL     1      17.002   1.769   9.125+99.99 +0.00    +0.172 HD
ENDROOT
BRANCH   2   7
ATOM      7  C9  UNL     1      14.088   4.137   9.063+15.72 +0.00    +0.111 A 
ATOM      8  C10 UNL     1      12.863   3.915   8.456 -0.41 +0.00    +0.067 A 
ATOM      9  C7  UNL     1      12.000   5.015   8.736 -0.44 +0.00    +0.051 A 
ATOM     10  C8  UNL     1      12.768   5.906   9.464 +0.26 +0.00    +0.109 A 
ATOM     11  N3  UNL     1      14.032   5.389   9.634+52.16 -0.00    -0.346 N 
ATOM     12  C34 UNL     1      15.111   6.179  10.190+66.94 +0.00    +0.157 C 
BRANCH   9  13
ATOM     13  C6  UNL     1      10.605   5.258   8.351 +0.13 +0.00    +0.258 C 
ATOM     14  N2  UNL     1       9.842   4.099   8.289 -0.23 -0.00    -0.309 N 
ATOM     15  H31 UNL     1      10.263   3.241   8.608 +0.16 +0.00    +0.170 HD
ATOM     16  O1  UNL     1      10.199   6.399   8.140+19.65 -0.00    -0.267 OA
BRANCH  14  17
ATOM     17  C5  UNL     1       8.510   4.083   7.909 -0.47 +0.00    +0.110 A 
ATOM     18  C4  UNL     1       7.928   3.767   6.699 -0.32 +0.00    +0.067 A 
ATOM     19  C3  UNL     1       6.512   3.932   6.799 -0.31 +0.00    +0.051 A 
ATOM     20  C2  UNL     1       6.281   4.308   8.112 +9.66 +0.00    +0.109 A 
ATOM     21  N1  UNL     1       7.482   4.398   8.769 +5.58 -0.00    -0.346 N 
ATOM     22  C1  UNL     1       7.613   4.783  10.158+99.99 +0.00    +0.157 C 
BRANCH  19  23
ATOM     23  C35 UNL     1       5.469   3.745   5.777 -0.22 +0.00    +0.257 C 
ATOM     24  N10 UNL     1       5.982   3.277   4.583 -0.09 -0.00    -0.322 N 
ATOM     25  H36 UNL     1       6.983   3.224   4.565 -0.11 +0.00    +0.169 HD
ATOM     26  O11 UNL     1       4.296   4.003   6.016 -0.26 -0.00    -0.267 OA
BRANCH  24  27
ATOM     27  C36 UNL     1       5.319   2.927   3.380 -0.17 +0.00    +0.046 A 
ATOM     28  C37 UNL     1       4.164   2.147   3.397 -0.19 +0.00    +0.030 A 
ATOM     29  C38 UNL     1       3.510   1.836   2.213 -0.14 +0.00    +0.003 A 
ATOM     30  C39 UNL     1       4.003   2.303   0.998 -0.11 +0.00    +0.014 A 
ATOM     31  C40 UNL     1       5.174   3.094   0.911 -0.10 -0.00    -0.000 A 
ATOM     32  C41 UNL     1       5.714   3.590  -0.317 -0.09 +0.00    +0.085 A 
ATOM     33  C45 UNL     1       5.853   3.396   2.129 -0.12 +0.00    +0.004 A 
ATOM     34  C42 UNL     1       6.897   4.339  -0.362 -0.10 +0.00    +0.051 A 
ATOM     35  C43 UNL     1       7.566   4.601   0.822 -0.09 +0.00    +0.074 A 
ATOM     36  C44 UNL     1       7.055   4.147   2.039 -0.11 +0.00    +0.040 A 
BRANCH  32  37
ATOM     37  S4  UNL     1       4.896   3.300  -1.877 -0.14 +0.00    +0.130 S 
ATOM     38  O15 UNL     1       3.959   2.210  -1.706 +0.03 -0.00    -0.598 OA
ATOM     39  O16 UNL     1       4.478   4.578  -2.407 +1.29 -0.00    -0.598 OA
BRANCH  37  40
ATOM     40  O17 UNL     1       6.041   2.697  -2.838 -0.07 -0.00    -0.292 OA
ATOM     41  H40 UNL     1       6.080   3.262  -3.640 +0.05 +0.00    +0.232 HD
ENDBRANCH  37  40
ENDBRANCH  32  37
BRANCH  35  42
ATOM     42  S3  UNL     1       9.058   5.563   0.810 -0.23 +0.00    +0.129 S 
ATOM     43  O12 UNL     1       8.683   6.957   0.876 -0.01 -0.00    -0.598 OA
ATOM     44  O13 UNL     1       9.899   5.033  -0.240 +0.03 -0.00    -0.598 OA
BRANCH  42  45
ATOM     45  O14 UNL     1       9.793   5.194   2.200 -0.11 -0.00    -0.292 OA
ATOM     46  H39 UNL     1       9.208   5.460   2.944 +0.11 +0.00    +0.232 HD
ENDBRANCH  42  45
ENDBRANCH  35  42
ENDBRANCH  24  27
ENDBRANCH  19  23
ENDBRANCH  14  17
ENDBRANCH   9  13
ENDBRANCH   2   7
BRANCH   3  47
ATOM     47  C12 UNL     1      18.078   1.846   7.399+99.99 +0.00    +0.111 A 
ATOM     48  C13 UNL     1      18.873   2.764   6.729+99.99 +0.00    +0.067 A 
ATOM     49  C14 UNL     1      19.845   2.065   5.955+99.99 +0.00    +0.051 A 
ATOM     50  C15 UNL     1      19.620   0.726   6.214+99.99 +0.00    +0.109 A 
ATOM     51  N6  UNL     1      18.597   0.599   7.128 +6.92 -0.00    -0.346 N 
ATOM     52  C16 UNL     1      18.298  -0.670   7.754+99.99 +0.00    +0.157 C 
BRANCH  49  53
ATOM     53  C17 UNL     1      20.884   2.563   5.045+98.79 +0.00    +0.258 C 
ATOM     54  N7  UNL     1      20.656   3.855   4.607 +0.56 -0.00    -0.309 N 
ATOM     55  H34 UNL     1      19.993   4.393   5.147 +0.60 +0.00    +0.170 HD
ATOM     56  O3  UNL     1      21.861   1.874   4.772+99.99 -0.00    -0.267 OA
BRANCH  54  57
ATOM     57  C18 UNL     1      21.444   4.579   3.728+26.09 +0.00    +0.110 A 
ATOM     58  C19 UNL     1      22.456   4.032   2.954 +9.46 +0.00    +0.067 A 
ATOM     59  C20 UNL     1      23.024   5.052   2.135+15.40 +0.00    +0.051 A 
ATOM     60  C21 UNL     1      22.363   6.212   2.495+51.90 +0.00    +0.109 A 
ATOM     61  N8  UNL     1      21.440   5.934   3.477+29.76 -0.00    -0.346 N 
ATOM     62  C22 UNL     1      20.747   6.990   4.184+99.99 +0.00    +0.157 C 
BRANCH  59  63
ATOM     63  C23 UNL     1      24.092   4.997   1.126 -0.36 +0.00    +0.257 C 
ATOM     64  N9  UNL     1      25.279   5.570   1.547 -0.19 -0.00    -0.322 N 
ATOM     65  H35 UNL     1      25.277   5.868   2.505 +0.13 +0.00    +0.169 HD
ATOM     66  O4  UNL     1      23.893   4.466   0.039 -0.41 -0.00    -0.267 OA
BRANCH  64  67
ATOM     67  C24 UNL     1      26.497   5.731   0.829 -0.17 +0.00    +0.046 A 
ATOM     68  C25 UNL     1      27.139   4.631   0.255 -0.25 +0.00    +0.030 A 
ATOM     69  C26 UNL     1      28.319   4.787  -0.458 -0.24 +0.00    +0.003 A 
ATOM     70  C27 UNL     1      28.879   6.049  -0.610 -0.20 +0.00    +0.014 A 
ATOM     71  C28 UNL     1      28.283   7.205  -0.055 -0.31 -0.00    -0.000 A 
ATOM     72  C29 UNL     1      28.835   8.513  -0.199 -0.01 +0.00    +0.085 A 
ATOM     73  C33 UNL     1      27.066   7.043   0.677 -0.36 +0.00    +0.004 A 
ATOM     74  C30 UNL     1      28.216   9.644   0.341 +6.52 +0.00    +0.051 A 
ATOM     75  C31 UNL     1      27.038   9.481   1.053 +1.48 +0.00    +0.074 A 
ATOM     76  C32 UNL     1      26.475   8.214   1.221 -0.41 +0.00    +0.040 A 
BRANCH  72  77
ATOM     77  S2  UNL     1      30.360   8.767  -1.084 -0.25 +0.00    +0.130 S 
ATOM     78  O8  UNL     1      30.284   8.040  -2.332 -0.04 -0.00    -0.598 OA
ATOM     79  O9  UNL     1      30.669  10.178  -1.031 -0.53 -0.00    -0.598 OA
BRANCH  77  80
ATOM     80  O10 UNL     1      31.500   8.003  -0.234 -0.07 -0.00    -0.292 OA
ATOM     81  H38 UNL     1      32.234   7.797  -0.851 +0.06 +0.00    +0.232 HD
ENDBRANCH  77  80
ENDBRANCH  72  77
BRANCH  75  82
ATOM     82  S1  UNL     1      26.221  10.903   1.725+21.37 +0.00    +0.129 S 
ATOM     83  O5  UNL     1      26.625  12.049   0.945+19.03 -0.00    -0.598 OA
ATOM     84  O6  UNL     1      26.363  10.868   3.164 +8.76 -0.00    -0.598 OA
BRANCH  82  85
ATOM     85  O7  UNL     1      24.659  10.666   1.401 +0.25 -0.00    -0.292 OA
ATOM     86  H37 UNL     1      24.473   9.707   1.486 +0.19 +0.00    +0.232 HD
ENDBRANCH  82  85
ENDBRANCH  75  82
ENDBRANCH  64  67
ENDBRANCH  59  63
ENDBRANCH  54  57
ENDBRANCH  49  53
ENDBRANCH   3  47
TORSDOF 18
TER
