USER    Run = 1
USER    DPF = ligand_67_receptor.dpf
USER  
USER    Estimated Free Energy of Binding    =  +9.42e+003 kcal/mol  [=(1)+(2)+(3)-(4)]
USER    
USER    (1) Final Intermolecular Energy     =  +9.42e+003 kcal/mol
USER        vdW + Hbond + desolv Energy     =  +9.42e+003 kcal/mol
USER        Electrostatic Energy            =   +0.00 kcal/mol
USER    (2) Final Total Internal Energy     =   -3.66 kcal/mol
USER    (3) Torsional Free Energy           =   +1.19 kcal/mol
USER    (4) Unbound System's Energy  [=(2)] =   -3.66 kcal/mol
USER    
USER    
USER    NEWDPF move ligand_67.pdbqt
USER    NEWDPF about 0.000000 0.000000 0.000000
USER    NEWDPF tran0 22.446751 -0.524366 3.582128
USER    NEWDPF quaternion0 0.907368 0.150240 0.124018 0.372465
USER    NEWDPF axisangle0 0.977719 0.161889 0.133633 136.264579
USER    NEWDPF quat0 0.977719 0.161889 0.133633 136.264579
USER    NEWDPF dihe0 180.00 145.71 -32.43 80.58 -77.01 173.76 50.13 177.50 88.49 126.29 -174.63 -78.43 105.35 90.86 -79.48 75.63 -75.55 -123.63 
USER  keepresnum = 1 
USER  
REMARK  18 active torsions:
REMARK  status: ('A' for Active; 'I' for Inactive)
REMARK    1  A    between atoms: C3_3  and  N8_54 
REMARK    2  A    between atoms: C5_5  and  C6_6 
REMARK       I    between atoms: C6_6  and  N2_48 
REMARK    3  A    between atoms: C7_7  and  N2_48 
REMARK    4  A    between atoms: C9_9  and  C11_11 
REMARK       I    between atoms: C11_11  and  N4_50 
REMARK    5  A    between atoms: C12_12  and  N4_50 
REMARK    6  A    between atoms: C14_14  and  N6_52 
REMARK    7  A    between atoms: C16_16  and  C17_17 
REMARK       I    between atoms: C16_16  and  N6_52 
REMARK    8  A    between atoms: C17_17  and  C18_18 
REMARK    9  A    between atoms: C22_22  and  C23_23 
REMARK       I    between atoms: C22_22  and  N8_54 
REMARK   10  A    between atoms: C25_25  and  C28_28 
REMARK       I    between atoms: C28_28  and  N10_57 
REMARK   11  A    between atoms: C29_29  and  N10_57 
REMARK   12  A    between atoms: C31_31  and  C32_32 
REMARK       I    between atoms: C32_32  and  N13_61 
REMARK   13  A    between atoms: C33_33  and  N13_61 
REMARK   14  A    between atoms: C35_35  and  C36_36 
REMARK       I    between atoms: C36_36  and  N16_65 
REMARK   15  A    between atoms: C37_37  and  N16_65 
REMARK   16  A    between atoms: C39_39  and  C40_40 
REMARK       I    between atoms: C40_40  and  N19_69 
REMARK   17  A    between atoms: C41_41  and  C42_42 
REMARK   18  A    between atoms: C41_41  and  N19_69 
USER                              x       y       z     vdW  Elec       q    Type
USER                           _______ _______ _______ _____ _____    ______ ____
ROOT
ATOM      1  C18 UNL     1       3.451   1.756  -2.142 -0.05 +0.00    +0.133 C 
ATOM      2  C19 UNL     1       3.115   0.950  -3.325 -0.05 +0.00    +0.059 C 
ATOM      3  N7  UNL     1       2.864   0.344  -4.282 -0.01 -0.00    -0.197 NA
ENDROOT
BRANCH   1   4
ATOM      4  C17 UNL     1       4.937   1.667  -1.814 -0.09 +0.00    +0.117 C 
BRANCH   4   5
ATOM      5  C16 UNL     1       5.398   2.801  -0.911 -0.06 +0.00    +0.224 C 
ATOM      6  N6  UNL     1       5.402   2.417   0.417 -0.03 -0.00    -0.313 N 
ATOM      7  H41 UNL     1       4.899   1.568   0.653 +0.05 +0.00    +0.170 HD
ATOM      8  O3  UNL     1       5.724   3.888  -1.371 -0.10 -0.00    -0.273 OA
BRANCH   6   9
ATOM      9  C14 UNL     1       5.770   3.189   1.508 -0.07 +0.00    +0.111 A 
ATOM     10  C15 UNL     1       6.757   2.822   2.409 -0.17 +0.00    +0.079 A 
ATOM     11  C12 UNL     1       6.838   3.805   3.419 -0.18 +0.00    +0.054 A 
ATOM     12  C13 UNL     1       5.923   4.776   3.096 -0.11 +0.00    +0.121 A 
ATOM     13  N5  UNL     1       5.310   4.426   1.908 -0.03 -0.00    -0.345 N 
ATOM     14  C20 UNL     1       4.448   5.350   1.202 -0.06 +0.00    +0.157 C 
BRANCH  11  15
ATOM     15  N4  UNL     1       7.634   3.867   4.546 -0.13 -0.00    -0.320 N 
ATOM     16  C11 UNL     1       7.443   3.131   5.699 +8.43 +0.00    +0.273 C 
ATOM     17  O2  UNL     1       6.599   2.254   5.846+99.99 -0.00    -0.266 OA
ATOM     18  H40 UNL     1       8.461   4.442   4.480 +0.10 +0.00    +0.169 HD
BRANCH  16  19
ATOM     19  C9  UNL     1       8.399   3.457   6.741 -0.24 +0.00    +0.105 A 
ATOM     20  C10 UNL     1       9.763   3.656   6.579 -0.43 +0.00    +0.066 A 
ATOM     21  C7  UNL     1      10.327   3.978   7.838 -0.42 +0.00    +0.053 A 
ATOM     22  C8  UNL     1       9.302   3.929   8.751 +0.11 +0.00    +0.120 A 
ATOM     23  N3  UNL     1       8.151   3.570   8.095 -0.29 -0.00    -0.354 N 
ATOM     24  C21 UNL     1       6.904   3.272   8.768+94.74 +0.00    +0.156 C 
BRANCH  21  25
ATOM     25  N2  UNL     1      11.661   4.270   8.055 -0.23 -0.00    -0.320 N 
ATOM     26  C6  UNL     1      12.705   3.363   8.057 +0.23 +0.00    +0.273 C 
ATOM     27  O1  UNL     1      12.576   2.159   7.852+71.07 -0.00    -0.266 OA
ATOM     28  H39 UNL     1      11.873   5.246   8.199 +0.14 +0.00    +0.169 HD
BRANCH  26  29
ATOM     29  C5  UNL     1      14.016   3.960   8.321 +1.06 +0.00    +0.105 A 
ATOM     30  C4  UNL     1      14.785   4.814   7.534 +0.62 +0.00    +0.066 A 
ATOM     31  C3  UNL     1      15.982   5.121   8.221+99.99 +0.00    +0.053 A 
ATOM     32  C2  UNL     1      15.931   4.460   9.423+99.99 +0.00    +0.120 A 
ATOM     33  N1  UNL     1      14.747   3.768   9.483+41.96 -0.00    -0.354 N 
ATOM     34  C1  UNL     1      14.350   2.950  10.611+99.99 +0.00    +0.156 C 
BRANCH  31  35
ATOM     35  N8  UNL     1      17.043   5.914   7.843+99.99 -0.00    -0.320 N 
ATOM     36  C22 UNL     1      18.218   6.074   8.551+99.99 +0.00    +0.272 C 
ATOM     37  O4  UNL     1      18.513   5.546   9.617+16.57 -0.00    -0.266 OA
ATOM     38  H42 UNL     1      16.968   6.432   6.972 -0.26 +0.00    +0.169 HD
BRANCH  36  39
ATOM     39  C23 UNL     1      19.182   7.007   7.880+99.99 +0.00    +0.101 A 
ATOM     40  C27 UNL     1      19.531   6.810   6.549+99.99 +0.00    +0.036 A 
ATOM     41  C26 UNL     1      20.435   7.697   5.965+99.99 +0.00    +0.021 A 
ATOM     42  C25 UNL     1      20.965   8.741   6.727+14.44 +0.00    +0.047 A 
ATOM     43  C24 UNL     1      20.538   8.875   8.042+10.20 +0.00    +0.105 A 
ATOM     44  N9  UNL     1      19.669   8.029   8.648+65.47 -0.00    -0.360 N 
ATOM     45  H9  UNL     1      19.393   8.147   9.623 +0.37 +0.00    +0.165 HD
BRANCH  42  46
ATOM     46  C28 UNL     1      21.920   9.691   6.112 +6.72 +0.00    +0.258 C 
ATOM     47  N10 UNL     1      23.011   9.105   5.502 +1.10 -0.00    -0.308 N 
ATOM     48  H43 UNL     1      23.064   8.103   5.399 +1.63 +0.00    +0.170 HD
ATOM     49  O5  UNL     1      21.645  10.884   6.172+82.98 -0.00    -0.267 OA
BRANCH  47  50
ATOM     50  C29 UNL     1      24.027   9.816   4.911 +0.41 +0.00    +0.125 A 
ATOM     51  C30 UNL     1      24.104  11.187   4.859 +4.24 +0.00    +0.140 A 
ATOM     52  N11 UNL     1      25.266  11.452   4.182+17.39 -0.00    -0.339 N 
ATOM     53  C31 UNL     1      25.841  10.250   3.850+17.82 +0.00    +0.178 A 
ATOM     54  C46 UNL     1      25.789  12.762   3.878+99.99 +0.00    +0.157 C 
ATOM     55  N12 UNL     1      25.091   9.249   4.284 +0.95 -0.00    -0.323 N 
ATOM     56  H12 UNL     1      25.274   8.252   4.171 +0.07 +0.00    +0.169 HD
BRANCH  53  57
ATOM     57  C32 UNL     1      27.090  10.031   3.129 +6.73 +0.00    +0.291 C 
ATOM     58  N13 UNL     1      26.907   9.125   2.107 -0.13 -0.00    -0.305 N 
ATOM     59  H44 UNL     1      25.966   8.752   2.009 +0.13 +0.00    +0.170 HD
ATOM     60  O6  UNL     1      28.135  10.600   3.429+99.99 -0.00    -0.264 OA
BRANCH  58  61
ATOM     61  C33 UNL     1      27.873   8.698   1.242 +0.09 +0.00    +0.125 A 
ATOM     62  C34 UNL     1      29.149   9.204   1.181+14.59 +0.00    +0.140 A 
ATOM     63  N14 UNL     1      29.765   8.494   0.186 -0.12 -0.00    -0.339 N 
ATOM     64  C35 UNL     1      28.855   7.595  -0.317 -0.19 +0.00    +0.178 A 
ATOM     65  C45 UNL     1      31.128   8.668  -0.252 -0.19 +0.00    +0.157 C 
ATOM     66  N15 UNL     1      27.699   7.710   0.321 -0.17 -0.00    -0.323 N 
ATOM     67  H15 UNL     1      26.851   7.169   0.155 +0.11 +0.00    +0.169 HD
BRANCH  64  68
ATOM     68  C36 UNL     1      29.066   6.631  -1.388 -0.14 +0.00    +0.291 C 
ATOM     69  N16 UNL     1      29.241   5.359  -0.892 -0.04 -0.00    -0.305 N 
ATOM     70  H45 UNL     1      29.203   5.251   0.118 +0.08 +0.00    +0.170 HD
ATOM     71  O7  UNL     1      29.082   6.942  -2.577 -0.62 -0.00    -0.264 OA
BRANCH  69  72
ATOM     72  C37 UNL     1      29.461   4.225  -1.620 -0.08 +0.00    +0.125 A 
ATOM     73  C38 UNL     1      30.618   3.748  -2.180 -0.02 +0.00    +0.140 A 
ATOM     74  N17 UNL     1      30.262   2.580  -2.794 -0.01 -0.00    -0.339 N 
ATOM     75  C39 UNL     1      28.917   2.387  -2.588 -0.11 +0.00    +0.178 A 
ATOM     76  C44 UNL     1      31.149   1.710  -3.527 -0.06 +0.00    +0.157 C 
ATOM     77  N18 UNL     1      28.413   3.385  -1.872 -0.09 -0.00    -0.323 N 
ATOM     78  H18 UNL     1      27.445   3.500  -1.573 +0.08 +0.00    +0.169 HD
BRANCH  75  79
ATOM     79  C40 UNL     1      28.111   1.272  -3.058 +0.78 +0.00    +0.285 C 
ATOM     80  N19 UNL     1      27.075   0.962  -2.203+16.63 -0.00    -0.353 N 
ATOM     81  H46 UNL     1      26.991   1.556  -1.380 +0.13 +0.00    +0.162 HD
ATOM     82  O8  UNL     1      28.314   0.651  -4.098 -0.12 -0.00    -0.264 OA
BRANCH  80  83
ATOM     83  C41 UNL     1      26.105  -0.076  -2.478 +5.08 +0.00    +0.137 C 
BRANCH  83  84
ATOM     84  C42 UNL     1      24.685   0.330  -2.094+10.04 +0.00    +0.143 C 
ATOM     85  C43 UNL     1      24.687   1.651  -1.457+43.79 +0.00    +0.060 C 
ATOM     86  N20 UNL     1      24.698   2.691  -0.943 +2.32 -0.00    -0.197 NA
ENDBRANCH  83  84
ENDBRANCH  80  83
ENDBRANCH  75  79
ENDBRANCH  69  72
ENDBRANCH  64  68
ENDBRANCH  58  61
ENDBRANCH  53  57
ENDBRANCH  47  50
ENDBRANCH  42  46
ENDBRANCH  36  39
ENDBRANCH  31  35
ENDBRANCH  26  29
ENDBRANCH  21  25
ENDBRANCH  16  19
ENDBRANCH  11  15
ENDBRANCH   6   9
ENDBRANCH   4   5
ENDBRANCH   1   4
TORSDOF 18
TER
