USER    Run = 1
USER    DPF = ligand_493_receptor.dpf
USER  
USER    Estimated Free Energy of Binding    =  +5.65e+006 kcal/mol  [=(1)+(2)+(3)-(4)]
USER    
USER    (1) Final Intermolecular Energy     =  +5.65e+006 kcal/mol
USER        vdW + Hbond + desolv Energy     =  +3.17e+006 kcal/mol
USER        Electrostatic Energy            =  +2.48e+006 kcal/mol
USER    (2) Final Total Internal Energy     =   +0.00 kcal/mol
USER    (3) Torsional Free Energy           =   +1.19 kcal/mol
USER    (4) Unbound System's Energy  [=(2)] =   +0.00 kcal/mol
USER    
USER    
USER    NEWDPF move ligand_493.pdbqt
USER    NEWDPF about 0.000000 0.000000 0.000000
USER    NEWDPF tran0 14.238177 6.830781 4.263549
USER    NEWDPF quaternion0 -0.865887 -0.265023 -0.075713 -0.417456
USER    NEWDPF axisangle0 -0.952889 -0.291652 -0.083321 -130.651885
USER    NEWDPF quat0 -0.952889 -0.291652 -0.083321 -130.651885
USER  keepresnum = 1 
USER  
REMARK  0 active torsions:
REMARK  status: ('A' for Active; 'I' for Inactive)
REMARK       I    between atoms: C2_2  and  C4_4 
REMARK       I    between atoms: C4_4  and  C5_5 
REMARK       I    between atoms: C4_4  and  N20_114 
REMARK       I    between atoms: C5_5  and  N1_94 
REMARK       I    between atoms: C6_6  and  C7_7 
REMARK       I    between atoms: C6_6  and  C10_10 
REMARK       I    between atoms: C6_6  and  N1_94 
REMARK       I    between atoms: C10_10  and  N2_95 
REMARK       I    between atoms: C11_11  and  C12_12 
REMARK       I    between atoms: C11_11  and  C15_15 
REMARK       I    between atoms: C11_11  and  N2_95 
REMARK       I    between atoms: C15_15  and  N3_96 
REMARK       I    between atoms: C16_16  and  C17_17 
REMARK       I    between atoms: C16_16  and  C21_21 
REMARK       I    between atoms: C16_16  and  N3_96 
REMARK       I    between atoms: C17_17  and  C18_18 
REMARK       I    between atoms: C18_18  and  C19_19 
REMARK       I    between atoms: C19_19  and  C20_20 
REMARK       I    between atoms: C20_20  and  N4_97 
REMARK       I    between atoms: C21_21  and  N5_98 
REMARK       I    between atoms: C22_22  and  C23_23 
REMARK       I    between atoms: C22_22  and  C27_27 
REMARK       I    between atoms: C22_22  and  N5_98 
REMARK       I    between atoms: C23_23  and  C24_24 
REMARK       I    between atoms: C24_24  and  C25_25 
REMARK       I    between atoms: C25_25  and  C26_26 
REMARK       I    between atoms: C26_26  and  N6_99 
REMARK       I    between atoms: C27_27  and  N7_100 
REMARK       I    between atoms: C28_28  and  C29_29 
REMARK       I    between atoms: C28_28  and  C33_33 
REMARK       I    between atoms: C28_28  and  N7_100 
REMARK       I    between atoms: C29_29  and  C30_30 
REMARK       I    between atoms: C30_30  and  C31_31 
REMARK       I    between atoms: C31_31  and  C32_32 
REMARK       I    between atoms: C32_32  and  N8_101 
REMARK       I    between atoms: C33_33  and  N9_102 
REMARK       I    between atoms: C34_34  and  C35_35 
REMARK       I    between atoms: C34_34  and  C39_39 
REMARK       I    between atoms: C34_34  and  N9_102 
REMARK       I    between atoms: C35_35  and  C36_36 
REMARK       I    between atoms: C36_36  and  C37_37 
REMARK       I    between atoms: C37_37  and  N10_103 
REMARK       I    between atoms: C38_38  and  N11_105 
REMARK       I    between atoms: C38_38  and  N12_106 
REMARK       I    between atoms: C39_39  and  N13_107 
REMARK       I    between atoms: C40_40  and  C41_41 
REMARK       I    between atoms: C40_40  and  C45_45 
REMARK       I    between atoms: C40_40  and  N13_107 
REMARK       I    between atoms: C41_41  and  C42_42 
REMARK       I    between atoms: C42_42  and  C43_43 
REMARK       I    between atoms: C43_43  and  C44_44 
REMARK       I    between atoms: C44_44  and  N14_108 
REMARK       I    between atoms: C45_45  and  N15_109 
REMARK       I    between atoms: C46_46  and  C47_47 
REMARK       I    between atoms: C46_46  and  C50_50 
REMARK       I    between atoms: C46_46  and  N15_109 
REMARK       I    between atoms: C50_50  and  N16_110 
REMARK       I    between atoms: C51_51  and  C52_52 
REMARK       I    between atoms: C51_51  and  C55_55 
REMARK       I    between atoms: C51_51  and  N16_110 
REMARK       I    between atoms: C55_55  and  N17_111 
REMARK       I    between atoms: C56_56  and  C57_57 
REMARK       I    between atoms: C56_56  and  C72_72 
REMARK       I    between atoms: C56_56  and  N17_111 
REMARK       I    between atoms: C57_57  and  S1_115 
REMARK       I    between atoms: C58_58  and  S1_115 
REMARK       I    between atoms: C62_62  and  C63_63 
REMARK       I    between atoms: C62_62  and  N18_112 
REMARK       I    between atoms: C63_63  and  C64_64 
REMARK       I    between atoms: C64_64  and  C65_65 
REMARK       I    between atoms: C65_65  and  N19_113 
REMARK       I    between atoms: C67_67  and  O16_90 
REMARK       I    between atoms: C68_68  and  O15_89 
REMARK       I    between atoms: C69_69  and  O14_88 
REMARK       I    between atoms: C70_70  and  C71_71 
REMARK       I    between atoms: C71_71  and  O13_87 
REMARK       I    between atoms: C72_72  and  O18_92 
REMARK       I    between atoms: C73_73  and  N20_114 
USER                              x       y       z     vdW  Elec       q    Type
USER                           _______ _______ _______ _____ _____    ______ ____
ROOT
ATOM      1  C1  UNL     1       2.934   2.735  -6.447+99.99+99.99    +0.012 C 
ATOM      2  C2  UNL     1       2.685   1.666  -5.377+99.99+99.99    +0.009 C 
ATOM      3  C3  UNL     1       1.187   1.571  -5.066+99.99+99.99    +0.012 C 
ATOM      4  C4  UNL     1       3.550   1.915  -4.115 -0.01 +0.00    +0.179 C 
ATOM      5  C5  UNL     1       3.544   0.663  -3.184 -0.04 +0.00    +0.241 C 
ATOM      6  C6  UNL     1       4.222  -0.129  -0.924 +4.54 +0.00    +0.180 C 
ATOM      7  C7  UNL     1       3.860   0.295   0.521 +0.87 +0.00    +0.009 C 
ATOM      8  C8  UNL     1       4.155  -0.811   1.540+99.99 +0.00    +0.012 C 
ATOM      9  C9  UNL     1       2.379   0.681   0.636 -0.16 +0.00    +0.012 C 
ATOM     10  C10 UNL     1       5.749  -0.380  -1.058 +4.37 +0.00    +0.241 C 
ATOM     11  C11 UNL     1       7.978   0.657  -1.476 -0.12 +0.00    +0.180 C 
ATOM     12  C12 UNL     1       8.568   1.436  -2.674 +0.07 +0.00    +0.009 C 
ATOM     13  C13 UNL     1      10.075   1.179  -2.817 +1.47 +0.00    +0.012 C 
ATOM     14  C14 UNL     1       7.890   1.053  -3.996 +5.41 +0.00    +0.012 C 
ATOM     15  C15 UNL     1       8.441   1.216  -0.104 -0.13 +0.00    +0.241 C 
ATOM     16  C16 UNL     1       8.261   0.801   2.379+11.46 +0.00    +0.176 C 
ATOM     17  C17 UNL     1       9.750   0.577   2.689+99.99 +0.00    +0.035 C 
ATOM     18  C18 UNL     1      10.236  -0.850   2.395+83.99 +0.00    +0.004 C 
ATOM     19  C19 UNL     1       9.667  -1.900   3.359+99.99+99.99    +0.030 C 
ATOM     20  C20 UNL     1       9.018  -3.100   2.668+99.99+99.99    +0.267 C 
ATOM     21  C21 UNL     1       7.749   2.182   2.849 +0.01 +0.00    +0.241 C 
ATOM     22  C22 UNL     1       8.025   4.644   2.565 -0.12 +0.00    +0.176 C 
ATOM     23  C23 UNL     1       7.180   5.188   1.397 -0.16 +0.00    +0.035 C 
ATOM     24  C24 UNL     1       5.815   4.517   1.216 -0.16 +0.00    +0.004 C 
ATOM     25  C25 UNL     1       4.825   4.860   2.331 -0.17 +0.00    +0.030 C 
ATOM     26  C26 UNL     1       3.518   4.088   2.162 -0.07 +0.00    +0.267 C 
ATOM     27  C27 UNL     1       9.304   5.499   2.711 -0.13 +0.00    +0.241 C 
ATOM     28  C28 UNL     1      10.195   7.638   3.564 -0.35 +0.00    +0.176 C 
ATOM     29  C29 UNL     1       9.955   9.078   3.094 +4.21 +0.00    +0.035 C 
ATOM     30  C30 UNL     1       9.715   9.228   1.586+99.99 +0.00    +0.004 C 
ATOM     31  C31 UNL     1      10.875   8.725   0.725+99.99 +0.00    +0.030 C 
ATOM     32  C32 UNL     1      10.619   8.999  -0.757+75.44 +0.00    +0.267 C 
ATOM     33  C33 UNL     1      10.324   7.608   5.100 -0.07 +0.00    +0.241 C 
ATOM     34  C34 UNL     1      11.821   8.135   7.013 -0.14 +0.00    +0.176 C 
ATOM     35  C35 UNL     1      11.389   9.485   7.595 +1.33 +0.00    +0.036 C 
ATOM     36  C36 UNL     1      11.526   9.565   9.119+38.57 +0.00    +0.022 C 
ATOM     37  C37 UNL     1      11.056  10.908   9.679+64.21 +0.00    +0.121 C 
ATOM     38  C38 UNL     1       9.010  12.032   9.975+99.99 +0.00    +0.121 C 
ATOM     39  C39 UNL     1      13.341   7.905   7.130 -0.20 +0.00    +0.241 C 
ATOM     40  C40 UNL     1      15.158   6.950   8.534 +2.96 +0.00    +0.176 C 
ATOM     41  C41 UNL     1      15.237   5.677   9.390 +9.44 +0.00    +0.035 C 
ATOM     42  C42 UNL     1      16.485   4.823   9.135+99.99 +0.00    +0.004 C 
ATOM     43  C43 UNL     1      17.805   5.500   9.503+99.99 +0.00    +0.030 C 
ATOM     44  C44 UNL     1      18.964   4.505   9.405+99.99 +0.00    +0.267 C 
ATOM     45  C45 UNL     1      15.806   8.180   9.215+99.99 +0.00    +0.241 C 
ATOM     46  C46 UNL     1      16.745  10.445   8.740+99.99 +0.00    +0.180 C 
ATOM     47  C47 UNL     1      15.801  11.633   9.037+99.99 +0.00    +0.009 C 
ATOM     48  C48 UNL     1      14.772  11.866   7.927 +0.97 +0.00    +0.012 C 
ATOM     49  C49 UNL     1      15.088  11.459  10.381+99.99 +0.00    +0.012 C 
ATOM     50  C50 UNL     1      17.750  10.778   7.609+99.99 +0.00    +0.241 C 
ATOM     51  C51 UNL     1      19.666  12.235   6.930+99.99 +0.00    +0.180 C 
ATOM     52  C52 UNL     1      19.056  12.901   5.674+99.99 +0.00    +0.009 C 
ATOM     53  C53 UNL     1      20.121  13.664   4.872+99.99 +0.00    +0.012 C 
ATOM     54  C54 UNL     1      17.944  13.894   6.038+99.99 +0.00    +0.012 C 
ATOM     55  C55 UNL     1      20.650  11.072   6.632+99.99 +0.00    +0.241 C 
ATOM     56  C56 UNL     1      21.851   9.192   7.731 +0.31 +0.00    +0.191 C 
ATOM     57  C57 UNL     1      23.177   9.277   8.496+99.99 +0.00    +0.111 C 
ATOM     58  C58 UNL     1      24.496  10.500   6.308+53.55 +0.00    +0.148 C 
ATOM     59  C59 UNL     1      25.374   9.306   5.963+99.99 +0.00    +0.128 C 
ATOM     60  C60 UNL     1      26.642   9.913   5.444+99.99 +0.00    +0.228 C 
ATOM     61  C61 UNL     1      25.262  11.689   5.768+99.99 +0.00    +0.240 C 
ATOM     62  C62 UNL     1      27.506  12.157   4.816+99.99 +0.00    +0.135 C 
ATOM     63  C63 UNL     1      28.278  12.863   5.934+99.99 +0.00    +0.022 C 
ATOM     64  C64 UNL     1      29.092  11.894   6.797 +8.04 +0.00    +0.032 C 
ATOM     65  C65 UNL     1      29.946  12.645   7.828 -0.28 +0.00    +0.273 C 
ATOM     66  C66 UNL     1      31.102  12.380   9.957 +0.35 +0.00    +0.307 C 
ATOM     67  C67 UNL     1      32.295  13.346   9.799 -0.14 +0.00    +0.177 C 
ATOM     68  C68 UNL     1      33.353  12.794   8.831+99.99+99.99    +0.179 C 
ATOM     69  C69 UNL     1      33.183  11.285   8.629+99.99+99.99    +0.184 C 
ATOM     70  C70 UNL     1      31.780  11.006   8.030+99.99 +0.00    +0.277 C 
ATOM     71  C71 UNL     1      31.482   9.490   8.001+99.99 +0.00    +0.202 C 
ATOM     72  C72 UNL     1      20.990   8.127   8.406 +0.89 +0.00    +0.164 C 
ATOM     73  C73 UNL     1       4.127   3.871  -2.676 +0.17 +0.00    +0.214 C 
ATOM     74  C74 UNL     1       3.720   5.273  -2.320+99.99 +0.00    +0.117 C 
ATOM     75  O1  UNL     1       3.431  -0.483  -3.614 -0.09 -0.00    -0.271 OA
ATOM     76  O2  UNL     1       6.284  -1.418  -0.665+99.99+99.99    -0.271 OA
ATOM     77  O3  UNL     1       9.244   2.137   0.020 -0.12 -0.00    -0.271 OA
ATOM     78  O4  UNL     1       6.781   2.295   3.600 -0.24 -0.00    -0.271 OA
ATOM     79  O5  UNL     1      10.419   5.108   2.372 +0.15 -0.00    -0.271 OA
ATOM     80  O6  UNL     1       9.406   7.234   5.830 +6.07 -0.00    -0.271 OA
ATOM     81  O7  UNL     1      14.130   8.269   6.258 +0.70 -0.00    -0.271 OA
ATOM     82  O8  UNL     1      16.049   8.238  10.418+99.99 -0.00    -0.271 OA
ATOM     83  O9  UNL     1      17.731  10.203   6.523+99.99 -0.00    -0.271 OA
ATOM     84  O10 UNL     1      21.115  10.809   5.528+99.99 -0.00    -0.271 OA
ATOM     85  O11 UNL     1      27.642   9.267   5.166+99.99 -0.00    -0.273 OA
ATOM     86  O12 UNL     1      24.864  12.847   5.755+99.99 -0.00    -0.272 OA
ATOM     87  O13 UNL     1      31.720   8.879   9.266+99.99 -0.00    -0.399 OA
ATOM     88  O14 UNL     1      34.224  10.835   7.743+99.99+99.99    -0.391 OA
ATOM     89  O15 UNL     1      34.671  13.049   9.349+99.99+99.99    -0.390 OA
ATOM     90  O16 UNL     1      31.841  14.626   9.330+99.99+99.99    -0.391 OA
ATOM     91  O17 UNL     1      20.065   8.355   9.176 +1.70 -0.00    -0.648 OA
ATOM     92  O18 UNL     1      21.401   6.874   8.132 +0.49 -0.00    -0.775 OA
ATOM     93  O19 UNL     1       5.139   3.335  -2.230 -0.09 -0.00    -0.274 OA
ATOM     94  N1  UNL     1       3.829   0.922  -1.863 -0.05 -0.00    -0.346 N 
ATOM     95  N2  UNL     1       6.512   0.692  -1.478 -0.06 -0.00    -0.346 N 
ATOM     96  N3  UNL     1       7.902   0.558   0.983 +0.17 -0.00    -0.346 N 
ATOM     97  N4  UNL     1       7.819  -2.716   1.933+99.99+99.99    +0.078 N 
ATOM     98  N5  UNL     1       8.418   3.263   2.334 -0.08 -0.00    -0.346 N 
ATOM     99  N6  UNL     1       2.548   4.501   3.170 -0.11 +0.00    +0.078 N 
ATOM    100  N7  UNL     1       9.077   6.770   3.202 -0.12 -0.00    -0.346 N 
ATOM    101  N8  UNL     1      11.710   8.493  -1.582+51.81 +0.00    +0.078 N 
ATOM    102  N9  UNL     1      11.517   8.084   5.585 -0.17 -0.00    -0.346 N 
ATOM    103  N10 UNL     1       9.616  11.021   9.482+12.17 -0.00    -0.372 N 
ATOM    104  H10 UNL     1       9.103  10.308   8.963 +3.46 +0.00    +0.161 HD
ATOM    105  N11 UNL     1       9.495  13.079  10.677+99.99 -0.00    -0.279 NA
ATOM    106  N12 UNL     1       7.674  12.153   9.825+99.99 -0.00    -0.279 NA
ATOM    107  N13 UNL     1      13.750   7.270   8.280 -0.26 -0.00    -0.346 N 
ATOM    108  N14 UNL     1      20.235   5.145   9.764+99.99 +0.00    +0.078 N 
ATOM    109  N15 UNL     1      16.022   9.236   8.359+99.99 -0.00    -0.346 N 
ATOM    110  N16 UNL     1      18.678  11.757   7.915 +2.09 -0.00    -0.346 N 
ATOM    111  N17 UNL     1      21.084  10.436   7.784 +0.97 -0.00    -0.344 N 
ATOM    112  N18 UNL     1      26.481  11.260   5.319+99.99 -0.00    -0.287 N 
ATOM    113  N19 UNL     1      30.660  11.713   8.719+53.86 +0.00    +0.100 N 
ATOM    114  N20 UNL     1       3.224   3.191  -3.457 -0.02 -0.00    -0.348 N 
ATOM    115  S1  UNL     1      24.255  10.713   8.112+58.03 -0.00    -0.152 SA
ATOM    116  HA9 UNL     1      31.170   8.076   9.294 +1.95 +0.00    +0.209 HD
ATOM    117  HB0 UNL     1      34.274   9.868   7.855+99.99+99.99    +0.210 HD
ATOM    118  HB1 UNL     1      35.268  12.563   8.745+99.99+99.99    +0.210 HD
ATOM    119  HB2 UNL     1      31.324  15.025  10.049+99.99+99.99    +0.210 HD
ATOM    120  HB3 UNL     1      20.825   6.267   8.679 +0.38 +0.00    +0.167 HD
ATOM    121  HB4 UNL     1       4.138   1.862  -1.652 +0.03 +0.00    +0.163 HD
ATOM    122  HB5 UNL     1       6.073   1.599  -1.614 +0.05 +0.00    +0.163 HD
ATOM    123  HB6 UNL     1       7.378  -0.295   0.800 +0.27 +0.00    +0.163 HD
ATOM    124  HB7 UNL     1       7.270  -3.551   1.723+99.99+99.99    +0.312 HD
ATOM    125  HB8 UNL     1       8.077  -2.358   1.012+99.99+99.99    +0.312 HD
ATOM    126  HB9 UNL     1       9.103   3.095   1.594 -0.08 +0.00    +0.163 HD
ATOM    127  HC0 UNL     1       2.947   4.341   4.097 +0.09 +0.00    +0.312 HD
ATOM    128  HC1 UNL     1       1.730   3.895   3.115+99.99+99.99    +0.312 HD
ATOM    129  HC2 UNL     1       8.252   6.882   3.785 +0.08 +0.00    +0.163 HD
ATOM    130  HC3 UNL     1      12.592   8.897  -1.270+94.29 +0.00    +0.312 HD
ATOM    131  HC4 UNL     1      11.804   7.487  -1.434 +0.07 +0.00    +0.312 HD
ATOM    132  HC5 UNL     1      12.282   8.297   4.950 +0.11 +0.00    +0.163 HD
ATOM    133  HC6 UNL     1      10.497  13.193  10.613+18.22 +0.00    +0.126 HD
ATOM    134  HC7 UNL     1       9.017  13.944  10.447+99.99 +0.00    +0.126 HD
ATOM    135  HC8 UNL     1       7.209  12.370  10.699+99.99 +0.00    +0.126 HD
ATOM    136  HC9 UNL     1       7.299  11.294   9.433+25.95 +0.00    +0.126 HD
ATOM    137  HD0 UNL     1      13.103   7.192   9.055 +0.12 +0.00    +0.163 HD
ATOM    138  HD1 UNL     1      20.922   4.398   9.915+99.99 +0.00    +0.312 HD
ATOM    139  HD2 UNL     1      20.115   5.573  10.689+99.99 +0.00    +0.312 HD
ATOM    140  HD3 UNL     1      15.854   9.091   7.362+99.99 +0.00    +0.163 HD
ATOM    141  HD4 UNL     1      18.568  12.293   8.766 +0.35 +0.00    +0.163 HD
ATOM    142  HD5 UNL     1      20.476  10.546   8.590 +0.11 +0.00    +0.163 HD
ATOM    143  HD6 UNL     1       2.402   3.688  -3.777 +0.02 +0.00    +0.163 HD
ENDROOT
TORSDOF 65
TER
