USER    Run = 1
USER    DPF = ligand_491_receptor.dpf
USER  
USER    Estimated Free Energy of Binding    =   -6.79 kcal/mol  [=(1)+(2)+(3)-(4)]
USER    Estimated Inhibition Constant, Ki   =   10.52 uM (micromolar)  [Temperature = 298.15 K]
USER    
USER    (1) Final Intermolecular Energy     =   -7.98 kcal/mol
USER        vdW + Hbond + desolv Energy     =   -7.98 kcal/mol
USER        Electrostatic Energy            =   +0.00 kcal/mol
USER    (2) Final Total Internal Energy     =   +4.59 kcal/mol
USER    (3) Torsional Free Energy           =   +1.19 kcal/mol
USER    (4) Unbound System's Energy  [=(2)] =   +4.59 kcal/mol
USER    
USER    
USER    NEWDPF move ligand_491.pdbqt
USER    NEWDPF about 0.000000 0.000000 0.000000
USER    NEWDPF tran0 6.602511 1.755530 7.490507
USER    NEWDPF quaternion0 -0.076921 -0.866894 0.229424 0.435824
USER    NEWDPF axisangle0 -0.085465 -0.963181 0.254907 128.324580
USER    NEWDPF quat0 -0.085465 -0.963181 0.254907 128.324580
USER    NEWDPF dihe0 1.67 66.90 -34.29 -33.35 -37.95 164.70 
USER  keepresnum = 1 
USER  
REMARK  6 active torsions:
REMARK  status: ('A' for Active; 'I' for Inactive)
REMARK    1  A    between atoms: C3_3  and  N4_35 
REMARK    2  A    between atoms: C6_6  and  C7_7 
REMARK    3  A    between atoms: C10_10  and  N2_33 
REMARK       I    between atoms: C16_16  and  N4_35 
REMARK       I    between atoms: C16_16  and  N5_36 
REMARK    4  A    between atoms: C17_17  and  N5_36 
REMARK    5  A    between atoms: C20_20  and  C23_23 
REMARK    6  A    between atoms: C26_26  and  N7_38 
USER                              x       y       z     vdW  Elec       q    Type
USER                           _______ _______ _______ _____ _____    ______ ____
ROOT
ATOM      1  C16 UNL     1       7.052   4.356   7.040 -0.31 +0.00    +0.316 C 
ATOM      2  N4  UNL     1       5.893   3.641   6.871 -0.21 -0.00    -0.336 N 
ATOM      3  N5  UNL     1       8.063   3.533   7.469 -0.29 -0.00    -0.336 N 
ATOM      4  O1  UNL     1       7.169   5.556   6.839 -0.30 -0.00    -0.247 OA
ATOM      5  H53 UNL     1       5.796   2.915   7.571 -0.01 +0.00    +0.164 HD
ATOM      6  H54 UNL     1       7.999   2.615   7.045 -0.10 +0.00    +0.164 HD
ENDROOT
BRANCH   2   7
ATOM      7  C3  UNL     1       4.637   4.319   6.533 -0.37 +0.00    +0.120 C 
ATOM      8  C2  UNL     1       4.857   5.563   5.665 -0.29 +0.00    +0.028 C 
ATOM      9  C1  UNL     1       5.346   5.213   4.259 -0.22 +0.00    +0.007 C 
ATOM     10  C6  UNL     1       4.402   4.237   3.520 -0.16 -0.00    -0.006 C 
ATOM     11  C5  UNL     1       4.150   3.000   4.402 -0.22 +0.00    +0.044 C 
ATOM     12  C4  UNL     1       3.682   3.363   5.809 -0.25 +0.00    +0.193 C 
ATOM     13  F1  UNL     1       3.581   2.210   6.535 -0.12 -0.00    -0.247 F 
BRANCH  10  14
ATOM     14  C7  UNL     1       4.975   3.859   2.116 -0.13 +0.00    +0.018 C 
ATOM     15  C8  UNL     1       4.494   4.853   1.028 -0.17 +0.00    +0.011 C 
ATOM     16  C9  UNL     1       4.348   4.167  -0.327 -0.17 +0.00    +0.069 C 
ATOM     17  C10 UNL     1       3.311   3.016  -0.256 -0.02 +0.00    +0.454 C 
ATOM     18  N1  UNL     1       3.364   2.308   1.028 -0.08 +0.00    +0.117 N 
ATOM     19  C11 UNL     1       4.676   2.410   1.661 -0.07 +0.00    +0.277 C 
ATOM     20  H51 UNL     1       2.665   2.711   1.646 +0.07 +0.00    +0.318 HD
BRANCH  17  21
ATOM     21  N2  UNL     1       3.484   2.041  -1.339 -0.06 +0.00    +0.125 N 
ATOM     22  C12 UNL     1       2.434   0.999  -1.343 -0.05 +0.00    +0.305 C 
ATOM     23  C13 UNL     1       2.681  -0.088  -2.423 -0.04 +0.00    +0.299 C 
ATOM     24  N3  UNL     1       3.613   0.309  -3.497 -0.07 +0.00    +0.086 N 
ATOM     25  C14 UNL     1       3.330   1.705  -3.862 +0.01 +0.00    +0.299 C 
ATOM     26  H52 UNL     1       4.541   0.316  -3.064 +0.07 +0.00    +0.315 HD
ATOM     27  C15 UNL     1       3.523   2.684  -2.676 -0.03 +0.00    +0.305 C 
ENDBRANCH  17  21
ENDBRANCH  10  14
ENDBRANCH   2   7
BRANCH   3  28
ATOM     28  C17 UNL     1       9.433   4.044   7.598 -0.50 +0.00    +0.120 C 
ATOM     29  C18 UNL     1      10.450   3.192   6.811 -0.47 +0.00    +0.028 C 
ATOM     30  C19 UNL     1      10.896   3.818   5.483 -0.51 +0.00    +0.007 C 
ATOM     31  C20 UNL     1       9.741   4.545   4.777 -0.37 -0.00    -0.006 C 
ATOM     32  C21 UNL     1       9.207   5.693   5.658 -0.26 +0.00    +0.044 C 
ATOM     33  C22 UNL     1       9.500   5.508   7.148 -0.26 +0.00    +0.193 C 
ATOM     34  F2  UNL     1       8.587   6.236   7.855 +0.08 -0.00    -0.247 F 
BRANCH  31  35
ATOM     35  C23 UNL     1      10.109   4.963   3.327 -0.16 +0.00    +0.018 C 
ATOM     36  C24 UNL     1       8.960   4.684   2.340 -0.20 +0.00    +0.011 C 
ATOM     37  C25 UNL     1       9.030   5.568   1.090 -0.19 +0.00    +0.069 C 
ATOM     38  C26 UNL     1      10.482   5.946   0.735 -0.07 +0.00    +0.454 C 
ATOM     39  N6  UNL     1      11.103   6.686   1.827 -0.30 +0.00    +0.117 N 
ATOM     40  C27 UNL     1      10.580   6.415   3.166 -0.19 +0.00    +0.277 C 
ATOM     41  H55 UNL     1      10.964   7.672   1.607 +0.20 +0.00    +0.318 HD
BRANCH  38  42
ATOM     42  N7  UNL     1      10.605   6.819  -0.434 -0.26 +0.00    +0.125 N 
ATOM     43  C28 UNL     1       9.359   7.548  -0.762 -0.18 +0.00    +0.305 C 
ATOM     44  C29 UNL     1       9.234   8.041  -2.229 -0.24 +0.00    +0.299 C 
ATOM     45  N8  UNL     1      10.521   8.278  -2.877 -0.39 +0.00    +0.086 N 
ATOM     46  C30 UNL     1      11.359   7.071  -2.818 -0.15 +0.00    +0.299 C 
ATOM     47  H56 UNL     1      10.396   8.569  -3.843 +0.22 +0.00    +0.315 HD
ATOM     48  C31 UNL     1      11.064   6.103  -1.642 -0.18 +0.00    +0.305 C 
ENDBRANCH  38  42
ENDBRANCH  31  35
ENDBRANCH   3  28
TORSDOF 6
TER
