USER    Run = 1
USER    DPF = ligand_539_receptor.dpf
USER  
USER    Estimated Free Energy of Binding    =  +8.81e+005 kcal/mol  [=(1)+(2)+(3)-(4)]
USER    
USER    (1) Final Intermolecular Energy     =  +8.81e+005 kcal/mol
USER        vdW + Hbond + desolv Energy     =  +4.98e+005 kcal/mol
USER        Electrostatic Energy            =  +3.83e+005 kcal/mol
USER    (2) Final Total Internal Energy     =   +0.00 kcal/mol
USER    (3) Torsional Free Energy           =   +1.19 kcal/mol
USER    (4) Unbound System's Energy  [=(2)] =   +0.00 kcal/mol
USER    
USER    
USER    NEWDPF move ligand_539.pdbqt
USER    NEWDPF about 0.000000 0.000000 0.000000
USER    NEWDPF tran0 19.902761 8.730398 2.880483
USER    NEWDPF quaternion0 0.396852 0.204975 0.478409 0.756055
USER    NEWDPF axisangle0 0.606336 0.313173 0.730944 81.764775
USER    NEWDPF quat0 0.606336 0.313173 0.730944 81.764775
USER  keepresnum = 1 
USER  
REMARK  0 active torsions:
REMARK  status: ('A' for Active; 'I' for Inactive)
REMARK       I    between atoms: C2_2  and  N1_58 
REMARK       I    between atoms: C3_3  and  C4_4 
REMARK       I    between atoms: C3_3  and  C15_15 
REMARK       I    between atoms: C3_3  and  N1_58 
REMARK       I    between atoms: C4_4  and  C5_5 
REMARK       I    between atoms: C5_5  and  C6_6 
REMARK       I    between atoms: C6_6  and  C7_7 
REMARK       I    between atoms: C7_7  and  N2_59 
REMARK       I    between atoms: C8_8  and  C9_9 
REMARK       I    between atoms: C8_8  and  N2_59 
REMARK       I    between atoms: C11_11  and  O5_46 
REMARK       I    between atoms: C12_12  and  O4_45 
REMARK       I    between atoms: C13_13  and  O3_44 
REMARK       I    between atoms: C15_15  and  N3_60 
REMARK       I    between atoms: C16_16  and  C17_17 
REMARK       I    between atoms: C16_16  and  C28_28 
REMARK       I    between atoms: C16_16  and  N3_60 
REMARK       I    between atoms: C17_17  and  C18_18 
REMARK       I    between atoms: C18_18  and  C19_19 
REMARK       I    between atoms: C19_19  and  C20_20 
REMARK       I    between atoms: C20_20  and  N4_61 
REMARK       I    between atoms: C21_21  and  C22_22 
REMARK       I    between atoms: C21_21  and  N4_61 
REMARK       I    between atoms: C24_24  and  O10_51 
REMARK       I    between atoms: C25_25  and  O9_50 
REMARK       I    between atoms: C26_26  and  O8_49 
REMARK       I    between atoms: C28_28  and  N5_62 
REMARK       I    between atoms: C29_29  and  C30_30 
REMARK       I    between atoms: C29_29  and  C41_41 
REMARK       I    between atoms: C29_29  and  N5_62 
REMARK       I    between atoms: C30_30  and  C31_31 
REMARK       I    between atoms: C31_31  and  C32_32 
REMARK       I    between atoms: C32_32  and  C33_33 
REMARK       I    between atoms: C33_33  and  N6_63 
REMARK       I    between atoms: C34_34  and  C35_35 
REMARK       I    between atoms: C34_34  and  N6_63 
REMARK       I    between atoms: C37_37  and  O15_56 
REMARK       I    between atoms: C38_38  and  O14_55 
REMARK       I    between atoms: C39_39  and  O13_54 
REMARK       I    between atoms: C41_41  and  N7_64 
USER                              x       y       z     vdW  Elec       q    Type
USER                           _______ _______ _______ _____ _____    ______ ____
ROOT
ATOM      1  C1  UNL     1      18.873  11.533   6.319+99.99 +0.00    +0.117 C 
ATOM      2  C2  UNL     1      19.112  10.157   5.762+99.99 +0.00    +0.214 C 
ATOM      3  C3  UNL     1      20.766   8.336   5.556+99.99 +0.00    +0.176 C 
ATOM      4  C4  UNL     1      22.237   8.099   5.936+99.99 +0.00    +0.035 C 
ATOM      5  C5  UNL     1      22.741   6.657   5.809+99.99 +0.00    +0.004 C 
ATOM      6  C6  UNL     1      21.942   5.651   6.637+99.99 +0.00    +0.020 C 
ATOM      7  C7  UNL     1      22.551   4.253   6.546+99.99 +0.00    +0.123 C 
ATOM      8  C8  UNL     1      21.912   3.149   8.658+99.99 +0.00    +0.251 C 
ATOM      9  C9  UNL     1      21.009   2.172   9.329+99.99 +0.00    +0.037 A 
ATOM     10  C10 UNL     1      20.744   2.357  10.699+99.99 +0.00    +0.056 A 
ATOM     11  C11 UNL     1      19.909   1.465  11.363+99.99+99.99    +0.102 A 
ATOM     12  C12 UNL     1      19.346   0.396  10.678 +5.75 +0.00    +0.132 A 
ATOM     13  C13 UNL     1      19.619   0.206   9.330+99.99 +0.00    +0.102 A 
ATOM     14  C14 UNL     1      20.453   1.081   8.646+73.76 +0.00    +0.056 A 
ATOM     15  C15 UNL     1      20.536   7.950   4.075+22.06 +0.00    +0.241 C 
ATOM     16  C16 UNL     1      20.424   8.845   1.756+10.29 +0.00    +0.176 C 
ATOM     17  C17 UNL     1      21.722   8.998   0.952 +0.52 +0.00    +0.035 C 
ATOM     18  C18 UNL     1      22.731   7.881   1.246 +0.17 +0.00    +0.004 C 
ATOM     19  C19 UNL     1      23.991   7.962   0.382 -0.51 +0.00    +0.020 C 
ATOM     20  C20 UNL     1      24.844   9.191   0.683 +0.45 +0.00    +0.123 C 
ATOM     21  C21 UNL     1      27.128   9.994   0.299+12.80 +0.00    +0.251 C 
ATOM     22  C22 UNL     1      28.292  10.016  -0.625+99.99 +0.00    +0.037 A 
ATOM     23  C23 UNL     1      29.015  11.211  -0.758+99.99 +0.00    +0.056 A 
ATOM     24  C24 UNL     1      30.104  11.253  -1.617+43.77 +0.00    +0.102 A 
ATOM     25  C25 UNL     1      30.485  10.121  -2.327+10.22 +0.00    +0.132 A 
ATOM     26  C26 UNL     1      29.781   8.929  -2.180 +1.04 +0.00    +0.102 A 
ATOM     27  C27 UNL     1      28.683   8.863  -1.330+17.32 +0.00    +0.056 A 
ATOM     28  C28 UNL     1      19.364   9.876   1.302 -0.14 +0.00    +0.241 C 
ATOM     29  C29 UNL     1      17.141  10.811   1.834 -0.43 +0.00    +0.176 C 
ATOM     30  C30 UNL     1      16.531  11.523   3.051 -0.24 +0.00    +0.035 C 
ATOM     31  C31 UNL     1      15.333  12.437   2.767+29.57 +0.00    +0.004 C 
ATOM     32  C32 UNL     1      15.665  13.596   1.825+99.99 +0.00    +0.020 C 
ATOM     33  C33 UNL     1      14.459  14.487   1.513+99.99+99.99    +0.123 C 
ATOM     34  C34 UNL     1      13.317  13.013  -0.134+99.99 +0.00    +0.251 C 
ATOM     35  C35 UNL     1      12.005  12.513  -0.630+99.99 +0.00    +0.037 A 
ATOM     36  C36 UNL     1      11.888  12.220  -2.001 +2.34 +0.00    +0.056 A 
ATOM     37  C37 UNL     1      10.678  11.748  -2.499 +8.70 +0.00    +0.102 A 
ATOM     38  C38 UNL     1       9.598  11.563  -1.646+22.71 +0.00    +0.132 A 
ATOM     39  C39 UNL     1       9.720  11.838  -0.290+99.99 +0.00    +0.102 A 
ATOM     40  C40 UNL     1      10.918  12.306   0.233+50.85 +0.00    +0.056 A 
ATOM     41  C41 UNL     1      16.189   9.744   1.253 -0.31 +0.00    +0.238 C 
ATOM     42  O1  UNL     1      18.223   9.489   5.245 +2.63 -0.00    -0.274 OA
ATOM     43  O2  UNL     1      22.701   3.807   9.328+99.99 -0.00    -0.268 OA
ATOM     44  O3  UNL     1      19.074  -0.854   8.665+99.99 -0.00    -0.358 OA
ATOM     45  O4  UNL     1      18.522  -0.487  11.321+99.99+99.99    -0.356 OA
ATOM     46  O5  UNL     1      19.615   1.598  12.691+99.99+99.99    -0.358 OA
ATOM     47  O6  UNL     1      20.386   6.785   3.717 +7.75 -0.00    -0.271 OA
ATOM     48  O7  UNL     1      27.117  10.705   1.297+75.71 -0.00    -0.268 OA
ATOM     49  O8  UNL     1      30.218   7.845  -2.891 -0.22 -0.00    -0.358 OA
ATOM     50  O9  UNL     1      31.564  10.193  -3.165 +1.08 -0.00    -0.356 OA
ATOM     51  O10 UNL     1      30.801  12.416  -1.762+99.99 -0.00    -0.358 OA
ATOM     52  O11 UNL     1      19.346  10.363   0.173 -0.33 -0.00    -0.271 OA
ATOM     53  O12 UNL     1      14.341  12.725  -0.746 +0.37 -0.00    -0.268 OA
ATOM     54  O13 UNL     1       8.659  11.643   0.546+99.99 -0.00    -0.358 OA
ATOM     55  O14 UNL     1       8.402  11.100  -2.125+99.99 -0.00    -0.356 OA
ATOM     56  O15 UNL     1      10.505  11.451  -3.821 +6.23 -0.00    -0.358 OA
ATOM     57  O16 UNL     1      16.235   8.553   1.556 -0.36 -0.00    -0.271 OA
ATOM     58  N1  UNL     1      20.430   9.750   5.813+99.99 -0.00    -0.348 N 
ATOM     59  N2  UNL     1      21.775   3.284   7.293+99.99 -0.00    -0.357 N 
ATOM     60  N3  UNL     1      20.680   8.993   3.186 -0.16 -0.00    -0.346 N 
ATOM     61  N4  UNL     1      26.087   9.162  -0.064 +4.48 -0.00    -0.357 N 
ATOM     62  N5  UNL     1      18.373  10.128   2.235 -0.17 -0.00    -0.346 N 
ATOM     63  N6  UNL     1      13.290  13.791   1.004+99.99 -0.00    -0.357 N 
ATOM     64  N7  UNL     1      15.225  10.192   0.397 +2.37 -0.00    -0.368 N 
ATOM     65  H37 UNL     1      18.540  -1.322   9.338+99.99+99.99    +0.217 HD
ATOM     66  H38 UNL     1      18.486  -0.156  12.242+99.99+99.99    +0.218 HD
ATOM     67  H39 UNL     1      20.106   2.366  13.036+99.99+99.99    +0.217 HD
ATOM     68  H40 UNL     1      29.677   7.073  -2.647 +0.08 +0.00    +0.217 HD
ATOM     69  H41 UNL     1      31.644   9.291  -3.537 +0.07 +0.00    +0.218 HD
ATOM     70  H42 UNL     1      31.516  12.202  -2.397+52.39 +0.00    +0.217 HD
ATOM     71  H43 UNL     1       7.946  11.300  -0.032+99.99 +0.00    +0.217 HD
ATOM     72  H44 UNL     1       8.559  10.971  -3.083+44.07 +0.00    +0.218 HD
ATOM     73  H45 UNL     1      11.348  11.599  -4.285 +0.89 +0.00    +0.217 HD
ATOM     74  H46 UNL     1      21.013  10.234   6.486+21.53 +0.00    +0.163 HD
ATOM     75  H47 UNL     1      20.979   2.871   6.826 +2.08 +0.00    +0.162 HD
ATOM     76  H48 UNL     1      20.663   9.927   3.578 +0.14 +0.00    +0.163 HD
ATOM     77  H49 UNL     1      26.032   8.888  -1.036 +0.61 +0.00    +0.162 HD
ATOM     78  H50 UNL     1      18.263   9.425   2.966 +0.12 +0.00    +0.163 HD
ATOM     79  H51 UNL     1      12.394  14.139   1.318+99.99 +0.00    +0.162 HD
ATOM     80  H52 UNL     1      14.656   9.491  -0.055 +0.08 +0.00    +0.159 HD
ATOM     81  H53 UNL     1      15.266  11.109  -0.049 +0.06 +0.00    +0.159 HD
ENDROOT
TORSDOF 33
TER
