USER    Run = 1
USER    DPF = ligand_30_receptor.dpf
USER  
USER    Estimated Free Energy of Binding    = +760.98 kcal/mol  [=(1)+(2)+(3)-(4)]
USER    
USER    (1) Final Intermolecular Energy     = +759.79 kcal/mol
USER        vdW + Hbond + desolv Energy     = +759.79 kcal/mol
USER        Electrostatic Energy            =   +0.00 kcal/mol
USER    (2) Final Total Internal Energy     =   -4.85 kcal/mol
USER    (3) Torsional Free Energy           =   +1.19 kcal/mol
USER    (4) Unbound System's Energy  [=(2)] =   -4.85 kcal/mol
USER    
USER    
USER    NEWDPF move ligand_30.pdbqt
USER    NEWDPF about 0.000000 0.000000 0.000000
USER    NEWDPF tran0 14.419649 10.989147 7.392218
USER    NEWDPF quaternion0 0.977704 -0.138749 -0.156323 -0.020158
USER    NEWDPF axisangle0 0.977903 -0.138777 -0.156355 -177.689894
USER    NEWDPF quat0 0.977903 -0.138777 -0.156355 -177.689894
USER    NEWDPF dihe0 -156.30 -180.00 3.51 165.23 0.05 -50.60 -74.46 -176.33 180.00 112.48 -141.50 -141.50 120.52 143.31 152.65 6.87 121.98 104.11 -19.99 -132.50 180.00 113.39 
USER  keepresnum = 1 
USER  
REMARK  22 active torsions:
REMARK  status: ('A' for Active; 'I' for Inactive)
REMARK    1  A    between atoms: C3_3  and  C35_35 
REMARK    2  A    between atoms: C5_5  and  N2_47 
REMARK    3  A    between atoms: C6_6  and  C7_7 
REMARK       I    between atoms: C6_6  and  N2_47 
REMARK    4  A    between atoms: C9_9  and  N4_49 
REMARK       I    between atoms: C11_11  and  N4_49 
REMARK       I    between atoms: C11_11  and  N5_50 
REMARK    5  A    between atoms: C12_12  and  N5_50 
REMARK    6  A    between atoms: C14_14  and  C17_17 
REMARK       I    between atoms: C17_17  and  N7_52 
REMARK    7  A    between atoms: C18_18  and  N7_52 
REMARK    8  A    between atoms: C20_20  and  C23_23 
REMARK       I    between atoms: C23_23  and  N9_54 
REMARK    9  A    between atoms: C24_24  and  N9_54 
REMARK   10  A    between atoms: C25_25  and  S3_81 
REMARK   11  A    between atoms: C29_29  and  S2_80 
REMARK   12  A    between atoms: C31_31  and  S1_79 
REMARK       I    between atoms: C35_35  and  N10_55 
REMARK   13  A    between atoms: C36_36  and  N10_55 
REMARK   14  A    between atoms: C37_37  and  S6_84 
REMARK   15  A    between atoms: C41_41  and  S5_83 
REMARK   16  A    between atoms: C43_43  and  S4_82 
REMARK   17  A    between atoms: O7_62  and  S1_79 
REMARK   18  A    between atoms: O10_65  and  S2_80 
REMARK   19  A    between atoms: O13_68  and  S3_81 
REMARK   20  A    between atoms: O17_72  and  S4_82 
REMARK   21  A    between atoms: O20_75  and  S5_83 
REMARK   22  A    between atoms: O23_78  and  S6_84 
USER                              x       y       z     vdW  Elec       q    Type
USER                           _______ _______ _______ _____ _____    ______ ____
ROOT
ATOM      1  C11 UNL     1      13.940  10.851   7.508 +1.95 +0.00    +0.327 C 
ATOM      2  N4  UNL     1      15.049  11.679   7.383 +3.28 -0.00    -0.294 N 
ATOM      3  N5  UNL     1      12.939  11.525   8.194 +0.22 -0.00    -0.294 N 
ATOM      4  O2  UNL     1      13.859   9.706   7.080 +0.28 -0.00    -0.247 OA
ATOM      5  H30 UNL     1      15.174  12.323   8.153 +0.12 +0.00    +0.172 HD
ATOM      6  H31 UNL     1      12.931  12.525   8.038 +0.00 +0.00    +0.172 HD
ENDROOT
BRANCH   2   7
ATOM      7  C9  UNL     1      16.199  11.359   6.678+11.19 +0.00    +0.111 A 
ATOM      8  C10 UNL     1      16.249  10.523   5.579+14.70 +0.00    +0.067 A 
ATOM      9  C7  UNL     1      17.588  10.470   5.094 +2.38 +0.00    +0.051 A 
ATOM     10  C8  UNL     1      18.331  11.238   5.972+99.99 +0.00    +0.109 A 
ATOM     11  N3  UNL     1      17.494  11.738   6.951+13.39 -0.00    -0.346 N 
ATOM     12  C34 UNL     1      18.006  12.410   8.128+20.49 +0.00    +0.157 C 
BRANCH   9  13
ATOM     13  C6  UNL     1      18.047   9.716   3.920 -0.04 +0.00    +0.258 C 
ATOM     14  N2  UNL     1      19.105  10.308   3.256 +0.38 -0.00    -0.309 N 
ATOM     15  H29 UNL     1      19.279  11.280   3.481 +0.23 +0.00    +0.170 HD
ATOM     16  O1  UNL     1      17.472   8.687   3.587 -0.39 -0.00    -0.267 OA
BRANCH  14  17
ATOM     17  C5  UNL     1      19.748   9.831   2.127 -0.30 +0.00    +0.110 A 
ATOM     18  C4  UNL     1      20.709   8.836   2.142 +2.88 +0.00    +0.067 A 
ATOM     19  C3  UNL     1      21.197   8.627   0.819+22.02 +0.00    +0.051 A 
ATOM     20  C2  UNL     1      20.471   9.495   0.023 +1.32 +0.00    +0.109 A 
ATOM     21  N1  UNL     1      19.563  10.179   0.808 -0.18 -0.00    -0.346 N 
ATOM     22  C1  UNL     1      18.518  10.993   0.221 -0.45 +0.00    +0.157 C 
BRANCH  19  23
ATOM     23  C35 UNL     1      22.253   7.682   0.437 +3.68 +0.00    +0.257 C 
ATOM     24  N10 UNL     1      23.218   7.464   1.408 -0.11 -0.00    -0.321 N 
ATOM     25  H34 UNL     1      23.162   8.067   2.229 +0.12 +0.00    +0.169 HD
ATOM     26  O14 UNL     1      22.251   7.173  -0.682 -0.21 -0.00    -0.267 OA
BRANCH  24  27
ATOM     27  C36 UNL     1      24.331   6.588   1.343 -0.33 +0.00    +0.059 A 
ATOM     28  C37 UNL     1      24.188   5.199   1.417 -0.14 +0.00    +0.100 A 
ATOM     29  C38 UNL     1      25.313   4.357   1.369 +1.68 +0.00    +0.040 A 
ATOM     30  C39 UNL     1      26.608   4.881   1.259 +3.07 -0.00    -0.021 A 
ATOM     31  C40 UNL     1      27.712   4.015   1.230+10.69 +0.00    +0.037 A 
ATOM     32  C44 UNL     1      26.798   6.281   1.173 +0.08 -0.00    -0.000 A 
ATOM     33  C41 UNL     1      29.008   4.526   1.130 +0.84 +0.00    +0.074 A 
ATOM     34  C42 UNL     1      29.232   5.897   1.053 +0.00 +0.00    +0.051 A 
ATOM     35  C43 UNL     1      28.133   6.769   1.081 -0.10 +0.00    +0.085 A 
ATOM     36  C45 UNL     1      25.631   7.089   1.181 -0.37 +0.00    +0.045 A 
BRANCH  28  37
ATOM     37  S6  UNL     1      22.619   4.401   1.597 +1.77 +0.00    +0.132 S 
ATOM     38  O21 UNL     1      22.779   3.012   1.234 +0.95 -0.00    -0.597 OA
ATOM     39  O22 UNL     1      22.041   4.784   2.869+12.15 -0.00    -0.597 OA
BRANCH  37  40
ATOM     40  O23 UNL     1      21.693   5.062   0.454+16.26 -0.00    -0.292 OA
ATOM     41  H40 UNL     1      22.238   5.706  -0.047 +0.18 +0.00    +0.232 HD
ENDBRANCH  37  40
ENDBRANCH  28  37
BRANCH  33  42
ATOM     42  S5  UNL     1      30.377   3.404   1.064 -0.35 +0.00    +0.129 S 
ATOM     43  O18 UNL     1      31.456   3.975   1.842 -0.01 -0.00    -0.598 OA
ATOM     44  O19 UNL     1      30.550   3.012  -0.315 +0.03 -0.00    -0.598 OA
BRANCH  42  45
ATOM     45  O20 UNL     1      29.895   2.109   1.894 -0.40 -0.00    -0.292 OA
ATOM     46  H39 UNL     1      28.949   1.957   1.690 +0.09 +0.00    +0.232 HD
ENDBRANCH  42  45
ENDBRANCH  33  42
BRANCH  35  47
ATOM     47  S4  UNL     1      28.482   8.522   1.042 -0.16 +0.00    +0.130 S 
ATOM     48  O15 UNL     1      27.239   9.221   0.798 +0.09 -0.00    -0.598 OA
ATOM     49  O16 UNL     1      29.305   8.825   2.192 +3.60 -0.00    -0.598 OA
BRANCH  47  50
ATOM     50  O17 UNL     1      29.409   8.730  -0.265 -0.16 -0.00    -0.292 OA
ATOM     51  H38 UNL     1      30.328   8.940   0.020 +0.11 +0.00    +0.232 HD
ENDBRANCH  47  50
ENDBRANCH  35  47
ENDBRANCH  24  27
ENDBRANCH  19  23
ENDBRANCH  14  17
ENDBRANCH   9  13
ENDBRANCH   2   7
BRANCH   3  52
ATOM     52  C12 UNL     1      11.727  10.970   8.572+10.79 +0.00    +0.111 A 
ATOM     53  C13 UNL     1      10.998  10.069   7.819+14.60 +0.00    +0.067 A 
ATOM     54  C14 UNL     1       9.832   9.685   8.545+46.36 +0.00    +0.051 A 
ATOM     55  C15 UNL     1       9.865  10.428   9.713+99.99 +0.00    +0.109 A 
ATOM     56  N6  UNL     1      10.987  11.235   9.701+14.24 -0.00    -0.346 N 
ATOM     57  C16 UNL     1      11.192  12.277  10.687+81.52 +0.00    +0.157 C 
BRANCH  54  58
ATOM     58  C17 UNL     1       8.828   8.713   8.091+93.25 +0.00    +0.258 C 
ATOM     59  N7  UNL     1       9.362   7.586   7.486+31.60 -0.00    -0.309 N 
ATOM     60  H32 UNL     1      10.364   7.532   7.394 +0.48 +0.00    +0.170 HD
ATOM     61  O3  UNL     1       7.633   8.937   8.257+25.68 -0.00    -0.267 OA
BRANCH  59  62
ATOM     62  C18 UNL     1       8.597   6.545   6.986+11.45 +0.00    +0.110 A 
ATOM     63  C19 UNL     1       8.275   6.195   5.688 +2.11 +0.00    +0.067 A 
ATOM     64  C20 UNL     1       7.440   5.038   5.714 -0.30 +0.00    +0.051 A 
ATOM     65  C21 UNL     1       7.298   4.712   7.051 -0.40 +0.00    +0.109 A 
ATOM     66  N8  UNL     1       7.995   5.617   7.806 -0.21 -0.00    -0.346 N 
ATOM     67  C22 UNL     1       8.068   5.573   9.251 +7.23 +0.00    +0.157 C 
BRANCH  64  68
ATOM     68  C23 UNL     1       6.834   4.283   4.615 -0.17 +0.00    +0.257 C 
ATOM     69  N9  UNL     1       7.081   4.811   3.359 -0.04 -0.00    -0.321 N 
ATOM     70  H33 UNL     1       7.326   5.792   3.362 +0.08 +0.00    +0.169 HD
ATOM     71  O4  UNL     1       6.110   3.314   4.817 -0.16 -0.00    -0.267 OA
BRANCH  69  72
ATOM     72  C24 UNL     1       6.574   4.275   2.153 -0.10 +0.00    +0.059 A 
ATOM     73  C25 UNL     1       5.509   4.765   1.398 -0.13 +0.00    +0.100 A 
ATOM     74  C26 UNL     1       5.192   4.168   0.165 -0.15 +0.00    +0.040 A 
ATOM     75  C27 UNL     1       5.896   3.054  -0.318 -0.08 -0.00    -0.021 A 
ATOM     76  C28 UNL     1       5.546   2.504  -1.559 -0.08 +0.00    +0.037 A 
ATOM     77  C32 UNL     1       6.936   2.485   0.455 -0.12 -0.00    -0.000 A 
ATOM     78  C29 UNL     1       6.218   1.385  -2.051 -0.09 +0.00    +0.074 A 
ATOM     79  C30 UNL     1       7.245   0.795  -1.321 -0.13 +0.00    +0.051 A 
ATOM     80  C31 UNL     1       7.593   1.336  -0.075 -0.14 +0.00    +0.085 A 
ATOM     81  C33 UNL     1       7.242   3.123   1.690 -0.14 +0.00    +0.045 A 
BRANCH  73  82
ATOM     82  S3  UNL     1       4.327   5.956   1.986 -0.06 +0.00    +0.132 S 
ATOM     83  O11 UNL     1       2.996   5.476   1.695 +3.35 -0.00    -0.597 OA
ATOM     84  O12 UNL     1       4.775   7.300   1.688 +1.31 -0.00    -0.597 OA
BRANCH  82  85
ATOM     85  O13 UNL     1       4.487   5.877   3.595 -0.12 -0.00    -0.292 OA
ATOM     86  H37 UNL     1       4.301   4.947   3.847 +0.08 +0.00    +0.232 HD
ENDBRANCH  82  85
ENDBRANCH  73  82
BRANCH  78  87
ATOM     87  S2  UNL     1       5.776   0.732  -3.636 -0.14 +0.00    +0.129 S 
ATOM     88  O8  UNL     1       4.825   1.636  -4.243 +0.03 -0.00    -0.598 OA
ATOM     89  O9  UNL     1       7.000   0.340  -4.295 -0.39 -0.00    -0.598 OA
BRANCH  87  90
ATOM     90  O10 UNL     1       4.932  -0.603  -3.307 -0.02 -0.00    -0.292 OA
ATOM     91  H36 UNL     1       4.086  -0.546  -3.802 +0.05 +0.00    +0.232 HD
ENDBRANCH  87  90
ENDBRANCH  78  87
BRANCH  80  92
ATOM     92  S1  UNL     1       8.886   0.513   0.831 -0.24 +0.00    +0.130 S 
ATOM     93  O5  UNL     1       8.715   0.798   2.240 +3.90 -0.00    -0.598 OA
ATOM     94  O6  UNL     1       8.982  -0.841   0.336 +0.02 -0.00    -0.598 OA
BRANCH  92  95
ATOM     95  O7  UNL     1      10.235   1.296   0.420 -0.23 -0.00    -0.292 OA
ATOM     96  H35 UNL     1      10.246   2.144   0.916 -0.42 +0.00    +0.232 HD
ENDBRANCH  92  95
ENDBRANCH  80  92
ENDBRANCH  69  72
ENDBRANCH  64  68
ENDBRANCH  59  62
ENDBRANCH  54  58
ENDBRANCH   3  52
TORSDOF 22
TER
