USER    Run = 1
USER    DPF = ligand_20_receptor.dpf
USER  
USER    Estimated Free Energy of Binding    =  +1.38e+004 kcal/mol  [=(1)+(2)+(3)-(4)]
USER    
USER    (1) Final Intermolecular Energy     =  +1.38e+004 kcal/mol
USER        vdW + Hbond + desolv Energy     =  +1.38e+004 kcal/mol
USER        Electrostatic Energy            =   +0.00 kcal/mol
USER    (2) Final Total Internal Energy     =   +0.00 kcal/mol
USER    (3) Torsional Free Energy           =   +1.19 kcal/mol
USER    (4) Unbound System's Energy  [=(2)] =   +0.00 kcal/mol
USER    
USER    
USER    NEWDPF move ligand_20.pdbqt
USER    NEWDPF about 0.000000 0.000000 0.000000
USER    NEWDPF tran0 16.193397 6.716206 3.105730
USER    NEWDPF quaternion0 0.927066 0.351044 -0.030393 -0.128035
USER    NEWDPF axisangle0 0.934759 0.353957 -0.030645 -165.287840
USER    NEWDPF quat0 0.934759 0.353957 -0.030645 -165.287840
USER  keepresnum = 1 
USER  
REMARK  0 active torsions:
REMARK  status: ('A' for Active; 'I' for Inactive)
REMARK       I    between atoms: C2_2  and  C4_4 
REMARK       I    between atoms: C4_4  and  O1_60 
REMARK       I    between atoms: C5_5  and  O1_60 
REMARK       I    between atoms: C7_7  and  C45_45 
REMARK       I    between atoms: C8_8  and  C10_10 
REMARK       I    between atoms: C10_10  and  N2_75 
REMARK       I    between atoms: C11_11  and  N2_75 
REMARK       I    between atoms: C13_13  and  O9_68 
REMARK       I    between atoms: C15_15  and  N4_78 
REMARK       I    between atoms: C16_16  and  C17_17 
REMARK       I    between atoms: C16_16  and  N4_78 
REMARK       I    between atoms: C19_19  and  O8_67 
REMARK       I    between atoms: C21_21  and  C22_22 
REMARK       I    between atoms: C22_22  and  O7_66 
REMARK       I    between atoms: C22_22  and  N6_81 
REMARK       I    between atoms: C23_23  and  N6_81 
REMARK       I    between atoms: C24_24  and  N8_85 
REMARK       I    between atoms: C26_26  and  O4_63 
REMARK       I    between atoms: C28_28  and  C29_29 
REMARK       I    between atoms: C28_28  and  O4_63 
REMARK       I    between atoms: C32_32  and  O5_64 
REMARK       I    between atoms: C32_32  and  O6_65 
REMARK       I    between atoms: C32_32  and  N8_85 
REMARK       I    between atoms: C33_33  and  O6_65 
REMARK       I    between atoms: C37_37  and  C38_38 
REMARK       I    between atoms: C37_37  and  O8_67 
REMARK       I    between atoms: C41_41  and  C42_42 
REMARK       I    between atoms: C41_41  and  O9_68 
REMARK       I    between atoms: C45_45  and  O13_72 
REMARK       I    between atoms: C45_45  and  N9_87 
REMARK       I    between atoms: C46_46  and  N9_87 
REMARK       I    between atoms: C47_47  and  N11_91 
REMARK       I    between atoms: C49_49  and  O10_69 
REMARK       I    between atoms: C51_51  and  C52_52 
REMARK       I    between atoms: C51_51  and  O10_69 
REMARK       I    between atoms: C55_55  and  O11_70 
REMARK       I    between atoms: C55_55  and  O12_71 
REMARK       I    between atoms: C55_55  and  N11_91 
REMARK       I    between atoms: C56_56  and  O12_71 
USER                              x       y       z     vdW  Elec       q    Type
USER                           _______ _______ _______ _____ _____    ______ ____
ROOT
ATOM      1  C1  UNL     1       5.842   3.161  -3.235 -0.14 +0.00    +0.011 C 
ATOM      2  C2  UNL     1       5.364   4.313  -2.351 +1.66 +0.00    +0.002 C 
ATOM      3  C3  UNL     1       3.976   4.010  -1.791 -0.13 +0.00    +0.011 C 
ATOM      4  C4  UNL     1       6.353   4.592  -1.209 +0.72 +0.00    +0.179 C 
ATOM      5  C5  UNL     1       8.630   5.253  -0.906 -0.12 +0.00    +0.073 A 
ATOM      6  C6  UNL     1       8.556   5.219   0.483 -0.12 +0.00    +0.070 A 
ATOM      7  C7  UNL     1       9.702   5.517   1.213 -0.14 +0.00    +0.087 A 
ATOM      8  C8  UNL     1      10.929   5.860  -0.714 -0.25 +0.00    +0.104 A 
ATOM      9  C9  UNL     1       9.836   5.583  -1.519 -0.17 +0.00    +0.072 A 
ATOM     10  C10 UNL     1      12.257   6.206  -1.319 -0.25 +0.00    +0.273 C 
ATOM     11  C11 UNL     1      14.582   6.704  -0.547 +3.16 +0.00    +0.112 A 
ATOM     12  C12 UNL     1      15.189   6.894  -1.776+16.28 +0.00    +0.085 A 
ATOM     13  C13 UNL     1      16.554   7.163  -1.811 +1.64 +0.00    +0.075 A 
ATOM     14  C14 UNL     1      17.256   7.261  -0.615+25.03 +0.00    +0.085 A 
ATOM     15  C15 UNL     1      16.570   7.061   0.576 +9.77 +0.00    +0.112 A 
ATOM     16  C16 UNL     1      16.851   6.937   3.037 +2.97 +0.00    +0.273 C 
ATOM     17  C17 UNL     1      17.956   7.039   4.046 +6.63 +0.00    +0.104 A 
ATOM     18  C18 UNL     1      17.722   6.771   5.387+99.99 +0.00    +0.072 A 
ATOM     19  C19 UNL     1      18.802   6.852   6.259+99.99 +0.00    +0.073 A 
ATOM     20  C20 UNL     1      20.060   7.200   5.766+99.99 +0.00    +0.070 A 
ATOM     21  C21 UNL     1      20.196   7.460   4.411+50.23 +0.00    +0.087 A 
ATOM     22  C22 UNL     1      21.519   7.839   3.843+61.98 +0.00    +0.169 C 
ATOM     23  C23 UNL     1      23.856   8.131   3.914 +1.58 +0.00    +0.111 A 
ATOM     24  C24 UNL     1      25.137   8.396   2.012 -0.39 +0.00    +0.112 A 
ATOM     25  C25 UNL     1      26.231   8.819   2.748 -0.53 +0.00    +0.085 A 
ATOM     26  C26 UNL     1      26.116   8.877   4.131 +2.89 +0.00    +0.075 A 
ATOM     27  C27 UNL     1      24.907   8.522   4.722 +1.01 +0.00    +0.085 A 
ATOM     28  C28 UNL     1      28.352   9.652   4.454+99.99 +0.00    +0.179 C 
ATOM     29  C29 UNL     1      29.293  10.049   5.600+99.99 +0.00    +0.002 C 
ATOM     30  C30 UNL     1      30.691  10.351   5.062+99.17 +0.00    +0.011 C 
ATOM     31  C31 UNL     1      28.752  11.252   6.376+36.62 +0.00    +0.011 C 
ATOM     32  C32 UNL     1      24.536   7.525  -0.079 -0.31 +0.00    +0.264 C 
ATOM     33  C33 UNL     1      25.333   8.335  -2.265+99.99 +0.00    +0.060 C 
ATOM     34  C34 UNL     1      24.870   9.788  -2.111+99.99 +0.00    +0.046 C 
ATOM     35  C35 UNL     1      26.837   8.179  -2.010+99.99 +0.00    +0.046 C 
ATOM     36  C36 UNL     1      25.030   7.876  -3.700+99.99 +0.00    +0.046 C 
ATOM     37  C37 UNL     1      17.495   6.265   8.171+99.99 +0.00    +0.179 C 
ATOM     38  C38 UNL     1      17.646   6.026   9.682+99.99 +0.00    +0.002 C 
ATOM     39  C39 UNL     1      18.145   7.282  10.397+99.99 +0.00    +0.011 C 
ATOM     40  C40 UNL     1      18.582   4.852   9.968+99.99 +0.00    +0.011 C 
ATOM     41  C41 UNL     1      18.499   7.235  -3.220+28.30 +0.00    +0.179 C 
ATOM     42  C42 UNL     1      19.170   8.617  -3.175+99.99 +0.00    +0.002 C 
ATOM     43  C43 UNL     1      18.660   9.518  -4.301+48.15 +0.00    +0.011 C 
ATOM     44  C44 UNL     1      20.689   8.473  -3.254+99.99 +0.00    +0.011 C 
ATOM     45  C45 UNL     1       9.654   5.497   2.704 -0.16 +0.00    +0.169 C 
ATOM     46  C46 UNL     1       8.593   5.217   4.784 -0.20 +0.00    +0.111 A 
ATOM     47  C47 UNL     1       9.725   4.899   6.765 -0.31 +0.00    +0.112 A 
ATOM     48  C48 UNL     1       8.609   5.248   7.504 -0.38 +0.00    +0.085 A 
ATOM     49  C49 UNL     1       7.435   5.575   6.835 -0.17 +0.00    +0.075 A 
ATOM     50  C50 UNL     1       7.424   5.556   5.448 -0.15 +0.00    +0.085 A 
ATOM     51  C51 UNL     1       5.145   6.233   7.013 -0.31 +0.00    +0.179 C 
ATOM     52  C52 UNL     1       4.103   6.547   8.097 +3.65 +0.00    +0.002 C 
ATOM     53  C53 UNL     1       3.833   5.326   8.981+99.99 +0.00    +0.011 C 
ATOM     54  C54 UNL     1       2.805   7.038   7.461 -0.24 +0.00    +0.011 C 
ATOM     55  C55 UNL     1      11.761   3.753   6.941 -0.26 +0.00    +0.264 C 
ATOM     56  C56 UNL     1      13.356   3.935   8.809 +0.72 +0.00    +0.060 C 
ATOM     57  C57 UNL     1      13.603   5.444   8.707 -0.02 +0.00    +0.046 C 
ATOM     58  C58 UNL     1      12.386   3.584   9.942+25.08 +0.00    +0.046 C 
ATOM     59  C59 UNL     1      14.698   3.237   9.083+99.99 +0.00    +0.046 C 
ATOM     60  O1  UNL     1       7.604   4.991  -1.772 +0.36 -0.00    -0.351 OA
ATOM     61  O2  UNL     1      12.379   6.277  -2.536 -0.29 -0.00    -0.266 OA
ATOM     62  O3  UNL     1      15.713   6.683   3.411 +8.17 -0.00    -0.266 OA
ATOM     63  O4  UNL     1      27.093   9.260   5.006+99.99 -0.00    -0.351 OA
ATOM     64  O5  UNL     1      23.690   6.600   0.405 -0.28 -0.00    -0.327 OA
ATOM     65  O6  UNL     1      24.558   7.440  -1.425 -0.31 -0.00    -0.306 OA
ATOM     66  O7  UNL     1      21.396   8.268   2.567 +1.03 -0.00    -0.344 OA
ATOM     67  O8  UNL     1      18.762   6.615   7.606+99.99 -0.00    -0.351 OA
ATOM     68  O9  UNL     1      17.081   7.337  -3.062 -0.71 -0.00    -0.351 OA
ATOM     69  O10 UNL     1       6.381   5.895   7.646 -0.29 -0.00    -0.351 OA
ATOM     70  O11 UNL     1      11.646   3.107   5.769 -0.20 -0.00    -0.327 OA
ATOM     71  O12 UNL     1      12.912   3.386   7.540 -0.05 -0.00    -0.306 OA
ATOM     72  O13 UNL     1      10.842   5.841   3.241 -0.14 -0.00    -0.344 OA
ATOM     73  N1  UNL     1      10.887   5.835   0.641 -0.12 -0.00    -0.348 N 
ATOM     74  H1  UNL     1      11.712   6.045   1.204 +0.04 +0.00    +0.166 HD
ATOM     75  N2  UNL     1      13.235   6.405  -0.375 -0.32 -0.00    -0.307 N 
ATOM     76  N3  UNL     1      15.258   6.787   0.614+99.99 -0.00    -0.328 N 
ATOM     77  H3  UNL     1      14.783   6.644   1.505+99.99 +0.00    +0.169 HD
ATOM     78  N4  UNL     1      17.311   7.146   1.755 +0.32 -0.00    -0.307 N 
ATOM     79  N5  UNL     1      19.166   7.383   3.536 +0.58 -0.00    -0.348 N 
ATOM     80  H5  UNL     1      19.292   7.574   2.542 +0.59 +0.00    +0.166 HD
ATOM     81  N6  UNL     1      22.636   7.772   4.492+99.99 -0.00    -0.321 N 
ATOM     82  H6  UNL     1      22.625   7.446   5.458+99.99 +0.00    +0.169 HD
ATOM     83  N7  UNL     1      23.954   8.051   2.567 -0.09 -0.00    -0.328 N 
ATOM     84  H7  UNL     1      23.168   7.744   1.994 +0.12 +0.00    +0.169 HD
ATOM     85  N8  UNL     1      25.219   8.360   0.621 -0.17 -0.00    -0.302 N 
ATOM     86  H8  UNL     1      25.839   9.016   0.145 +0.14 +0.00    +0.171 HD
ATOM     87  N9  UNL     1       8.596   5.195   3.387 -0.06 -0.00    -0.321 N 
ATOM     88  H9  UNL     1       7.743   4.936   2.893 +0.08 +0.00    +0.169 HD
ATOM     89  N10 UNL     1       9.741   4.878   5.414 -0.10 -0.00    -0.328 N 
ATOM     90  H10 UNL     1      10.579   4.620   4.894 +0.10 +0.00    +0.169 HD
ATOM     91  N11 UNL     1      10.909   4.585   7.428 -0.20 -0.00    -0.302 N 
ATOM     92  H11 UNL     1      11.106   5.027   8.325 +0.13 +0.00    +0.171 HD
ATOM     93  H74 UNL     1      23.619   6.704   1.370 +0.17 +0.00    +0.221 HD
ATOM     94  H75 UNL     1      22.278   8.473   2.204 +0.16 +0.00    +0.219 HD
ATOM     95  H76 UNL     1      10.874   3.455   5.289 +0.13 +0.00    +0.221 HD
ATOM     96  H77 UNL     1      10.824   5.737   4.209 +0.13 +0.00    +0.219 HD
ATOM     97  H78 UNL     1      12.965   6.299   0.602 -0.01 +0.00    +0.170 HD
ATOM     98  H79 UNL     1      18.304   7.353   1.689 +0.47 +0.00    +0.170 HD
ENDROOT
TORSDOF 37
TER
