USER    Run = 1
USER    DPF = ligand_92_receptor.dpf
USER  
USER    Estimated Free Energy of Binding    = +645.52 kcal/mol  [=(1)+(2)+(3)-(4)]
USER    
USER    (1) Final Intermolecular Energy     = +644.33 kcal/mol
USER        vdW + Hbond + desolv Energy     = +644.33 kcal/mol
USER        Electrostatic Energy            =   +0.00 kcal/mol
USER    (2) Final Total Internal Energy     =   +1.65 kcal/mol
USER    (3) Torsional Free Energy           =   +1.19 kcal/mol
USER    (4) Unbound System's Energy  [=(2)] =   +1.65 kcal/mol
USER    
USER    
USER    NEWDPF move ligand_92.pdbqt
USER    NEWDPF about 0.000000 0.000000 0.000000
USER    NEWDPF tran0 14.182871 6.755227 1.609559
USER    NEWDPF quaternion0 -0.150474 0.715582 -0.681955 -0.015407
USER    NEWDPF axisangle0 -0.150492 0.715667 -0.682036 -178.234448
USER    NEWDPF quat0 -0.150492 0.715667 -0.682036 -178.234448
USER    NEWDPF dihe0 138.72 113.18 167.74 -82.35 180.00 -48.17 88.94 -180.00 85.68 -86.89 110.90 157.62 107.68 148.08 155.42 180.00 
USER  keepresnum = 1 
USER  
REMARK  16 active torsions:
REMARK  status: ('A' for Active; 'I' for Inactive)
REMARK    1  A    between atoms: C3_3  and  O2_66 
REMARK    2  A    between atoms: C6_6  and  C7_7 
REMARK    3  A    between atoms: C7_7  and  O1_65 
REMARK    4  A    between atoms: C8_8  and  O2_66 
REMARK    5  A    between atoms: C22_22  and  O5_69 
REMARK    6  A    between atoms: C33_33  and  O3_67 
REMARK    7  A    between atoms: C35_35  and  O3_67 
REMARK    8  A    between atoms: C38_38  and  C41_41 
REMARK    9  A    between atoms: C41_41  and  O4_68 
REMARK   10  A    between atoms: C45_45  and  O5_69 
REMARK   11  A    between atoms: C48_48  and  C51_51 
REMARK   12  A    between atoms: C51_51  and  O6_70 
REMARK   13  A    between atoms: C55_55  and  O7_71 
REMARK   14  A    between atoms: C58_58  and  O7_71 
REMARK   15  A    between atoms: C61_61  and  C64_64 
REMARK   16  A    between atoms: C64_64  and  O8_72 
USER                              x       y       z     vdW  Elec       q    Type
USER                           _______ _______ _______ _____ _____    ______ ____
ROOT
ATOM      1  C8  UNL     1       9.566   4.912  -2.666 -0.17 +0.00    +0.077 A 
ATOM      2  C9  UNL     1      10.868   5.467  -2.680 -0.17 +0.00    +0.052 A 
ATOM      3  C10 UNL     1      11.261   5.822  -1.391 -0.31 +0.00    +0.006 A 
ATOM      4  C11 UNL     1      10.451   5.681  -0.217 -0.26 +0.00    +0.003 A 
ATOM      5  C12 UNL     1       9.154   5.172  -0.198 -0.16 +0.00    +0.017 A 
ATOM      6  C13 UNL     1       8.740   4.790  -1.494 -0.13 +0.00    +0.038 A 
ATOM      7  C14 UNL     1      11.183   6.137   0.853 -0.29 +0.00    +0.046 A 
ATOM      8  C15 UNL     1      10.735   6.235   2.350 -0.30 +0.00    +0.060 C 
ATOM      9  C16 UNL     1      11.603   6.453   3.358 -0.30 +0.00    +0.046 A 
ATOM     10  C17 UNL     1      13.398   6.820   4.640 -0.41 +0.00    +0.046 A 
ATOM     11  C18 UNL     1      14.633   7.035   5.134 -0.46 +0.00    +0.060 C 
ATOM     12  C19 UNL     1      15.908   7.105   4.228 +1.61 +0.00    +0.046 A 
ATOM     13  C20 UNL     1      17.224   7.063   4.621 +7.12 +0.00    +0.006 A 
ATOM     14  C21 UNL     1      17.713   6.919   5.918+90.88 +0.00    +0.052 A 
ATOM     15  C22 UNL     1      19.128   6.885   5.914+99.99 +0.00    +0.077 A 
ATOM     16  C23 UNL     1      19.948   7.041   4.742+39.70 +0.00    +0.038 A 
ATOM     17  C24 UNL     1      19.430   7.202   3.436 +9.47 +0.00    +0.017 A 
ATOM     18  C25 UNL     1      18.036   7.195   3.447 +0.31 +0.00    +0.003 A 
ATOM     19  C26 UNL     1      17.194   7.315   2.368 +0.02 +0.00    +0.046 A 
ATOM     20  C27 UNL     1      17.583   7.524   0.865+14.41 +0.00    +0.060 C 
ATOM     21  C28 UNL     1      16.703   7.373  -0.144 +2.14 +0.00    +0.046 A 
ATOM     22  C29 UNL     1      17.125   7.597  -1.536 +1.06 +0.00    +0.006 A 
ATOM     23  C30 UNL     1      16.007   7.371  -2.334+19.10 +0.00    +0.003 A 
ATOM     24  C31 UNL     1      16.079   7.503  -3.719 +1.99 +0.00    +0.017 A 
ATOM     25  C32 UNL     1      17.289   7.886  -4.299 +0.26 +0.00    +0.038 A 
ATOM     26  C33 UNL     1      18.403   8.138  -3.484 +9.69 +0.00    +0.077 A 
ATOM     27  C34 UNL     1      18.339   7.971  -2.100 +3.50 +0.00    +0.052 A 
ATOM     28  C42 UNL     1      14.907   7.011  -1.426 +6.96 +0.00    +0.046 A 
ATOM     29  C43 UNL     1      13.682   6.737  -1.919 +8.80 +0.00    +0.060 C 
ATOM     30  C44 UNL     1      12.467   6.358  -1.006 -0.41 +0.00    +0.046 A 
ATOM     31  C52 UNL     1      12.236   6.777   5.544 -0.38 +0.00    +0.003 A 
ATOM     32  C53 UNL     1      11.119   6.549   4.746 -0.32 +0.00    +0.006 A 
ATOM     33  C54 UNL     1       9.849   6.464   5.305 -0.14 +0.00    +0.052 A 
ATOM     34  C55 UNL     1       9.719   6.639   6.683 +0.95 +0.00    +0.077 A 
ATOM     35  C56 UNL     1      10.842   6.843   7.498 +8.63 +0.00    +0.038 A 
ATOM     36  C57 UNL     1      12.113   6.918   6.924 -0.37 +0.00    +0.017 A 
ATOM     37  N1  UNL     1      12.956   6.624   3.364 -0.15 -0.00    -0.355 N 
ATOM     38  H1  UNL     1      13.551   6.607   2.536 -0.37 +0.00    +0.166 HD
ATOM     39  N2  UNL     1      15.903   7.217   2.850 +3.11 -0.00    -0.355 N 
ATOM     40  N3  UNL     1      15.382   7.031  -0.147 +3.27 -0.00    -0.355 N 
ATOM     41  H3  UNL     1      14.830   6.822   0.685+20.27 +0.00    +0.166 HD
ATOM     42  N4  UNL     1      12.422   6.509   0.367 -0.28 -0.00    -0.355 N 
ATOM     43  H45 UNL     1      15.066   7.205   2.271 +0.78 +0.00    +0.166 HD
ATOM     44  H46 UNL     1      13.200   6.825   0.940 -0.13 +0.00    +0.166 HD
ENDROOT
BRANCH   1  45
ATOM     45  O2  UNL     1       8.983   4.482  -3.850 -0.14 -0.00    -0.311 OA
BRANCH  45  46
ATOM     46  C3  UNL     1       7.865   3.680  -3.753 -0.09 +0.00    +0.076 A 
ATOM     47  C2  UNL     1       8.060   2.426  -3.176 +0.14 +0.00    +0.038 A 
ATOM     48  C1  UNL     1       6.992   1.533  -3.055 -0.11 +0.00    +0.012 A 
ATOM     49  C6  UNL     1       5.716   1.889  -3.515 -0.09 -0.00    -0.035 A 
ATOM     50  C5  UNL     1       5.535   3.140  -4.120 -0.13 +0.00    +0.012 A 
ATOM     51  C4  UNL     1       6.605   4.029  -4.243 -0.04 +0.00    +0.038 A 
BRANCH  49  52
ATOM     52  C7  UNL     1       4.571   0.920  -3.399 -0.04 +0.00    +0.202 C 
BRANCH  52  53
ATOM     53  O1  UNL     1       3.732   1.274  -2.304 -0.03 -0.00    -0.396 OA
ATOM     54  H41 UNL     1       2.849   1.451  -2.672 +0.03 +0.00    +0.209 HD
ENDBRANCH  52  53
ENDBRANCH  49  52
ENDBRANCH  45  46
ENDBRANCH   1  45
BRANCH  34  55
ATOM     55  O7  UNL     1       8.459   6.564   7.232 +2.90 -0.00    -0.311 OA
BRANCH  55  56
ATOM     56  C58 UNL     1       7.575   5.685   6.643 +0.11 +0.00    +0.076 A 
ATOM     57  C59 UNL     1       7.238   5.702   5.287 -0.11 +0.00    +0.038 A 
ATOM     58  C60 UNL     1       6.353   4.750   4.773 -0.25 +0.00    +0.012 A 
ATOM     59  C61 UNL     1       5.801   3.768   5.608 -0.24 -0.00    -0.035 A 
ATOM     60  C62 UNL     1       6.166   3.742   6.961 -0.23 +0.00    +0.012 A 
ATOM     61  C63 UNL     1       7.050   4.694   7.474 -0.34 +0.00    +0.038 A 
BRANCH  59  62
ATOM     62  C64 UNL     1       4.869   2.726   5.055 -0.11 +0.00    +0.202 C 
BRANCH  62  63
ATOM     63  O8  UNL     1       5.467   2.061   3.947 -0.16 -0.00    -0.396 OA
ATOM     64  H44 UNL     1       5.904   1.264   4.298 -0.30 +0.00    +0.209 HD
ENDBRANCH  62  63
ENDBRANCH  59  62
ENDBRANCH  55  56
ENDBRANCH  34  55
BRANCH  26  65
ATOM     65  O3  UNL     1      19.605   8.516  -4.038+24.39 -0.00    -0.311 OA
BRANCH  65  66
ATOM     66  C35 UNL     1      20.742   7.925  -3.528+65.10 +0.00    +0.076 A 
ATOM     67  C36 UNL     1      21.846   7.554  -4.299+52.15 +0.00    +0.038 A 
ATOM     68  C37 UNL     1      22.968   6.987  -3.689+17.51 +0.00    +0.012 A 
ATOM     69  C38 UNL     1      22.999   6.791  -2.301 +2.46 -0.00    -0.035 A 
ATOM     70  C39 UNL     1      21.897   7.191  -1.532 +0.66 +0.00    +0.012 A 
ATOM     71  C40 UNL     1      20.777   7.757  -2.143 +6.54 +0.00    +0.038 A 
BRANCH  69  72
ATOM     72  C41 UNL     1      24.214   6.205  -1.636 -0.42 +0.00    +0.202 C 
BRANCH  72  73
ATOM     73  O4  UNL     1      23.930   5.877  -0.281 -0.26 -0.00    -0.396 OA
ATOM     74  H42 UNL     1      24.472   5.100  -0.057 +0.15 +0.00    +0.209 HD
ENDBRANCH  72  73
ENDBRANCH  69  72
ENDBRANCH  65  66
ENDBRANCH  26  65
BRANCH  15  75
ATOM     75  O5  UNL     1      19.821   6.739   7.107+34.27 -0.00    -0.311 OA
BRANCH  75  76
ATOM     76  C45 UNL     1      20.728   7.721   7.440+19.26 +0.00    +0.076 A 
ATOM     77  C46 UNL     1      21.636   7.625   8.497 +0.25 +0.00    +0.038 A 
ATOM     78  C47 UNL     1      22.535   8.665   8.744+16.16 +0.00    +0.012 A 
ATOM     79  C48 UNL     1      22.545   9.806   7.931 +8.81 -0.00    -0.035 A 
ATOM     80  C49 UNL     1      21.652   9.880   6.853 +8.59 +0.00    +0.012 A 
ATOM     81  C50 UNL     1      20.751   8.842   6.609+12.51 +0.00    +0.038 A 
BRANCH  79  82
ATOM     82  C51 UNL     1      23.525  10.918   8.182 +8.42 +0.00    +0.202 C 
BRANCH  82  83
ATOM     83  O6  UNL     1      23.075  11.742   9.253 -0.36 -0.00    -0.396 OA
ATOM     84  H43 UNL     1      22.689  12.540   8.851 -0.14 +0.00    +0.209 HD
ENDBRANCH  82  83
ENDBRANCH  79  82
ENDBRANCH  75  76
ENDBRANCH  15  75
TORSDOF 16
TER
