USER    Run = 1
USER    DPF = ligand_530_receptor.dpf
USER  
USER    Estimated Free Energy of Binding    =  +1.99e+006 kcal/mol  [=(1)+(2)+(3)-(4)]
USER    
USER    (1) Final Intermolecular Energy     =  +1.99e+006 kcal/mol
USER        vdW + Hbond + desolv Energy     =  +1.40e+006 kcal/mol
USER        Electrostatic Energy            =  +5.91e+005 kcal/mol
USER    (2) Final Total Internal Energy     =   +0.00 kcal/mol
USER    (3) Torsional Free Energy           =   +1.19 kcal/mol
USER    (4) Unbound System's Energy  [=(2)] =   +0.00 kcal/mol
USER    
USER    
USER    NEWDPF move ligand_530.pdbqt
USER    NEWDPF about 0.000000 0.000000 0.000000
USER    NEWDPF tran0 15.656786 6.034333 2.861893
USER    NEWDPF quaternion0 0.234775 -0.102392 0.187330 -0.948316
USER    NEWDPF axisangle0 0.739853 -0.322670 0.590340 -37.002602
USER    NEWDPF quat0 0.739853 -0.322670 0.590340 -37.002602
USER  keepresnum = 1 
USER  
REMARK  0 active torsions:
REMARK  status: ('A' for Active; 'I' for Inactive)
REMARK       I    between atoms: C2_2  and  C3_3 
REMARK       I    between atoms: C3_3  and  C5_5 
REMARK       I    between atoms: C5_5  and  C6_6 
REMARK       I    between atoms: C5_5  and  N15_92 
REMARK       I    between atoms: C6_6  and  N1_76 
REMARK       I    between atoms: C7_7  and  C8_8 
REMARK       I    between atoms: C7_7  and  C11_11 
REMARK       I    between atoms: C7_7  and  N1_76 
REMARK       I    between atoms: C11_11  and  N2_77 
REMARK       I    between atoms: C12_12  and  C13_13 
REMARK       I    between atoms: C12_12  and  C16_16 
REMARK       I    between atoms: C12_12  and  N2_77 
REMARK       I    between atoms: C16_16  and  N3_78 
REMARK       I    between atoms: C17_17  and  C18_18 
REMARK       I    between atoms: C17_17  and  C22_22 
REMARK       I    between atoms: C17_17  and  N3_78 
REMARK       I    between atoms: C18_18  and  C20_20 
REMARK       I    between atoms: C22_22  and  N4_79 
REMARK       I    between atoms: C23_23  and  C24_24 
REMARK       I    between atoms: C23_23  and  C28_28 
REMARK       I    between atoms: C23_23  and  N4_79 
REMARK       I    between atoms: C24_24  and  C25_25 
REMARK       I    between atoms: C25_25  and  C26_26 
REMARK       I    between atoms: C26_26  and  N5_80 
REMARK       I    between atoms: C27_27  and  N6_82 
REMARK       I    between atoms: C27_27  and  N7_83 
REMARK       I    between atoms: C28_28  and  N8_84 
REMARK       I    between atoms: C29_29  and  C30_30 
REMARK       I    between atoms: C29_29  and  C33_33 
REMARK       I    between atoms: C29_29  and  N8_84 
REMARK       I    between atoms: C33_33  and  N9_85 
REMARK       I    between atoms: C34_34  and  C36_36 
REMARK       I    between atoms: C34_34  and  N9_85 
REMARK       I    between atoms: C36_36  and  N10_86 
REMARK       I    between atoms: C37_37  and  C38_38 
REMARK       I    between atoms: C37_37  and  C42_42 
REMARK       I    between atoms: C37_37  and  N10_86 
REMARK       I    between atoms: C38_38  and  C39_39 
REMARK       I    between atoms: C39_39  and  C40_40 
REMARK       I    between atoms: C40_40  and  N11_87 
REMARK       I    between atoms: C41_41  and  N12_89 
REMARK       I    between atoms: C41_41  and  N13_90 
REMARK       I    between atoms: C42_42  and  N14_91 
REMARK       I    between atoms: C43_43  and  C44_44 
REMARK       I    between atoms: C43_43  and  N15_92 
REMARK       I    between atoms: C44_44  and  C45_45 
REMARK       I    between atoms: C44_44  and  N19_97 
REMARK       I    between atoms: C45_45  and  C46_46 
REMARK       I    between atoms: C46_46  and  C47_47 
REMARK       I    between atoms: C47_47  and  N16_93 
REMARK       I    between atoms: C48_48  and  N17_95 
REMARK       I    between atoms: C48_48  and  N18_96 
REMARK       I    between atoms: C49_49  and  C50_50 
REMARK       I    between atoms: C49_49  and  N19_97 
REMARK       I    between atoms: C50_50  and  N20_98 
REMARK       I    between atoms: C52_52  and  C53_53 
REMARK       I    between atoms: C52_52  and  N20_98 
REMARK       I    between atoms: C53_53  and  C54_54 
REMARK       I    between atoms: C53_53  and  N24_103 
REMARK       I    between atoms: C54_54  and  C55_55 
REMARK       I    between atoms: C55_55  and  C56_56 
REMARK       I    between atoms: C56_56  and  N21_99 
REMARK       I    between atoms: C57_57  and  N22_101 
REMARK       I    between atoms: C57_57  and  N23_102 
REMARK       I    between atoms: C58_58  and  C59_59 
REMARK       I    between atoms: C58_58  and  N24_103 
REMARK       I    between atoms: C59_59  and  C60_60 
REMARK       I    between atoms: C59_59  and  N28_108 
REMARK       I    between atoms: C60_60  and  C61_61 
REMARK       I    between atoms: C61_61  and  C62_62 
REMARK       I    between atoms: C62_62  and  N25_104 
REMARK       I    between atoms: C63_63  and  N25_104 
REMARK       I    between atoms: C63_63  and  N26_106 
USER                              x       y       z     vdW  Elec       q    Type
USER                           _______ _______ _______ _____ _____    ______ ____
ROOT
ATOM      1  C1  UNL     1      19.122   5.379   6.550+99.99 +0.00    +0.005 C 
ATOM      2  C2  UNL     1      18.227   6.492   7.078+99.99 +0.00    +0.002 C 
ATOM      3  C3  UNL     1      18.606   7.899   6.567+99.99 +0.00    +0.013 C 
ATOM      4  C4  UNL     1      17.791   8.949   7.335+99.99 +0.00    +0.012 C 
ATOM      5  C5  UNL     1      18.505   8.059   5.031 +9.63 +0.00    +0.180 C 
ATOM      6  C6  UNL     1      17.045   8.096   4.526 -0.10 +0.00    +0.241 C 
ATOM      7  C7  UNL     1      15.128   6.675   3.808 +6.38 +0.00    +0.180 C 
ATOM      8  C8  UNL     1      14.770   7.313   2.442+28.72 +0.00    +0.009 C 
ATOM      9  C9  UNL     1      13.275   7.190   2.139 +0.57 +0.00    +0.012 C 
ATOM     10  C10 UNL     1      15.583   6.770   1.262+99.99 +0.00    +0.012 C 
ATOM     11  C11 UNL     1      14.825   5.161   3.859+99.99 +0.00    +0.241 C 
ATOM     12  C12 UNL     1      15.733   2.899   3.288+99.99 +0.00    +0.180 C 
ATOM     13  C13 UNL     1      15.326   2.142   4.574+99.99 +0.00    +0.009 C 
ATOM     14  C14 UNL     1      16.244   2.506   5.748+99.99 +0.00    +0.012 C 
ATOM     15  C15 UNL     1      15.378   0.624   4.352+28.55 +0.00    +0.012 C 
ATOM     16  C16 UNL     1      14.853   2.611   2.049+99.99 +0.00    +0.241 C 
ATOM     17  C17 UNL     1      12.542   2.544   1.151+99.99 +0.00    +0.180 C 
ATOM     18  C18 UNL     1      12.349   1.057   0.750+46.28 +0.00    +0.013 C 
ATOM     19  C19 UNL     1      11.667   0.242   1.858 +3.30 +0.00    +0.012 C 
ATOM     20  C20 UNL     1      11.600   0.924  -0.591 -0.41 +0.00    +0.002 C 
ATOM     21  C21 UNL     1      11.651  -0.481  -1.179 +0.23 +0.00    +0.005 C 
ATOM     22  C22 UNL     1      11.224   3.234   1.570+99.99 +0.00    +0.241 C 
ATOM     23  C23 UNL     1       9.295   4.597   0.799 -0.04 +0.00    +0.176 C 
ATOM     24  C24 UNL     1       9.679   6.020   1.218 -0.26 +0.00    +0.036 C 
ATOM     25  C25 UNL     1       8.549   6.881   1.799 -0.35 +0.00    +0.022 C 
ATOM     26  C26 UNL     1       7.827   6.245   2.987 -0.21 +0.00    +0.121 C 
ATOM     27  C27 UNL     1       6.069   4.731   3.355 -0.15 +0.00    +0.121 C 
ATOM     28  C28 UNL     1       8.415   4.547  -0.469 -0.07 +0.00    +0.241 C 
ATOM     29  C29 UNL     1       7.463   2.905  -2.116 -0.09 +0.00    +0.180 C 
ATOM     30  C30 UNL     1       8.141   3.097  -3.495 +0.24 +0.00    +0.009 C 
ATOM     31  C31 UNL     1       8.308   4.572  -3.866 -0.20 +0.00    +0.012 C 
ATOM     32  C32 UNL     1       9.493   2.382  -3.592+99.99 +0.00    +0.012 C 
ATOM     33  C33 UNL     1       7.001   1.434  -1.943 -0.06 +0.00    +0.241 C 
ATOM     34  C34 UNL     1       6.741  -0.441  -0.313+16.59 +0.00    +0.172 C 
ATOM     35  C35 UNL     1       7.550  -0.859   0.909+99.99 +0.00    +0.042 C 
ATOM     36  C36 UNL     1       5.231  -0.692  -0.089+99.99 +0.00    +0.240 C 
ATOM     37  C37 UNL     1       2.961  -0.102  -0.957 +1.17 +0.00    +0.176 C 
ATOM     38  C38 UNL     1       2.389   0.611   0.283 -0.14 +0.00    +0.036 C 
ATOM     39  C39 UNL     1       3.138   1.862   0.758 -0.13 +0.00    +0.022 C 
ATOM     40  C40 UNL     1       3.265   2.971  -0.283 -0.09 +0.00    +0.121 C 
ATOM     41  C41 UNL     1       4.457   4.985  -0.475 -0.14 +0.00    +0.121 C 
ATOM     42  C42 UNL     1       2.380   0.448  -2.279 -0.06 +0.00    +0.238 C 
ATOM     43  C43 UNL     1      19.647   9.352   3.279 +0.11 +0.00    +0.241 C 
ATOM     44  C44 UNL     1      20.190  10.748   2.899 +0.88 +0.00    +0.176 C 
ATOM     45  C45 UNL     1      20.872  10.736   1.521 -0.37 +0.00    +0.036 C 
ATOM     46  C46 UNL     1      22.170   9.921   1.498 -0.32 +0.00    +0.022 C 
ATOM     47  C47 UNL     1      22.338   9.142   0.193 -0.41 +0.00    +0.121 C 
ATOM     48  C48 UNL     1      23.801   7.469  -0.595 -0.49 +0.00    +0.121 C 
ATOM     49  C49 UNL     1      21.497  12.514   4.079+99.99 +0.00    +0.240 C 
ATOM     50  C50 UNL     1      22.415  12.778   5.292+99.99 +0.00    +0.172 C 
ATOM     51  C51 UNL     1      23.387  13.915   4.990+99.99 +0.00    +0.042 C 
ATOM     52  C52 UNL     1      23.617  11.446   6.993+99.99 +0.00    +0.241 C 
ATOM     53  C53 UNL     1      24.458  10.184   7.266+99.99 +0.00    +0.176 C 
ATOM     54  C54 UNL     1      23.589   9.054   7.841+99.99 +0.00    +0.036 C 
ATOM     55  C55 UNL     1      22.601   8.437   6.850+24.84 +0.00    +0.022 C 
ATOM     56  C56 UNL     1      23.277   7.606   5.761+99.99 +0.00    +0.121 C 
ATOM     57  C57 UNL     1      22.698   6.710   3.678+99.99 +0.00    +0.121 C 
ATOM     58  C58 UNL     1      26.657   9.883   8.374+99.99 +0.00    +0.251 C 
ATOM     59  C59 UNL     1      27.605  10.439   9.464 +1.02 +0.00    +0.308 C 
ATOM     60  C60 UNL     1      28.156  11.810   9.046+12.05 +0.00    +0.047 C 
ATOM     61  C61 UNL     1      29.054  12.443  10.116 -0.42 +0.00    +0.022 C 
ATOM     62  C62 UNL     1      29.489  13.861   9.747 -0.26 +0.00    +0.122 C 
ATOM     63  C63 UNL     1      31.544  13.708   8.577 -0.18 +0.00    +0.143 C 
ATOM     64  O1  UNL     1      16.395   9.138   4.464 -0.28 -0.00    -0.271 OA
ATOM     65  O2  UNL     1      13.721   4.716   4.158+99.99 -0.00    -0.271 OA
ATOM     66  O3  UNL     1      15.350   2.423   0.940+99.99 -0.00    -0.271 OA
ATOM     67  O4  UNL     1      10.831   3.256   2.733+99.99 -0.00    -0.271 OA
ATOM     68  O5  UNL     1       7.797   5.502  -0.926 -0.08 -0.00    -0.271 OA
ATOM     69  O6  UNL     1       6.531   0.755  -2.854 -0.10 -0.00    -0.271 OA
ATOM     70  O7  UNL     1       4.790  -1.444   0.776+99.99+99.99    -0.271 OA
ATOM     71  O8  UNL     1       1.310   1.038  -2.380+99.99+99.99    -0.271 OA
ATOM     72  O9  UNL     1      19.587   8.403   2.497 +1.62 -0.00    -0.271 OA
ATOM     73  O10 UNL     1      21.094  13.402   3.334 +2.89 -0.00    -0.271 OA
ATOM     74  O11 UNL     1      23.380  12.266   7.879+99.99 -0.00    -0.271 OA
ATOM     75  O12 UNL     1      26.925   8.888   7.701+99.99 -0.00    -0.271 OA
ATOM     76  N1  UNL     1      16.534   6.866   4.177 +4.17 -0.00    -0.346 N 
ATOM     77  N2  UNL     1      15.863   4.351   3.434+99.99 -0.00    -0.346 N 
ATOM     78  N3  UNL     1      13.496   2.683   2.248+99.99 -0.00    -0.346 N 
ATOM     79  N4  UNL     1      10.503   3.794   0.533+17.01 -0.00    -0.346 N 
ATOM     80  N5  UNL     1       6.685   5.465   2.503 -0.03 -0.00    -0.372 N 
ATOM     81  H5  UNL     1       6.392   5.504   1.527 +0.07 +0.00    +0.161 HD
ATOM     82  N6  UNL     1       6.330   4.526   4.666 -0.11 -0.00    -0.279 NA
ATOM     83  N7  UNL     1       4.964   4.037   3.013 -0.03 -0.00    -0.279 NA
ATOM     84  N8  UNL     1       8.318   3.274  -0.990 +0.01 -0.00    -0.346 N 
ATOM     85  N9  UNL     1       7.048   0.955  -0.649 -0.06 -0.00    -0.346 N 
ATOM     86  N10 UNL     1       4.419  -0.087  -1.019 +1.17 -0.00    -0.346 N 
ATOM     87  N11 UNL     1       4.114   4.016   0.290 -0.06 -0.00    -0.372 N 
ATOM     88  H11 UNL     1       4.422   3.974   1.261 +0.04 +0.00    +0.161 HD
ATOM     89  N12 UNL     1       4.137   5.207  -1.770 +4.00 -0.00    -0.279 NA
ATOM     90  N13 UNL     1       5.248   5.981  -0.024 -0.07 -0.00    -0.279 NA
ATOM     91  N14 UNL     1       3.098   0.138  -3.404 -0.03 -0.00    -0.368 N 
ATOM     92  N15 UNL     1      19.167   9.279   4.577 +6.30 -0.00    -0.346 N 
ATOM     93  N16 UNL     1      23.369   8.130   0.409 -0.17 -0.00    -0.372 N 
ATOM     94  H16 UNL     1      23.737   7.956   1.345 +0.13 +0.00    +0.161 HD
ATOM     95  N17 UNL     1      24.771   6.548  -0.412 -0.23 -0.00    -0.279 NA
ATOM     96  N18 UNL     1      23.441   7.526  -1.894 +0.11 -0.00    -0.279 NA
ATOM     97  N19 UNL     1      21.064  11.213   3.973+48.33 -0.00    -0.346 N 
ATOM     98  N20 UNL     1      23.134  11.568   5.706+99.99 -0.00    -0.346 N 
ATOM     99  N21 UNL     1      22.302   7.380   4.697+99.99 -0.00    -0.372 N 
ATOM    100  H21 UNL     1      21.350   7.740   4.761+99.99 +0.00    +0.161 HD
ATOM    101  N22 UNL     1      23.893   6.121   3.445+99.99 -0.00    -0.279 NA
ATOM    102  N23 UNL     1      21.890   6.514   2.611+68.56 -0.00    -0.279 NA
ATOM    103  N24 UNL     1      25.480  10.576   8.230+32.93 -0.00    -0.346 N 
ATOM    104  N25 UNL     1      30.275  13.861   8.517 -0.11 -0.00    -0.367 N 
ATOM    105  H25 UNL     1      29.815  13.983   7.615 +0.10 +0.00    +0.162 HD
ATOM    106  N26 UNL     1      32.261  13.766   7.433 -0.09 -0.00    -0.274 NA
ATOM    107  N27 UNL     1      32.337  13.508   9.648 -0.06 -0.00    -0.376 N 
ATOM    108  N28 UNL     1      28.699   9.472   9.702 +1.48 +0.00    +0.092 N 
ATOM    109  H88 UNL     1      17.054   6.045   4.460 +2.68 +0.00    +0.163 HD
ATOM    110  H89 UNL     1      16.554   4.789   2.833+28.92 +0.00    +0.163 HD
ATOM    111  H90 UNL     1      13.161   3.148   3.098+99.99 +0.00    +0.163 HD
ATOM    112  H91 UNL     1      10.985   3.972  -0.341 -0.24 +0.00    +0.163 HD
ATOM    113  H92 UNL     1       6.964   5.194   5.083 +0.07 +0.00    +0.126 HD
ATOM    114  H93 UNL     1       5.479   4.443   5.211 +0.06 +0.00    +0.126 HD
ATOM    115  H94 UNL     1       4.968   3.076   3.328 +0.05 +0.00    +0.126 HD
ATOM    116  H95 UNL     1       4.743   4.076   2.009 +0.04 +0.00    +0.126 HD
ATOM    117  H96 UNL     1       8.889   2.554  -0.563 +0.07 +0.00    +0.163 HD
ATOM    118  H97 UNL     1       6.965   1.651   0.088 +0.06 +0.00    +0.163 HD
ATOM    119  H98 UNL     1       4.862   0.447  -1.762 +0.02 +0.00    +0.163 HD
ATOM    120  H99 UNL     1       3.286   4.750  -2.073 -0.41 +0.00    +0.126 HD
ATOM    121  HA0 UNL     1       4.104   6.201  -1.971 +2.77 +0.00    +0.126 HD
ATOM    122  HA1 UNL     1       6.085   6.088  -0.603 -0.47 +0.00    +0.126 HD
ATOM    123  HA2 UNL     1       5.592   5.799   0.925 +0.04 +0.00    +0.126 HD
ATOM    124  HA3 UNL     1       2.698   0.384  -4.299 +0.02 +0.00    +0.159 HD
ATOM    125  HA4 UNL     1       3.864  -0.525  -3.384 +0.03 +0.00    +0.159 HD
ATOM    126  HA5 UNL     1      18.829  10.155   4.960 +4.20 +0.00    +0.163 HD
ATOM    127  HA6 UNL     1      25.509   6.634  -1.101 +0.08 +0.00    +0.126 HD
ATOM    128  HA7 UNL     1      25.155   6.646   0.524 +0.10 +0.00    +0.126 HD
ATOM    129  HA8 UNL     1      22.567   8.006  -2.065 +0.68 +0.00    +0.126 HD
ATOM    130  HA9 UNL     1      23.444   6.613  -2.336 +0.08 +0.00    +0.126 HD
ATOM    131  HB0 UNL     1      21.419  10.524   4.630 +2.16 +0.00    +0.163 HD
ATOM    132  HB1 UNL     1      23.573  11.018   4.974 -0.33 +0.00    +0.163 HD
ATOM    133  HB2 UNL     1      24.447   5.937   4.272+99.99 +0.00    +0.126 HD
ATOM    134  HB3 UNL     1      23.794   5.292   2.871+22.38 +0.00    +0.126 HD
ATOM    135  HB4 UNL     1      22.369   6.805   1.753 +0.41 +0.00    +0.126 HD
ATOM    136  HB5 UNL     1      21.045   7.083   2.687+17.02 +0.00    +0.126 HD
ATOM    137  HB6 UNL     1      25.258  11.355   8.844 -0.13 +0.00    +0.163 HD
ATOM    138  HB7 UNL     1      32.915  13.007   7.307+99.99+99.99    +0.127 HD
ATOM    139  HB8 UNL     1      31.630  13.826   6.641 +0.06 +0.00    +0.127 HD
ATOM    140  HB9 UNL     1      31.892  13.191  10.498 +0.04 +0.00    +0.158 HD
ATOM    141  HC0 UNL     1      33.256  13.124   9.489+99.99+99.99    +0.158 HD
ATOM    142  HC1 UNL     1      29.190   9.348   8.812+81.58 +0.00    +0.313 HD
ATOM    143  HC2 UNL     1      28.272   8.558   9.864 +1.38 +0.00    +0.313 HD
ENDROOT
TORSDOF 51
TER
