USER    Run = 1
USER    DPF = ligand_6_receptor.dpf
USER  
USER    Estimated Free Energy of Binding    =  +1.73e+003 kcal/mol  [=(1)+(2)+(3)-(4)]
USER    
USER    (1) Final Intermolecular Energy     =  +1.73e+003 kcal/mol
USER        vdW + Hbond + desolv Energy     =  +1.73e+003 kcal/mol
USER        Electrostatic Energy            =   +0.00 kcal/mol
USER    (2) Final Total Internal Energy     =   -5.41 kcal/mol
USER    (3) Torsional Free Energy           =   +1.19 kcal/mol
USER    (4) Unbound System's Energy  [=(2)] =   -5.41 kcal/mol
USER    
USER    
USER    NEWDPF move ligand_6.pdbqt
USER    NEWDPF about 0.000000 0.000000 0.000000
USER    NEWDPF tran0 13.744483 2.753542 3.533446
USER    NEWDPF quaternion0 0.194100 0.220588 0.718352 0.630584
USER    NEWDPF axisangle0 0.250090 0.284219 0.925567 101.813530
USER    NEWDPF quat0 0.250090 0.284219 0.925567 101.813530
USER    NEWDPF dihe0 44.51 36.20 12.67 -34.84 87.02 -46.97 180.00 21.85 -120.00 -28.24 65.19 -51.22 156.25 -143.42 -58.85 -5.03 -29.15 144.15 
USER  keepresnum = 1 
USER  
REMARK  18 active torsions:
REMARK  status: ('A' for Active; 'I' for Inactive)
REMARK    1  A    between atoms: C2_2  and  O1_63 
REMARK    2  A    between atoms: C3_3  and  N2_74 
REMARK    3  A    between atoms: C5_5  and  C8_8 
REMARK       I    between atoms: C8_8  and  N1_73 
REMARK    4  A    between atoms: C9_9  and  N1_73 
REMARK    5  A    between atoms: C15_15  and  N3_76 
REMARK    6  A    between atoms: C16_16  and  O10_72 
REMARK    7  A    between atoms: C17_17  and  C25_25 
REMARK       I    between atoms: C25_25  and  N4_78 
REMARK    8  A    between atoms: C26_26  and  N4_78 
REMARK    9  A    between atoms: C28_28  and  S1_85 
REMARK   10  A    between atoms: C32_32  and  S1_85 
REMARK   11  A    between atoms: C36_36  and  N5_79 
REMARK   12  A    between atoms: C38_38  and  C39_39 
REMARK       I    between atoms: C38_38  and  N5_79 
REMARK   13  A    between atoms: C47_47  and  N6_80 
REMARK   14  A    between atoms: C48_48  and  O7_69 
REMARK   15  A    between atoms: C49_49  and  N7_82 
REMARK   16  A    between atoms: C50_50  and  O9_71 
REMARK   17  A    between atoms: C53_53  and  C55_55 
REMARK       I    between atoms: C55_55  and  N8_84 
REMARK   18  A    between atoms: C56_56  and  N8_84 
USER                              x       y       z     vdW  Elec       q    Type
USER                           _______ _______ _______ _____ _____    ______ ____
ROOT
ATOM      1  O4  UNL     1      10.501   5.897   7.381 -0.18 -0.00    -0.217 OA
ATOM      2  O5  UNL     1      10.445   3.648   8.520 -0.03 -0.00    -0.217 OA
ATOM      3  S1  UNL     1      10.957   4.523   7.479 -0.47 +0.00    +0.206 S 
ENDROOT
BRANCH   3   4
ATOM      4  C28 UNL     1      10.607   3.759   5.912 -0.42 +0.00    +0.066 A 
ATOM      5  C27 UNL     1      10.620   4.550   4.756 -0.31 +0.00    +0.053 A 
ATOM      6  C26 UNL     1      10.378   3.963   3.514 +1.32 +0.00    +0.036 A 
ATOM      7  C31 UNL     1      10.124   2.585   3.452 +1.74 +0.00    +0.029 A 
ATOM      8  C30 UNL     1      10.104   1.803   4.611+87.15 +0.00    +0.004 A 
ATOM      9  C29 UNL     1      10.346   2.391   5.849 +2.94 +0.00    +0.024 A 
BRANCH   6  10
ATOM     10  N4  UNL     1      10.390   4.671   2.293 +4.45 -0.00    -0.323 N 
ATOM     11  C25 UNL     1       9.536   5.688   1.909 -0.12 +0.00    +0.259 C 
ATOM     12  O3  UNL     1       8.557   6.098   2.525 -0.13 -0.00    -0.267 OA
ATOM     13  H44 UNL     1      11.049   4.334   1.603+53.60 +0.00    +0.169 HD
BRANCH  11  14
ATOM     14  C17 UNL     1       9.812   6.301   0.579 -0.23 +0.00    +0.068 A 
ATOM     15  C16 UNL     1      11.072   6.853   0.315 -0.20 +0.00    +0.110 A 
ATOM     16  C15 UNL     1      11.338   7.479  -0.917 +1.00 +0.00    +0.093 A 
ATOM     17  C24 UNL     1      10.342   7.488  -1.934 -0.34 +0.00    +0.005 A 
ATOM     18  C19 UNL     1       9.085   6.889  -1.674 -0.29 -0.00    -0.022 A 
ATOM     19  C23 UNL     1      10.548   8.061  -3.209 -0.38 +0.00    +0.014 A 
ATOM     20  C18 UNL     1       8.834   6.305  -0.423 -0.22 +0.00    +0.032 A 
ATOM     21  C20 UNL     1       8.096   6.877  -2.672+14.18 +0.00    +0.012 A 
ATOM     22  C21 UNL     1       8.329   7.452  -3.921+13.36 +0.00    +0.001 A 
ATOM     23  C22 UNL     1       9.555   8.045  -4.190 -0.15 +0.00    +0.001 A 
BRANCH  15  24
ATOM     24  O10 UNL     1      12.088   6.802   1.244 -0.27 -0.00    -0.357 OA
ATOM     25  H42 UNL     1      12.251   5.861   1.478 +0.05 +0.00    +0.217 HD
ENDBRANCH  15  24
BRANCH  16  26
ATOM     26  N3  UNL     1      12.617   8.041  -1.141+25.88 -0.00    -0.297 N 
ATOM     27  N2  UNL     1      13.067   8.513  -0.072+99.99 -0.00    -0.297 N 
ATOM     28  H2  UNL     1      12.545   8.533   0.804+44.31 +0.00    +0.187 HD
ATOM     29  H3  UNL     1      13.100   8.059  -2.039+50.66 +0.00    +0.187 HD
BRANCH  27  30
ATOM     30  C3  UNL     1      14.382   9.015  -0.218+65.21 +0.00    +0.082 A 
ATOM     31  C2  UNL     1      14.569  10.391  -0.475+34.59 +0.00    +0.096 A 
ATOM     32  C7  UNL     1      15.861  10.899  -0.654+99.99 +0.00    +0.040 A 
ATOM     33  C6  UNL     1      16.970  10.052  -0.570 +1.05 +0.00    +0.020 A 
ATOM     34  C5  UNL     1      16.797   8.692  -0.306 -0.46 +0.00    +0.034 A 
ATOM     35  C4  UNL     1      15.508   8.173  -0.155 -0.33 +0.00    +0.051 A 
BRANCH  31  36
ATOM     36  O1  UNL     1      13.425  11.148  -0.550+14.03 -0.00    -0.354 OA
ATOM     37  C1  UNL     1      13.454  12.303  -1.378 +3.12 +0.00    +0.210 C 
ENDBRANCH  31  36
BRANCH  34  38
ATOM     38  C8  UNL     1      18.001   7.820  -0.222+99.99 +0.00    +0.256 C 
ATOM     39  O2  UNL     1      17.985   6.891   0.576+99.99 -0.00    -0.267 OA
ATOM     40  N1  UNL     1      19.014   8.146  -1.107+20.65 -0.00    -0.323 N 
ATOM     41  H43 UNL     1      18.815   8.864  -1.792 +1.26 +0.00    +0.169 HD
BRANCH  40  42
ATOM     42  C9  UNL     1      20.277   7.529  -1.227+99.99 +0.00    +0.035 A 
ATOM     43  C10 UNL     1      20.509   6.361  -1.954+17.55 +0.00    +0.029 A 
ATOM     44  C11 UNL     1      21.794   5.810  -2.019+99.99 +0.00    +0.002 A 
ATOM     45  C12 UNL     1      22.855   6.420  -1.355 +0.19 +0.00    +0.000 A 
ATOM     46  C13 UNL     1      22.632   7.584  -0.624 -0.35 +0.00    +0.002 A 
ATOM     47  C14 UNL     1      21.350   8.135  -0.560+12.07 +0.00    +0.029 A 
ENDBRANCH  40  42
ENDBRANCH  34  38
ENDBRANCH  27  30
ENDBRANCH  16  26
ENDBRANCH  11  14
ENDBRANCH   6  10
ENDBRANCH   3   4
BRANCH   3  48
ATOM     48  C32 UNL     1      12.724   4.529   7.663 -0.51 +0.00    +0.066 A 
ATOM     49  C33 UNL     1      13.344   3.617   8.516 +0.17 +0.00    +0.024 A 
ATOM     50  C34 UNL     1      14.729   3.651   8.647+39.32 +0.00    +0.004 A 
ATOM     51  C35 UNL     1      15.485   4.587   7.928+25.97 +0.00    +0.029 A 
ATOM     52  C36 UNL     1      14.865   5.496   7.068 +0.94 +0.00    +0.036 A 
ATOM     53  C37 UNL     1      13.473   5.459   6.933 -0.51 +0.00    +0.053 A 
BRANCH  52  54
ATOM     54  N5  UNL     1      15.550   6.466   6.313 +1.43 -0.00    -0.323 N 
ATOM     55  C38 UNL     1      16.894   6.778   6.334+21.23 +0.00    +0.259 C 
ATOM     56  O6  UNL     1      17.742   6.238   7.038+15.81 -0.00    -0.267 OA
ATOM     57  H45 UNL     1      14.988   7.018   5.669 +0.11 +0.00    +0.169 HD
BRANCH  55  58
ATOM     58  C39 UNL     1      17.333   7.878   5.407+10.48 +0.00    +0.068 A 
ATOM     59  C40 UNL     1      16.472   8.978   5.264+17.54 +0.00    +0.032 A 
ATOM     60  C41 UNL     1      16.779  10.056   4.419 -0.13 -0.00    -0.022 A 
ATOM     61  C42 UNL     1      15.896  11.141   4.296+99.99 +0.00    +0.012 A 
ATOM     62  C46 UNL     1      17.986  10.048   3.681 -0.23 +0.00    +0.005 A 
ATOM     63  C43 UNL     1      16.189  12.215   3.455 +3.37 +0.00    +0.001 A 
ATOM     64  C44 UNL     1      17.372  12.218   2.726 -0.48 +0.00    +0.001 A 
ATOM     65  C45 UNL     1      18.260  11.147   2.837 -0.41 +0.00    +0.014 A 
ATOM     66  C47 UNL     1      18.866   8.947   3.818 -0.14 +0.00    +0.093 A 
ATOM     67  C48 UNL     1      18.527   7.877   4.678 +1.60 +0.00    +0.110 A 
BRANCH  66  68
ATOM     68  N6  UNL     1      20.050   8.880   3.045 -0.15 -0.00    -0.297 N 
ATOM     69  N7  UNL     1      20.808   9.837   3.314 +0.28 -0.00    -0.297 N 
ATOM     70  H7  UNL     1      20.623  10.539   4.030 +2.37 +0.00    +0.187 HD
ATOM     71  H6  UNL     1      20.256   8.151   2.362 +0.42 +0.00    +0.187 HD
BRANCH  69  72
ATOM     72  C49 UNL     1      21.956   9.815   2.491 -0.32 +0.00    +0.082 A 
ATOM     73  C50 UNL     1      21.974  10.541   1.282 +1.91 +0.00    +0.096 A 
ATOM     74  C51 UNL     1      23.131  10.548   0.494 +1.24 +0.00    +0.040 A 
ATOM     75  C52 UNL     1      24.269   9.840   0.898 +0.62 +0.00    +0.020 A 
ATOM     76  C53 UNL     1      24.254   9.113   2.092 -0.46 +0.00    +0.034 A 
ATOM     77  C54 UNL     1      23.107   9.117   2.891 -0.45 +0.00    +0.051 A 
BRANCH  73  78
ATOM     78  O9  UNL     1      20.815  11.206   0.969 -0.24 -0.00    -0.354 OA
ATOM     79  C62 UNL     1      20.710  11.780  -0.327 -0.27 +0.00    +0.210 C 
ENDBRANCH  73  78
BRANCH  76  80
ATOM     80  C55 UNL     1      25.446   8.360   2.572 -0.40 +0.00    +0.256 C 
ATOM     81  O8  UNL     1      25.440   7.958   3.729 -0.50 -0.00    -0.267 OA
ATOM     82  N8  UNL     1      26.430   8.159   1.622 -0.22 -0.00    -0.323 N 
ATOM     83  H46 UNL     1      26.219   8.434   0.672 +0.12 +0.00    +0.169 HD
BRANCH  82  84
ATOM     84  C56 UNL     1      27.677   7.526   1.805 -0.29 +0.00    +0.035 A 
ATOM     85  C57 UNL     1      28.583   7.861   2.813 -0.07 +0.00    +0.029 A 
ATOM     86  C58 UNL     1      29.805   7.189   2.921 +0.69 +0.00    +0.002 A 
ATOM     87  C59 UNL     1      30.132   6.176   2.022 -0.06 +0.00    +0.000 A 
ATOM     88  C60 UNL     1      29.238   5.837   1.011 -0.05 +0.00    +0.002 A 
ATOM     89  C61 UNL     1      28.018   6.510   0.902 -0.14 +0.00    +0.029 A 
ENDBRANCH  82  84
ENDBRANCH  76  80
ENDBRANCH  69  72
ENDBRANCH  66  68
BRANCH  67  90
ATOM     90  O7  UNL     1      19.410   6.822   4.783+10.10 -0.00    -0.357 OA
ATOM     91  H41 UNL     1      19.897   6.798   3.932 +0.19 +0.00    +0.217 HD
ENDBRANCH  67  90
ENDBRANCH  55  58
ENDBRANCH  52  54
ENDBRANCH   3  48
TORSDOF 18
TER
