USER    Run = 1
USER    DPF = ligand_221_receptor.dpf
USER  
USER    Estimated Free Energy of Binding    =  +2.35e+003 kcal/mol  [=(1)+(2)+(3)-(4)]
USER    
USER    (1) Final Intermolecular Energy     =  +2.35e+003 kcal/mol
USER        vdW + Hbond + desolv Energy     =  +2.35e+003 kcal/mol
USER        Electrostatic Energy            =   +0.00 kcal/mol
USER    (2) Final Total Internal Energy     =   -4.96 kcal/mol
USER    (3) Torsional Free Energy           =   +1.19 kcal/mol
USER    (4) Unbound System's Energy  [=(2)] =   -4.96 kcal/mol
USER    
USER    
USER    NEWDPF move ligand_221.pdbqt
USER    NEWDPF about 0.000000 0.000000 0.000000
USER    NEWDPF tran0 28.271555 5.310812 6.475245
USER    NEWDPF quaternion0 -0.002393 -0.494920 -0.860879 0.118048
USER    NEWDPF axisangle0 -0.002410 -0.498405 -0.866941 166.441071
USER    NEWDPF quat0 -0.002410 -0.498405 -0.866941 166.441071
USER    NEWDPF dihe0 -138.89 135.29 120.84 175.59 -180.00 60.27 176.42 -58.66 32.42 34.03 126.29 89.01 -82.06 56.52 -24.99 -78.65 -90.79 91.67 -133.23 
USER  keepresnum = 1 
USER  
REMARK  19 active torsions:
REMARK  status: ('A' for Active; 'I' for Inactive)
REMARK    1  A    between atoms: C4_4  and  N1_69 
REMARK    2  A    between atoms: C7_7  and  C8_8 
REMARK       I    between atoms: C7_7  and  N1_69 
REMARK    3  A    between atoms: C11_11  and  C14_14 
REMARK    4  A    between atoms: C14_14  and  N2_70 
REMARK    5  A    between atoms: C14_14  and  O8_84 
REMARK    6  A    between atoms: C15_15  and  N2_70 
REMARK    7  A    between atoms: C17_17  and  N3_71 
REMARK    8  A    between atoms: C21_21  and  C22_22 
REMARK       I    between atoms: C21_21  and  N3_71 
REMARK    9  A    between atoms: C25_25  and  C28_28 
REMARK       I    between atoms: C28_28  and  N4_72 
REMARK   10  A    between atoms: C29_29  and  N4_72 
REMARK   11  A    between atoms: C33_33  and  C35_35 
REMARK   12  A    between atoms: C40_40  and  N5_73 
REMARK   13  A    between atoms: C41_41  and  C42_42 
REMARK       I    between atoms: C41_41  and  N5_73 
REMARK   14  A    between atoms: C45_45  and  C48_48 
REMARK       I    between atoms: C48_48  and  N6_74 
REMARK   15  A    between atoms: C49_49  and  N6_74 
REMARK   16  A    between atoms: C52_52  and  N7_75 
REMARK   17  A    between atoms: C55_55  and  C56_56 
REMARK       I    between atoms: C55_55  and  N7_75 
REMARK   18  A    between atoms: C59_59  and  C62_62 
REMARK       I    between atoms: C62_62  and  N8_76 
REMARK   19  A    between atoms: C63_63  and  N8_76 
USER                              x       y       z     vdW  Elec       q    Type
USER                           _______ _______ _______ _____ _____    ______ ____
ROOT
ATOM      1  C29 UNL     1      27.076   4.216   1.201+26.71 +0.00    +0.035 A 
ATOM      2  C30 UNL     1      27.726   2.984   1.339+99.99 +0.00    +0.029 A 
ATOM      3  C31 UNL     1      29.031   2.814   0.879 -0.42 +0.00    +0.003 A 
ATOM      4  C32 UNL     1      29.704   3.880   0.285 -0.25 +0.00    +0.012 A 
ATOM      5  C33 UNL     1      29.088   5.135   0.154 -0.21 -0.00    -0.021 A 
ATOM      6  C34 UNL     1      27.762   5.280   0.611 +0.07 +0.00    +0.042 A 
ENDROOT
BRANCH   5   7
ATOM      7  C35 UNL     1      29.800   6.263  -0.485 -0.15 +0.00    +0.001 A 
ATOM      8  C36 UNL     1      31.196   6.138  -0.658 -0.07 +0.00    +0.014 A 
ATOM      9  C37 UNL     1      31.980   7.199  -1.111 -0.07 +0.00    +0.001 A 
ATOM     10  C38 UNL     1      31.388   8.424  -1.387 -0.18 +0.00    +0.002 A 
ATOM     11  C39 UNL     1      30.011   8.575  -1.237 -0.11 +0.00    +0.030 A 
ATOM     12  C40 UNL     1      29.202   7.499  -0.828 -0.23 +0.00    +0.046 A 
BRANCH  12  13
ATOM     13  N5  UNL     1      27.814   7.776  -0.752 -0.14 -0.00    -0.322 N 
ATOM     14  C41 UNL     1      27.064   8.366  -1.756+64.18 +0.00    +0.256 C 
ATOM     15  O4  UNL     1      27.500   8.886  -2.775+99.99 -0.00    -0.267 OA
ATOM     16  H48 UNL     1      27.437   7.885   0.180 +0.10 +0.00    +0.169 HD
BRANCH  14  17
ATOM     17  C42 UNL     1      25.600   8.447  -1.480+94.01 +0.00    +0.032 A 
ATOM     18  C43 UNL     1      24.849   7.311  -1.144 -0.35 +0.00    +0.018 A 
ATOM     19  C44 UNL     1      23.473   7.423  -0.906 -0.53 +0.00    +0.018 A 
ATOM     20  C45 UNL     1      22.842   8.670  -1.004 +1.45 +0.00    +0.032 A 
ATOM     21  C46 UNL     1      23.586   9.798  -1.371 +4.20 +0.00    +0.018 A 
ATOM     22  C47 UNL     1      24.959   9.687  -1.606+99.99 +0.00    +0.018 A 
BRANCH  20  23
ATOM     23  C48 UNL     1      21.378   8.827  -0.773 +2.40 +0.00    +0.256 C 
ATOM     24  N6  UNL     1      20.590   7.859  -1.369 +5.72 -0.00    -0.323 N 
ATOM     25  H49 UNL     1      21.067   7.079  -1.800 +0.09 +0.00    +0.169 HD
ATOM     26  O5  UNL     1      21.002   9.752  -0.065 -0.28 -0.00    -0.267 OA
BRANCH  24  27
ATOM     27  C49 UNL     1      19.181   7.783  -1.361+99.99 +0.00    +0.035 A 
ATOM     28  C50 UNL     1      18.402   7.568  -2.496 +1.91 +0.00    +0.032 A 
ATOM     29  C51 UNL     1      17.004   7.495  -2.404 -0.39 +0.00    +0.032 A 
ATOM     30  C52 UNL     1      16.362   7.634  -1.175 +0.16 +0.00    +0.035 A 
ATOM     31  C53 UNL     1      17.143   7.852  -0.035 +2.95 +0.00    +0.032 A 
ATOM     32  C54 UNL     1      18.538   7.922  -0.127+99.99 +0.00    +0.032 A 
BRANCH  30  33
ATOM     33  N7  UNL     1      14.963   7.583  -1.002 +2.25 -0.00    -0.323 N 
ATOM     34  C55 UNL     1      14.069   6.757  -1.659 +6.84 +0.00    +0.256 C 
ATOM     35  O6  UNL     1      14.335   5.867  -2.456+38.66 -0.00    -0.267 OA
ATOM     36  H50 UNL     1      14.592   8.168  -0.264 -0.36 +0.00    +0.169 HD
BRANCH  34  37
ATOM     37  C56 UNL     1      12.637   6.975  -1.302 +0.24 +0.00    +0.032 A 
ATOM     38  C57 UNL     1      11.790   7.761  -2.095 +1.92 +0.00    +0.018 A 
ATOM     39  C58 UNL     1      10.449   7.933  -1.733 -0.06 +0.00    +0.018 A 
ATOM     40  C59 UNL     1       9.950   7.320  -0.574 -0.28 +0.00    +0.032 A 
ATOM     41  C60 UNL     1      10.790   6.507   0.198 -0.31 +0.00    +0.018 A 
ATOM     42  C61 UNL     1      12.128   6.335  -0.164 -0.44 +0.00    +0.018 A 
BRANCH  40  43
ATOM     43  C62 UNL     1       8.525   7.470  -0.159 -0.26 +0.00    +0.256 C 
ATOM     44  N8  UNL     1       7.932   6.312   0.312 -0.09 -0.00    -0.323 N 
ATOM     45  H51 UNL     1       8.462   5.456   0.232 +0.08 +0.00    +0.169 HD
ATOM     46  O7  UNL     1       7.998   8.567  -0.296 -0.16 -0.00    -0.267 OA
BRANCH  44  47
ATOM     47  C63 UNL     1       6.619   6.166   0.811 -0.25 +0.00    +0.035 A 
ATOM     48  C64 UNL     1       6.193   7.094   1.770 -0.35 +0.00    +0.029 A 
ATOM     49  C65 UNL     1       4.906   7.024   2.309 +0.01 +0.00    +0.002 A 
ATOM     50  C66 UNL     1       4.031   6.025   1.893 +0.48 +0.00    +0.000 A 
ATOM     51  C67 UNL     1       4.444   5.100   0.937 -0.13 +0.00    +0.002 A 
ATOM     52  C68 UNL     1       5.732   5.171   0.396 -0.20 +0.00    +0.029 A 
ENDBRANCH  44  47
ENDBRANCH  40  43
ENDBRANCH  34  37
ENDBRANCH  30  33
ENDBRANCH  24  27
ENDBRANCH  20  23
ENDBRANCH  14  17
ENDBRANCH  12  13
ENDBRANCH   5   7
BRANCH   1  53
ATOM     53  N4  UNL     1      25.749   4.297   1.681 +9.30 -0.00    -0.323 N 
ATOM     54  C28 UNL     1      24.590   3.962   1.007 +0.79 +0.00    +0.256 C 
ATOM     55  O3  UNL     1      24.493   3.526  -0.134 -0.61 -0.00    -0.267 OA
ATOM     56  H47 UNL     1      25.651   4.691   2.606 +0.52 +0.00    +0.169 HD
BRANCH  54  57
ATOM     57  C25 UNL     1      23.330   4.185   1.773 +0.12 +0.00    +0.032 A 
ATOM     58  C24 UNL     1      22.963   5.504   2.077+12.63 +0.00    +0.018 A 
ATOM     59  C23 UNL     1      21.791   5.767   2.793+99.99 +0.00    +0.018 A 
ATOM     60  C22 UNL     1      20.977   4.706   3.213+99.99 +0.00    +0.032 A 
ATOM     61  C27 UNL     1      21.324   3.391   2.877+11.58 +0.00    +0.018 A 
ATOM     62  C26 UNL     1      22.496   3.128   2.159 +0.24 +0.00    +0.018 A 
BRANCH  60  63
ATOM     63  C21 UNL     1      19.718   4.935   3.979+52.14 +0.00    +0.256 C 
ATOM     64  N3  UNL     1      19.179   6.203   3.852+20.23 -0.00    -0.323 N 
ATOM     65  H46 UNL     1      19.729   6.887   3.351 +0.56 +0.00    +0.169 HD
ATOM     66  O2  UNL     1      19.293   4.020   4.675+74.96 -0.00    -0.267 OA
BRANCH  64  67
ATOM     67  C17 UNL     1      17.982   6.685   4.426+99.99 +0.00    +0.037 A 
ATOM     68  C16 UNL     1      16.825   6.645   3.630+22.25 +0.00    +0.058 A 
ATOM     69  C15 UNL     1      15.572   7.078   4.103 +1.30 +0.00    +0.032 A 
ATOM     70  C20 UNL     1      15.526   7.617   5.390 +2.48 +0.00    +0.029 A 
ATOM     71  C19 UNL     1      16.666   7.656   6.198+99.99 +0.00    +0.004 A 
ATOM     72  C18 UNL     1      17.888   7.186   5.720+76.74 +0.00    +0.029 A 
BRANCH  69  73
ATOM     73  N2  UNL     1      14.494   7.069   3.214 +0.55 -0.00    -0.360 N 
ATOM     74  H45 UNL     1      14.261   6.124   2.929 -0.40 +0.00    +0.162 HD
BRANCH  73  75
ATOM     75  C14 UNL     1      13.297   7.874   3.366 -0.25 +0.00    +0.252 C 
BRANCH  75  76
ATOM     76  C11 UNL     1      12.021   7.073   3.558 -0.40 -0.00    -0.010 A 
ATOM     77  C10 UNL     1      11.197   7.304   4.674 -0.37 +0.00    +0.012 A 
ATOM     78  C9  UNL     1      10.033   6.555   4.873 -0.26 +0.00    +0.018 A 
ATOM     79  C8  UNL     1       9.678   5.549   3.969 -0.23 +0.00    +0.032 A 
ATOM     80  C13 UNL     1      10.483   5.313   2.849 +0.09 +0.00    +0.018 A 
ATOM     81  C12 UNL     1      11.648   6.063   2.655 -0.13 +0.00    +0.012 A 
BRANCH  79  82
ATOM     82  C7  UNL     1       8.429   4.774   4.223 -0.16 +0.00    +0.256 C 
ATOM     83  N1  UNL     1       7.404   5.496   4.808 -0.09 -0.00    -0.323 N 
ATOM     84  H44 UNL     1       7.545   6.491   4.911 +0.09 +0.00    +0.169 HD
ATOM     85  O1  UNL     1       8.395   3.602   3.870 -0.20 -0.00    -0.267 OA
BRANCH  83  86
ATOM     86  C4  UNL     1       6.135   5.019   5.197 -0.26 +0.00    +0.035 A 
ATOM     87  C3  UNL     1       5.606   5.162   6.481 -0.39 +0.00    +0.029 A 
ATOM     88  C2  UNL     1       4.334   4.665   6.784 -0.38 +0.00    +0.002 A 
ATOM     89  C1  UNL     1       3.578   4.026   5.804 -0.24 +0.00    +0.000 A 
ATOM     90  C6  UNL     1       4.093   3.882   4.519 -0.17 +0.00    +0.002 A 
ATOM     91  C5  UNL     1       5.365   4.377   4.217 -0.18 +0.00    +0.029 A 
ENDBRANCH  83  86
ENDBRANCH  79  82
ENDBRANCH  75  76
BRANCH  75  92
ATOM     92  O8  UNL     1      13.541   8.811   4.390 -0.09 -0.00    -0.373 OA
ATOM     93  H52 UNL     1      12.821   8.609   5.014 +0.15 +0.00    +0.212 HD
ENDBRANCH  75  92
ENDBRANCH  73  75
ENDBRANCH  69  73
ENDBRANCH  64  67
ENDBRANCH  60  63
ENDBRANCH  54  57
ENDBRANCH   1  53
TORSDOF 19
TER
