USER    Run = 1
USER    DPF = ligand_22_receptor.dpf
USER  
USER    Estimated Free Energy of Binding    =  -12.09 kcal/mol  [=(1)+(2)+(3)-(4)]
USER    Estimated Inhibition Constant, Ki   =    1.38 nM (nanomolar)  [Temperature = 298.15 K]
USER    
USER    (1) Final Intermolecular Energy     =  -13.28 kcal/mol
USER        vdW + Hbond + desolv Energy     =  -13.28 kcal/mol
USER        Electrostatic Energy            =   +0.00 kcal/mol
USER    (2) Final Total Internal Energy     =   -1.69 kcal/mol
USER    (3) Torsional Free Energy           =   +1.19 kcal/mol
USER    (4) Unbound System's Energy  [=(2)] =   -1.69 kcal/mol
USER    
USER    
USER    NEWDPF move ligand_22.pdbqt
USER    NEWDPF about 0.000000 0.000000 0.000000
USER    NEWDPF tran0 15.804206 6.294979 2.699653
USER    NEWDPF quaternion0 -0.925360 -0.234237 0.230893 -0.188492
USER    NEWDPF axisangle0 -0.942250 -0.238513 0.235108 -158.270391
USER    NEWDPF quat0 -0.942250 -0.238513 0.235108 -158.270391
USER    NEWDPF dihe0 -93.92 23.73 145.16 -155.21 67.75 -24.54 -179.67 180.00 180.00 155.51 123.60 128.97 
USER  keepresnum = 1 
USER  
REMARK  12 active torsions:
REMARK  status: ('A' for Active; 'I' for Inactive)
REMARK    1  A    between atoms: C2_2  and  C3_3 
REMARK    2  A    between atoms: C3_3  and  C4_4 
REMARK    3  A    between atoms: C3_3  and  N1_41 
REMARK       I    between atoms: C6_6  and  N1_41 
REMARK       I    between atoms: C6_6  and  N2_42 
REMARK    4  A    between atoms: C7_7  and  N2_42 
REMARK    5  A    between atoms: C10_10  and  O2_47 
REMARK    6  A    between atoms: C13_13  and  O2_47 
REMARK    7  A    between atoms: C16_16  and  N3_43 
REMARK    8  A    between atoms: C19_19  and  C20_20 
REMARK       I    between atoms: C19_19  and  N3_43 
REMARK    9  A    between atoms: C23_23  and  N4_44 
REMARK   10  A    between atoms: C27_27  and  C34_34 
REMARK   11  A    between atoms: C34_34  and  N5_45 
REMARK   12  A    between atoms: C37_37  and  O4_49 
USER                              x       y       z     vdW  Elec       q    Type
USER                           _______ _______ _______ _____ _____    ______ ____
ROOT
ATOM      1  C19 UNL     1      16.466   9.170   4.159 -0.29 +0.00    +0.256 C 
ATOM      2  N3  UNL     1      15.602   8.221   3.646 -0.29 -0.00    -0.323 N 
ATOM      3  O3  UNL     1      16.239   9.967   5.060 +0.49 -0.00    -0.267 OA
ATOM      4  H44 UNL     1      15.901   7.732   2.812 -0.18 +0.00    +0.169 HD
ENDROOT
BRANCH   2   5
ATOM      5  C16 UNL     1      14.298   7.916   4.092 -0.47 +0.00    +0.035 A 
ATOM      6  C15 UNL     1      13.168   7.923   3.268 -0.30 +0.00    +0.039 A 
ATOM      7  C14 UNL     1      11.895   7.612   3.780 -0.39 -0.00    -0.026 A 
ATOM      8  C13 UNL     1      11.767   7.318   5.143 -0.32 +0.00    +0.082 A 
ATOM      9  C40 UNL     1      10.697   7.616   2.875 -0.31 +0.00    +0.051 C 
ATOM     10  C18 UNL     1      12.890   7.290   5.971 -0.39 +0.00    +0.040 A 
ATOM     11  C17 UNL     1      14.147   7.594   5.447 -0.35 +0.00    +0.032 A 
BRANCH   8  12
ATOM     12  O2  UNL     1      10.522   6.988   5.632 -0.18 -0.00    -0.310 OA
BRANCH  12  13
ATOM     13  C10 UNL     1       9.862   5.952   5.010 -0.23 +0.00    +0.076 A 
ATOM     14  C9  UNL     1       8.511   6.004   4.668 -0.13 +0.00    +0.039 A 
ATOM     15  C8  UNL     1       7.920   4.925   4.005 -0.21 +0.00    +0.032 A 
ATOM     16  C7  UNL     1       8.674   3.793   3.665 -0.26 +0.00    +0.036 A 
ATOM     17  C12 UNL     1      10.029   3.759   3.999 -0.26 +0.00    +0.032 A 
ATOM     18  C11 UNL     1      10.624   4.839   4.660 -0.29 +0.00    +0.039 A 
BRANCH  16  19
ATOM     19  N2  UNL     1       8.000   2.745   3.007 -0.14 -0.00    -0.309 N 
ATOM     20  C6  UNL     1       6.648   2.641   2.756 -0.13 +0.00    +0.321 C 
ATOM     21  N1  UNL     1       6.381   1.510   2.007 -0.13 -0.00    -0.338 N 
ATOM     22  O1  UNL     1       5.772   3.406   3.132 -0.10 -0.00    -0.247 OA
ATOM     23  H42 UNL     1       7.138   1.163   1.436 +0.06 +0.00    +0.164 HD
ATOM     24  H43 UNL     1       8.539   1.915   2.814 -0.37 +0.00    +0.170 HD
BRANCH  21  25
ATOM     25  C3  UNL     1       5.027   1.178   1.563 -0.13 +0.00    +0.085 C 
BRANCH  25  26
ATOM     26  C2  UNL     1       4.551   2.287   0.609 -0.13 +0.00    +0.021 C 
ATOM     27  C1  UNL     1       5.147   2.195  -0.789 -0.12 +0.00    +0.007 C 
ENDBRANCH  25  26
BRANCH  25  28
ATOM     28  C4  UNL     1       4.078   1.011   2.767 -0.29 +0.00    +0.021 C 
ATOM     29  C5  UNL     1       4.712   0.301   3.957 -0.44 +0.00    +0.007 C 
ENDBRANCH  25  28
ENDBRANCH  21  25
ENDBRANCH  16  19
ENDBRANCH  12  13
ENDBRANCH   8  12
ENDBRANCH   2   5
BRANCH   1  30
ATOM     30  C20 UNL     1      17.797   9.226   3.491 -0.49 +0.00    +0.032 A 
ATOM     31  C21 UNL     1      18.851   8.488   4.040 -0.36 +0.00    +0.019 A 
ATOM     32  C22 UNL     1      20.116   8.517   3.444 +0.07 +0.00    +0.031 A 
ATOM     33  C23 UNL     1      20.332   9.264   2.275 +0.05 +0.00    +0.039 A 
ATOM     34  C24 UNL     1      19.273   9.999   1.728 -0.40 +0.00    +0.031 A 
ATOM     35  C25 UNL     1      18.008   9.975   2.328 -0.45 +0.00    +0.019 A 
BRANCH  33  36
ATOM     36  N4  UNL     1      21.632   9.297   1.681 -0.16 -0.00    -0.321 N 
ATOM     37  C26 UNL     1      21.884   8.987   0.361 +0.11 +0.00    +0.107 A 
ATOM     38  C27 UNL     1      23.247   8.955   0.136 -0.48 -0.00    -0.002 A 
ATOM     39  C28 UNL     1      23.866   9.364   1.355 -0.44 +0.00    +0.000 A 
ATOM     40  C29 UNL     1      25.211   9.564   1.735 -0.43 +0.00    +0.014 A 
ATOM     41  C33 UNL     1      22.849   9.615   2.290 -0.38 +0.00    +0.050 A 
ATOM     42  C30 UNL     1      25.516  10.048   3.010 -0.48 +0.00    +0.001 A 
ATOM     43  C31 UNL     1      24.499  10.351   3.903 -0.21 +0.00    +0.002 A 
ATOM     44  C32 UNL     1      23.159  10.152   3.557 -0.43 +0.00    +0.031 A 
BRANCH  38  45
ATOM     45  C34 UNL     1      23.927   8.598  -1.152 +0.40 +0.00    +0.313 C 
BRANCH  45  46
ATOM     46  N5  UNL     1      24.022   7.138  -1.294 -0.49 +0.00    +0.092 N 
ATOM     47  C35 UNL     1      25.380   6.742  -1.691 -0.21 +0.00    +0.275 C 
ATOM     48  C36 UNL     1      25.661   5.275  -1.391 -0.48 +0.00    +0.062 C 
ATOM     49  C37 UNL     1      25.611   5.023   0.114 -0.43 +0.00    +0.121 C 
ATOM     50  C38 UNL     1      24.599   5.923   0.827 -0.50 +0.00    +0.062 C 
ATOM     51  C39 UNL     1      23.508   6.398  -0.131 -0.36 +0.00    +0.275 C 
BRANCH  49  52
ATOM     52  O4  UNL     1      25.299   3.648   0.331 -0.61 -0.00    -0.395 OA
ATOM     53  H45 UNL     1      24.637   3.386  -0.331 +0.13 +0.00    +0.210 HD
ENDBRANCH  49  52
ENDBRANCH  45  46
ENDBRANCH  38  45
ENDBRANCH  33  36
ENDBRANCH   1  30
TORSDOF 12
TER
