USER    Run = 1
USER    DPF = ligand_399_receptor.dpf
USER  
USER    Estimated Free Energy of Binding    =  +4.16e+005 kcal/mol  [=(1)+(2)+(3)-(4)]
USER    
USER    (1) Final Intermolecular Energy     =  +4.16e+005 kcal/mol
USER        vdW + Hbond + desolv Energy     =  +2.53e+005 kcal/mol
USER        Electrostatic Energy            =  +1.63e+005 kcal/mol
USER    (2) Final Total Internal Energy     =   +0.00 kcal/mol
USER    (3) Torsional Free Energy           =   +1.19 kcal/mol
USER    (4) Unbound System's Energy  [=(2)] =   +0.00 kcal/mol
USER    
USER    
USER    NEWDPF move ligand_399.pdbqt
USER    NEWDPF about 0.000000 0.000000 0.000000
USER    NEWDPF tran0 14.573940 7.547005 2.856201
USER    NEWDPF quaternion0 0.881001 0.117843 0.193845 -0.415179
USER    NEWDPF axisangle0 0.968410 0.129535 0.213077 -130.938792
USER    NEWDPF quat0 0.968410 0.129535 0.213077 -130.938792
USER  keepresnum = 1 
USER  
REMARK  0 active torsions:
REMARK  status: ('A' for Active; 'I' for Inactive)
REMARK       I    between atoms: C3_3  and  N1_44 
REMARK       I    between atoms: C4_4  and  C5_5 
REMARK       I    between atoms: C4_4  and  N1_44 
REMARK       I    between atoms: C11_11  and  N4_48 
REMARK       I    between atoms: C13_13  and  N1_44 
REMARK       I    between atoms: C16_16  and  C19_19 
REMARK       I    between atoms: C19_19  and  N5_49 
REMARK       I    between atoms: C20_20  and  C21_21 
REMARK       I    between atoms: C20_20  and  N5_49 
REMARK       I    between atoms: C21_21  and  C22_22 
REMARK       I    between atoms: C22_22  and  C23_23 
REMARK       I    between atoms: C23_23  and  O4_58 
REMARK       I    between atoms: C24_24  and  C25_25 
REMARK       I    between atoms: C24_24  and  O4_58 
REMARK       I    between atoms: C25_25  and  S1_71 
REMARK       I    between atoms: C26_26  and  C27_27 
REMARK       I    between atoms: C26_26  and  S2_72 
REMARK       I    between atoms: C27_27  and  C28_28 
REMARK       I    between atoms: C28_28  and  N6_50 
REMARK       I    between atoms: C29_29  and  C30_30 
REMARK       I    between atoms: C29_29  and  C32_32 
REMARK       I    between atoms: C29_29  and  N6_50 
REMARK       I    between atoms: C30_30  and  C31_31 
REMARK       I    between atoms: C31_31  and  O7_61 
REMARK       I    between atoms: C32_32  and  N7_51 
REMARK       I    between atoms: C33_33  and  C34_34 
REMARK       I    between atoms: C33_33  and  C36_36 
REMARK       I    between atoms: C33_33  and  N7_51 
REMARK       I    between atoms: C34_34  and  C35_35 
REMARK       I    between atoms: C35_35  and  O10_64 
REMARK       I    between atoms: C36_36  and  N8_52 
REMARK       I    between atoms: C37_37  and  C38_38 
REMARK       I    between atoms: C37_37  and  C40_40 
REMARK       I    between atoms: C37_37  and  N8_52 
REMARK       I    between atoms: C38_38  and  C39_39 
REMARK       I    between atoms: C39_39  and  O13_67 
REMARK       I    between atoms: C40_40  and  N9_53 
REMARK       I    between atoms: C41_41  and  C42_42 
REMARK       I    between atoms: C41_41  and  C43_43 
REMARK       I    between atoms: C41_41  and  N9_53 
REMARK       I    between atoms: C42_42  and  N10_54 
REMARK       I    between atoms: C43_43  and  O16_70 
REMARK       I    between atoms: S1_71  and  S2_72 
USER                              x       y       z     vdW  Elec       q    Type
USER                           _______ _______ _______ _____ _____    ______ ____
ROOT
ATOM      1  C1  UNL     1      25.777   9.676   1.328 +0.11 +0.00    +0.014 C 
ATOM      2  C2  UNL     1      26.009   9.517   2.495 -0.49 -0.00    -0.098 C 
ATOM      3  C3  UNL     1      26.295   9.325   3.927 +3.11 +0.00    +0.216 C 
ATOM      4  C4  UNL     1      26.129  11.606   4.895+99.99 +0.00    +0.162 C 
ATOM      5  C5  UNL     1      27.250  11.647   5.918+99.99 -0.00    -0.039 A 
ATOM      6  C6  UNL     1      28.352  12.488   5.701+99.99 +0.00    +0.028 A 
ATOM      7  C7  UNL     1      29.377  12.559   6.652 +7.11 +0.00    +0.059 A 
ATOM      8  C8  UNL     1      29.334  11.818   7.832 +0.63 +0.00    +0.050 A 
ATOM      9  C9  UNL     1      28.234  10.991   8.054+34.86 +0.00    +0.031 A 
ATOM     10  C10 UNL     1      27.201  10.909   7.112+99.99 +0.00    +0.011 A 
ATOM     11  C11 UNL     1      31.365  12.649   8.574 +0.74 +0.00    +0.158 A 
ATOM     12  C12 UNL     1      30.546  13.430   6.447 +0.12 +0.00    +0.260 A 
ATOM     13  C13 UNL     1      24.226  10.016   5.150 +5.61 +0.00    +0.031 A 
ATOM     14  C14 UNL     1      23.586  10.785   6.141+30.03 +0.00    +0.030 A 
ATOM     15  C15 UNL     1      22.267  10.538   6.549 +5.73 +0.00    +0.019 A 
ATOM     16  C16 UNL     1      21.534   9.503   5.971+22.95 +0.00    +0.032 A 
ATOM     17  C17 UNL     1      22.146   8.702   5.009+99.99 +0.00    +0.019 A 
ATOM     18  C18 UNL     1      23.468   8.960   4.613 +0.07 +0.00    +0.030 A 
ATOM     19  C19 UNL     1      20.136   9.275   6.428+99.99 +0.00    +0.251 C 
ATOM     20  C20 UNL     1      17.878   8.490   5.816+99.99 +0.00    +0.123 C 
ATOM     21  C21 UNL     1      17.062   9.777   5.681+28.12 +0.00    +0.029 C 
ATOM     22  C22 UNL     1      15.595   9.573   6.040+99.99 +0.00    +0.113 C 
ATOM     23  C23 UNL     1      14.880   8.775   4.982 +0.53 +0.00    +0.258 C 
ATOM     24  C24 UNL     1      13.622   8.948   2.978 +5.76 +0.00    +0.189 C 
ATOM     25  C25 UNL     1      14.601   8.473   1.910+19.03 +0.00    +0.113 C 
ATOM     26  C26 UNL     1      11.046   7.017   1.166 -0.24 +0.00    +0.095 C 
ATOM     27  C27 UNL     1      10.357   7.552  -0.084 +0.20 +0.00    +0.114 C 
ATOM     28  C28 UNL     1       8.981   8.080   0.251 +1.23 +0.00    +0.219 C 
ATOM     29  C29 UNL     1       6.858   8.918  -0.741 +4.27 +0.00    +0.186 C 
ATOM     30  C30 UNL     1       6.504   9.895  -1.854+99.99 +0.00    +0.144 C 
ATOM     31  C31 UNL     1       7.123  11.229  -1.584+99.99 +0.00    +0.141 C 
ATOM     32  C32 UNL     1       5.910   7.698  -0.765 +2.15 +0.00    +0.241 C 
ATOM     33  C33 UNL     1       5.421   5.520   0.345 -0.19 +0.00    +0.186 C 
ATOM     34  C34 UNL     1       4.213   5.735   1.250 +0.51 +0.00    +0.144 C 
ATOM     35  C35 UNL     1       4.598   5.757   2.698 -0.18 +0.00    +0.141 C 
ATOM     36  C36 UNL     1       6.362   4.413   0.863 -0.07 +0.00    +0.241 C 
ATOM     37  C37 UNL     1       6.538   1.983   1.396 -0.16 +0.00    +0.186 C 
ATOM     38  C38 UNL     1       6.543   1.950   2.920 -0.27 +0.00    +0.144 C 
ATOM     39  C39 UNL     1       7.500   0.902   3.408+13.32 +0.00    +0.141 C 
ATOM     40  C40 UNL     1       5.805   0.767   0.805 +1.24 +0.00    +0.241 C 
ATOM     41  C41 UNL     1       4.542   0.178  -1.210 +0.91 +0.00    +0.210 C 
ATOM     42  C42 UNL     1       3.215   0.883  -0.839 -0.06 +0.00    +0.302 C 
ATOM     43  C43 UNL     1       4.727   0.215  -2.720 -0.03 +0.00    +0.165 C 
ATOM     44  N1  UNL     1      25.539  10.266   4.763+99.99 -0.00    -0.366 N 
ATOM     45  N2  UNL     1      30.351  11.877   8.800 +4.96 -0.00    -0.332 N 
ATOM     46  H2  UNL     1      30.292  11.327   9.656 -0.39 +0.00    +0.168 HD
ATOM     47  N3  UNL     1      31.489  13.396   7.442 -0.15 -0.00    -0.299 N 
ATOM     48  N4  UNL     1      32.373  12.737   9.476 -0.09 -0.00    -0.274 NA
ATOM     49  N5  UNL     1      19.277   8.711   5.508+28.82 -0.00    -0.357 N 
ATOM     50  N6  UNL     1       8.252   8.461  -0.853 -0.01 -0.00    -0.347 N 
ATOM     51  N7  UNL     1       6.200   6.740   0.175 -0.17 -0.00    -0.345 N 
ATOM     52  N8  UNL     1       5.810   3.156   0.880 -0.00 -0.00    -0.345 N 
ATOM     53  N9  UNL     1       5.675   0.840  -0.570 -0.06 -0.00    -0.343 N 
ATOM     54  N10 UNL     1       3.306   2.367  -0.796 -0.07 +0.00    +0.080 N 
ATOM     55  O1  UNL     1      30.665  14.140   5.455 -0.24 -0.00    -0.267 OA
ATOM     56  O2  UNL     1      19.793   9.611   7.556+20.65 -0.00    -0.268 OA
ATOM     57  O3  UNL     1      14.849   7.553   4.948 -0.39 -0.00    -0.265 OA
ATOM     58  O4  UNL     1      14.328   9.600   4.052 +1.73 -0.00    -0.321 OA
ATOM     59  O5  UNL     1       8.533   8.158   1.390 +0.13 -0.00    -0.274 OA
ATOM     60  O6  UNL     1       8.127  11.675  -2.112+99.99 -0.00    -0.650 OA
ATOM     61  O7  UNL     1       6.455  11.940  -0.657+99.99 -0.00    -0.776 OA
ATOM     62  O8  UNL     1       4.943   7.603  -1.516 +5.88 -0.00    -0.271 OA
ATOM     63  O9  UNL     1       4.480   4.827   3.479 +0.05 -0.00    -0.650 OA
ATOM     64  O10 UNL     1       5.124   6.930   3.086 +0.15 -0.00    -0.776 OA
ATOM     65  O11 UNL     1       7.511   4.638   1.237 -0.05 -0.00    -0.271 OA
ATOM     66  O12 UNL     1       8.368   0.339   2.765+34.49 -0.00    -0.650 OA
ATOM     67  O13 UNL     1       7.341   0.638   4.720+33.11 -0.00    -0.776 OA
ATOM     68  O14 UNL     1       5.351  -0.161   1.468+35.70 -0.00    -0.271 OA
ATOM     69  O15 UNL     1       5.282   1.098  -3.358 +0.03 -0.00    -0.648 OA
ATOM     70  O16 UNL     1       4.158  -0.831  -3.353 +0.10 -0.00    -0.775 OA
ATOM     71  S1  UNL     1      13.812   8.020   0.327+80.80 -0.00    -0.096 SA
ATOM     72  S2  UNL     1      12.706   6.348   0.792 -0.23 -0.00    -0.097 SA
ATOM     73  H39 UNL     1      32.269  14.025   7.336 +0.07 +0.00    +0.171 HD
ATOM     74  H40 UNL     1      32.303  12.009  10.180 -0.37 +0.00    +0.127 HD
ATOM     75  H41 UNL     1      33.305  12.814   9.093+99.99+99.99    +0.127 HD
ATOM     76  H42 UNL     1      19.568   8.630   4.543 +0.11 +0.00    +0.162 HD
ATOM     77  H43 UNL     1       8.573   8.145  -1.762 -0.02 +0.00    +0.163 HD
ATOM     78  H44 UNL     1       6.921   6.935   0.872 +0.08 +0.00    +0.163 HD
ATOM     79  H45 UNL     1       4.852   3.009   0.550 +0.04 +0.00    +0.163 HD
ATOM     80  H46 UNL     1       5.958   1.717  -0.997 +0.04 +0.00    +0.163 HD
ATOM     81  H47 UNL     1       2.375   2.723  -0.559 +0.05 +0.00    +0.312 HD
ATOM     82  H48 UNL     1       3.478   2.703  -1.749 +0.06 +0.00    +0.312 HD
ATOM     83  H49 UNL     1       6.963  12.775  -0.576 +7.29 +0.00    +0.167 HD
ATOM     84  H50 UNL     1       5.377   6.799   4.025 +0.12 +0.00    +0.167 HD
ATOM     85  H51 UNL     1       8.010  -0.053   4.906+51.63 +0.00    +0.167 HD
ATOM     86  H52 UNL     1       4.375  -0.695  -4.301 +0.04 +0.00    +0.167 HD
ENDROOT
TORSDOF 38
TER
