USER    Run = 1
USER    DPF = ligand_3_receptor.dpf
USER  
USER    Estimated Free Energy of Binding    = +337.73 kcal/mol  [=(1)+(2)+(3)-(4)]
USER    
USER    (1) Final Intermolecular Energy     = +336.54 kcal/mol
USER        vdW + Hbond + desolv Energy     = +336.54 kcal/mol
USER        Electrostatic Energy            =   +0.00 kcal/mol
USER    (2) Final Total Internal Energy     =   +3.59 kcal/mol
USER    (3) Torsional Free Energy           =   +1.19 kcal/mol
USER    (4) Unbound System's Energy  [=(2)] =   +3.59 kcal/mol
USER    
USER    
USER    NEWDPF move ligand_3.pdbqt
USER    NEWDPF about 0.000000 0.000000 0.000000
USER    NEWDPF tran0 17.025564 5.232825 2.885927
USER    NEWDPF quaternion0 0.136418 -0.662068 -0.724507 -0.134708
USER    NEWDPF axisangle0 0.137673 -0.668158 -0.731171 -164.516492
USER    NEWDPF quat0 0.137673 -0.668158 -0.731171 -164.516492
USER    NEWDPF dihe0 39.77 -164.63 157.76 -178.09 18.36 -23.69 -87.18 -176.09 -138.64 82.42 35.40 62.10 100.81 -173.91 -179.82 -179.73 
USER  keepresnum = 1 
USER  
REMARK  16 active torsions:
REMARK  status: ('A' for Active; 'I' for Inactive)
REMARK    1  A    between atoms: C9_9  and  C51_51 
REMARK    2  A    between atoms: C10_10  and  C17_17 
REMARK       I    between atoms: C17_17  and  N2_59 
REMARK    3  A    between atoms: C18_18  and  N2_59 
REMARK    4  A    between atoms: C21_21  and  C24_24 
REMARK       I    between atoms: C24_24  and  N3_60 
REMARK    5  A    between atoms: C25_25  and  C26_26 
REMARK    6  A    between atoms: C25_25  and  N3_60 
REMARK    7  A    between atoms: C26_26  and  C27_27 
REMARK    8  A    between atoms: C27_27  and  C28_28 
REMARK    9  A    between atoms: C28_28  and  C29_29 
REMARK   10  A    between atoms: C29_29  and  O4_71 
REMARK   11  A    between atoms: C30_30  and  O4_71 
REMARK   12  A    between atoms: C31_31  and  O9_76 
REMARK   13  A    between atoms: C33_33  and  N4_61 
REMARK   14  A    between atoms: C35_35  and  O5_72 
REMARK   15  A    between atoms: C37_37  and  N5_63 
REMARK   16  A    between atoms: C45_45  and  N6_65 
USER                              x       y       z     vdW  Elec       q    Type
USER                           _______ _______ _______ _____ _____    ______ ____
ROOT
ATOM      1  C24 UNL     1      16.879   8.378   4.301 -0.33 +0.00    +0.251 C 
ATOM      2  N3  UNL     1      16.150   7.358   4.870 -0.07 -0.00    -0.357 N 
ATOM      3  O2  UNL     1      16.403   9.478   4.039 -0.33 -0.00    -0.268 OA
ATOM      4  H54 UNL     1      16.578   6.458   5.058 +0.33 +0.00    +0.162 HD
ENDROOT
BRANCH   1   5
ATOM      5  C21 UNL     1      18.316   8.100   4.018 -0.40 +0.00    +0.032 A 
ATOM      6  C20 UNL     1      18.705   6.770   3.827+12.53 +0.00    +0.019 A 
ATOM      7  C19 UNL     1      20.042   6.456   3.564+38.29 +0.00    +0.030 A 
ATOM      8  C18 UNL     1      21.014   7.463   3.491+17.94 +0.00    +0.034 A 
ATOM      9  C23 UNL     1      20.625   8.787   3.704 +0.56 +0.00    +0.030 A 
ATOM     10  C22 UNL     1      19.286   9.107   3.968 +1.15 +0.00    +0.019 A 
BRANCH   8  11
ATOM     11  N2  UNL     1      22.343   7.056   3.231+18.79 -0.00    -0.325 N 
ATOM     12  C17 UNL     1      22.751   5.992   2.453+59.97 +0.00    +0.256 C 
ATOM     13  O1  UNL     1      21.985   5.147   1.981+38.03 -0.00    -0.271 OA
ATOM     14  H53 UNL     1      23.039   7.543   3.794 +0.63 +0.00    +0.169 HD
BRANCH  12  15
ATOM     15  C10 UNL     1      24.282   5.807   2.223+16.22 +0.00    +0.323 C 
ATOM     16  C9  UNL     1      24.872   6.119   0.840 -0.45 +0.00    +0.089 C 
ATOM     17  C8  UNL     1      25.608   7.504   1.015 -0.32 +0.00    +0.116 A 
ATOM     18  C5  UNL     1      26.999   7.608   0.395 -0.37 -0.00    -0.010 A 
ATOM     19  C11 UNL     1      25.460   7.896   2.551 -0.43 +0.00    +0.180 C 
ATOM     20  C57 UNL     1      24.828   8.473   0.071 -0.04 +0.00    +0.239 A 
ATOM     21  C4  UNL     1      26.984   8.521  -0.658 +2.38 +0.00    +0.043 A 
ATOM     22  C6  UNL     1      28.187   6.962   0.700 -0.31 +0.00    +0.011 A 
ATOM     23  C3  UNL     1      28.095   8.826  -1.421+33.69 +0.00    +0.037 A 
ATOM     24  N8  UNL     1      25.714   9.036  -0.824+16.19 -0.00    -0.326 N 
ATOM     25  C2  UNL     1      29.299   8.187  -1.105 -0.05 -0.00    -0.060 A 
ATOM     26  C1  UNL     1      30.534   8.449  -1.917 -0.26 +0.00    +0.048 C 
ATOM     27  C7  UNL     1      29.331   7.249  -0.054 -0.24 +0.00    +0.007 A 
ATOM     28  H56 UNL     1      25.435   9.682  -1.547+18.51 +0.00    +0.169 HD
ATOM     29  C12 UNL     1      26.763   8.287   3.307 +0.27 +0.00    +0.043 C 
ATOM     30  C16 UNL     1      24.419   8.998   2.917 -0.60 +0.00    +0.043 C 
ATOM     31  N1  UNL     1      25.044   6.625   3.178 +5.44 +0.00    +0.109 N 
ATOM     32  C13 UNL     1      27.267   9.697   2.997 +4.38 +0.00    +0.003 C 
ATOM     33  C14 UNL     1      26.206  10.742   3.318 +8.97 +0.00    +0.000 C 
ATOM     34  C15 UNL     1      24.888  10.427   2.626 -0.52 +0.00    +0.003 C 
ATOM     35  H52 UNL     1      24.523   6.744   4.050 +4.26 +0.00    +0.318 HD
ATOM     36  O10 UNL     1      23.618   8.660   0.059 -0.32 -0.00    -0.272 OA
BRANCH  16  37
ATOM     37  C51 UNL     1      25.664   4.988   0.185 -0.45 -0.00    -0.009 A 
ATOM     38  C52 UNL     1      25.315   4.399  -1.039 -0.38 +0.00    +0.144 A 
ATOM     39  C53 UNL     1      26.070   3.357  -1.582 +0.25 +0.00    +0.073 A 
ATOM     40  F1  UNL     1      24.215   4.811  -1.686 +0.04 -0.00    -0.204 F 
ATOM     41  C54 UNL     1      27.193   2.880  -0.911 +8.84 +0.00    +0.027 A 
ATOM     42 CL1  UNL     1      25.615   2.634  -3.079 +1.42 -0.00    -0.081 Cl
ATOM     43  C55 UNL     1      27.556   3.444   0.310 +1.21 +0.00    +0.002 A 
ATOM     44  C56 UNL     1      26.797   4.485   0.854 +1.56 +0.00    +0.011 A 
ENDBRANCH  16  37
ENDBRANCH  12  15
ENDBRANCH   8  11
ENDBRANCH   1   5
BRANCH   2  45
ATOM     45  C25 UNL     1      14.726   7.460   5.089 -0.37 +0.00    +0.123 C 
BRANCH  45  46
ATOM     46  C26 UNL     1      14.377   7.864   6.524 +6.31 +0.00    +0.027 C 
BRANCH  46  47
ATOM     47  C27 UNL     1      13.391   6.932   7.226 -0.48 +0.00    +0.082 C 
BRANCH  47  48
ATOM     48  C28 UNL     1      13.583   6.912   8.730 -0.57 +0.00    +0.150 C 
ATOM     49  O3  UNL     1      14.704   7.109   9.215 -0.49 -0.00    -0.296 OA
BRANCH  48  50
ATOM     50  C29 UNL     1      12.349   6.786   9.605 +2.15 +0.00    +0.254 C 
BRANCH  50  51
ATOM     51  O4  UNL     1      12.016   5.410   9.754 -0.21 -0.00    -0.338 OA
BRANCH  51  52
ATOM     52  C30 UNL     1      11.336   4.967   8.642 -0.25 +0.00    +0.136 A 
ATOM     53  C31 UNL     1      12.042   4.349   7.598 -0.42 +0.00    +0.106 A 
ATOM     54  C32 UNL     1      11.342   3.952   6.458 -0.41 +0.00    +0.070 A 
ATOM     55  C33 UNL     1       9.964   4.186   6.349 -0.39 +0.00    +0.053 A 
ATOM     56  C34 UNL     1       9.275   4.803   7.405 -0.40 +0.00    +0.070 A 
ATOM     57  C35 UNL     1       9.955   5.211   8.551 +0.31 +0.00    +0.106 A 
BRANCH  53  58
ATOM     58  O9  UNL     1      13.386   4.176   7.796 -0.37 -0.00    -0.353 OA
ATOM     59  C50 UNL     1      14.254   4.468   6.708 +0.84 +0.00    +0.210 C 
ENDBRANCH  53  58
BRANCH  55  60
ATOM     60  N4  UNL     1       9.298   3.747   5.189 -0.21 -0.00    -0.300 N 
ATOM     61  N5  UNL     1       8.383   4.540   4.876 -0.12 -0.00    -0.300 N 
ATOM     62  H5  UNL     1       8.121   5.370   5.408 +0.11 +0.00    +0.187 HD
ATOM     63  H4  UNL     1       9.529   2.897   4.675 -0.13 +0.00    +0.187 HD
BRANCH  61  64
ATOM     64  C37 UNL     1       7.770   4.120   3.684 -0.21 +0.00    +0.057 A 
ATOM     65  C38 UNL     1       6.646   3.275   3.684 -0.22 +0.00    +0.031 A 
ATOM     66  C39 UNL     1       6.031   2.872   2.482 -0.17 +0.00    +0.003 A 
ATOM     67  C40 UNL     1       6.524   3.315   1.255 -0.10 +0.00    +0.018 A 
ATOM     68  C41 UNL     1       7.619   4.157   1.278 -0.10 +0.00    +0.042 A 
ATOM     69  C42 UNL     1       8.236   4.563   2.459 -0.16 +0.00    +0.004 A 
ATOM     70  C44 UNL     1       8.339   4.770   0.156 -0.03 +0.00    +0.255 A 
ATOM     71  C43 UNL     1       9.393   5.451   2.156 -0.11 +0.00    +0.169 A 
ATOM     72  N6  UNL     1       9.320   5.582   0.705 -0.05 -0.00    -0.330 N 
ATOM     73  O6  UNL     1       8.095   4.579  -1.018 -0.08 -0.00    -0.267 OA
BRANCH  72  74
ATOM     74  C45 UNL     1      10.389   6.156  -0.104 -0.24 +0.00    +0.180 C 
ATOM     75  C46 UNL     1      10.846   5.219  -1.218 -0.27 +0.00    +0.044 C 
ATOM     76  C47 UNL     1      12.018   5.845  -1.957 +0.08 +0.00    +0.106 C 
ATOM     77  C48 UNL     1      11.663   7.219  -2.480 +0.06 +0.00    +0.224 C 
ATOM     78  N7  UNL     1      10.848   7.985  -1.686 +0.29 -0.00    -0.296 N 
ATOM     79  O7  UNL     1      12.086   7.643  -3.551 +0.42 -0.00    -0.273 OA
ATOM     80  C49 UNL     1       9.991   7.508  -0.721 -0.15 +0.00    +0.247 C 
ATOM     81  H55 UNL     1      10.570   8.866  -2.099 -0.32 +0.00    +0.171 HD
ATOM     82  O8  UNL     1       8.986   8.144  -0.416 -0.18 -0.00    -0.271 OA
ENDBRANCH  72  74
ENDBRANCH  61  64
ENDBRANCH  55  60
BRANCH  57  83
ATOM     83  O5  UNL     1       9.377   5.819   9.636 +3.32 -0.00    -0.353 OA
ATOM     84  C36 UNL     1      10.245   6.266  10.670+23.87 +0.00    +0.210 C 
ENDBRANCH  57  83
ENDBRANCH  51  52
ENDBRANCH  50  51
ENDBRANCH  48  50
ENDBRANCH  47  48
ENDBRANCH  46  47
ENDBRANCH  45  46
ENDBRANCH   2  45
TORSDOF 16
TER
