USER    Run = 1
USER    DPF = ligand_217_receptor.dpf
USER  
USER    Estimated Free Energy of Binding    =  +7.55e+003 kcal/mol  [=(1)+(2)+(3)-(4)]
USER    
USER    (1) Final Intermolecular Energy     =  +7.54e+003 kcal/mol
USER        vdW + Hbond + desolv Energy     =  +7.54e+003 kcal/mol
USER        Electrostatic Energy            =   +0.00 kcal/mol
USER    (2) Final Total Internal Energy     =   +0.00 kcal/mol
USER    (3) Torsional Free Energy           =   +1.19 kcal/mol
USER    (4) Unbound System's Energy  [=(2)] =   +0.00 kcal/mol
USER    
USER    
USER    NEWDPF move ligand_217.pdbqt
USER    NEWDPF about 0.000000 0.000000 0.000000
USER    NEWDPF tran0 17.649565 7.716439 1.216170
USER    NEWDPF quaternion0 0.067263 -0.251114 0.964778 0.040264
USER    NEWDPF axisangle0 0.067317 -0.251318 0.965561 175.384839
USER    NEWDPF quat0 0.067317 -0.251318 0.965561 175.384839
USER  keepresnum = 1 
USER  
REMARK  0 active torsions:
REMARK  status: ('A' for Active; 'I' for Inactive)
REMARK       I    between atoms: C2_2  and  C3_3 
REMARK       I    between atoms: C3_3  and  C5_5 
REMARK       I    between atoms: C5_5  and  C6_6 
REMARK       I    between atoms: C5_5  and  N3_75 
REMARK       I    between atoms: C6_6  and  N1_73 
REMARK       I    between atoms: C7_7  and  C8_8 
REMARK       I    between atoms: C7_7  and  C9_9 
REMARK       I    between atoms: C7_7  and  N1_73 
REMARK       I    between atoms: C8_8  and  O2_56 
REMARK       I    between atoms: C9_9  and  N2_74 
REMARK       I    between atoms: C10_10  and  C11_11 
REMARK       I    between atoms: C10_10  and  C14_14 
REMARK       I    between atoms: C10_10  and  N2_74 
REMARK       I    between atoms: C14_14  and  O5_59 
REMARK       I    between atoms: C15_15  and  C16_16 
REMARK       I    between atoms: C15_15  and  N3_75 
REMARK       I    between atoms: C16_16  and  C17_17 
REMARK       I    between atoms: C16_16  and  N4_76 
REMARK       I    between atoms: C17_17  and  C18_18 
REMARK       I    between atoms: C21_21  and  O7_61 
REMARK       I    between atoms: C24_24  and  C25_25 
REMARK       I    between atoms: C24_24  and  N4_76 
REMARK       I    between atoms: C25_25  and  C26_26 
REMARK       I    between atoms: C25_25  and  N5_77 
REMARK       I    between atoms: C26_26  and  O9_63 
REMARK       I    between atoms: C28_28  and  C29_29 
REMARK       I    between atoms: C28_28  and  N5_77 
REMARK       I    between atoms: C29_29  and  C30_30 
REMARK       I    between atoms: C29_29  and  N6_78 
REMARK       I    between atoms: C30_30  and  O11_65 
REMARK       I    between atoms: C32_32  and  C33_33 
REMARK       I    between atoms: C32_32  and  N6_78 
REMARK       I    between atoms: C37_37  and  C38_38 
REMARK       I    between atoms: C37_37  and  N7_79 
REMARK       I    between atoms: C38_38  and  C39_39 
REMARK       I    between atoms: C38_38  and  N9_81 
REMARK       I    between atoms: C39_39  and  C40_40 
REMARK       I    between atoms: C40_40  and  N8_80 
REMARK       I    between atoms: C41_41  and  C42_42 
REMARK       I    between atoms: C41_41  and  N9_81 
REMARK       I    between atoms: C42_42  and  C43_43 
REMARK       I    between atoms: C42_42  and  N11_83 
REMARK       I    between atoms: C43_43  and  C44_44 
REMARK       I    between atoms: C44_44  and  C45_45 
REMARK       I    between atoms: C45_45  and  N10_82 
REMARK       I    between atoms: C46_46  and  C47_47 
REMARK       I    between atoms: C46_46  and  N11_83 
REMARK       I    between atoms: C47_47  and  C48_48 
REMARK       I    between atoms: C47_47  and  N12_84 
REMARK       I    between atoms: C48_48  and  C49_49 
REMARK       I    between atoms: C52_52  and  O18_72 
USER                              x       y       z     vdW  Elec       q    Type
USER                           _______ _______ _______ _____ _____    ______ ____
ROOT
ATOM      1  C1  UNL     1      26.859  14.137   0.123+99.99 +0.00    +0.005 C 
ATOM      2  C2  UNL     1      26.363  12.703  -0.011+44.51 +0.00    +0.002 C 
ATOM      3  C3  UNL     1      25.085  12.411   0.804+16.75 +0.00    +0.013 C 
ATOM      4  C4  UNL     1      25.309  12.625   2.307+12.65 +0.00    +0.012 C 
ATOM      5  C5  UNL     1      24.517  11.017   0.426+99.99 +0.00    +0.180 C 
ATOM      6  C6  UNL     1      25.429   9.818   0.789+10.95 +0.00    +0.241 C 
ATOM      7  C7  UNL     1      26.083   7.547   0.056 -0.29 +0.00    +0.200 C 
ATOM      8  C8  UNL     1      25.347   6.258  -0.327 -0.35 +0.00    +0.199 C 
ATOM      9  C9  UNL     1      27.254   7.772  -0.926 +0.10 +0.00    +0.243 C 
ATOM     10  C10 UNL     1      29.295   6.746  -1.882 -0.19 +0.00    +0.185 C 
ATOM     11  C11 UNL     1      30.554   6.097  -1.263 -0.11 +0.00    +0.010 C 
ATOM     12  C12 UNL     1      31.814   6.395  -2.080 -0.05 +0.00    +0.012 C 
ATOM     13  C13 UNL     1      30.417   4.588  -1.042 -0.10 +0.00    +0.012 C 
ATOM     14  C14 UNL     1      28.847   6.047  -3.178 +1.38 +0.00    +0.163 C 
ATOM     15  C15 UNL     1      22.291   9.934   0.444 -0.33 +0.00    +0.241 C 
ATOM     16  C16 UNL     1      20.996   9.678   1.249 -0.18 +0.00    +0.180 C 
ATOM     17  C17 UNL     1      21.235   9.130   2.671 -0.30 +0.00    +0.073 C 
ATOM     18  C18 UNL     1      22.089   7.883   2.748 +2.21 -0.00    -0.056 A 
ATOM     19  C19 UNL     1      21.561   6.632   2.398+99.99 +0.00    +0.010 A 
ATOM     20  C20 UNL     1      22.360   5.487   2.433+39.51 +0.00    +0.037 A 
ATOM     21  C21 UNL     1      23.689   5.594   2.822+99.99 +0.00    +0.065 A 
ATOM     22  C22 UNL     1      24.224   6.817   3.201+99.99 +0.00    +0.037 A 
ATOM     23  C23 UNL     1      23.425   7.960   3.168 +2.12 +0.00    +0.010 A 
ATOM     24  C24 UNL     1      18.764   8.786   0.614+17.20 +0.00    +0.243 C 
ATOM     25  C25 UNL     1      18.007   7.856  -0.359+95.02 +0.00    +0.205 C 
ATOM     26  C26 UNL     1      18.318   8.147  -1.842 +4.02 +0.00    +0.146 C 
ATOM     27  C27 UNL     1      18.045   9.590  -2.255+69.60 +0.00    +0.042 C 
ATOM     28  C28 UNL     1      15.701   6.949  -0.328+10.39 +0.00    +0.243 C 
ATOM     29  C29 UNL     1      14.305   7.125   0.303+10.46 +0.00    +0.205 C 
ATOM     30  C30 UNL     1      13.343   7.790  -0.705+10.39 +0.00    +0.146 C 
ATOM     31  C31 UNL     1      13.027   6.917  -1.915 +5.71 +0.00    +0.042 C 
ATOM     32  C32 UNL     1      14.800   7.433   2.720 +5.83 +0.00    +0.236 C 
ATOM     33  C33 UNL     1      14.672   8.401   3.911 -0.42 +0.00    +0.158 C 
ATOM     34  C34 UNL     1      14.675   7.749   5.285 -0.07 +0.00    +0.031 C 
ATOM     35  C35 UNL     1      14.148   8.854   6.201 +4.36 +0.00    +0.017 C 
ATOM     36  C36 UNL     1      13.656   9.968   5.270+63.22 +0.00    +0.099 C 
ATOM     37  C37 UNL     1      12.280   8.901   3.632 +0.48 +0.00    +0.223 C 
ATOM     38  C38 UNL     1      11.403   9.941   2.861+99.99 +0.00    +0.179 C 
ATOM     39  C39 UNL     1      10.836  11.064   3.728+99.99 +0.00    +0.137 C 
ATOM     40  C40 UNL     1      11.743  12.269   3.786+99.99 +0.00    +0.217 C 
ATOM     41  C41 UNL     1       9.244   8.687   2.757 +3.03 +0.00    +0.241 C 
ATOM     42  C42 UNL     1       8.547   7.564   1.970 -0.25 +0.00    +0.177 C 
ATOM     43  C43 UNL     1       7.080   7.420   2.378 -0.37 +0.00    +0.044 C 
ATOM     44  C44 UNL     1       6.337   6.431   1.479 -0.28 +0.00    +0.105 C 
ATOM     45  C45 UNL     1       4.912   6.215   1.938 -0.11 +0.00    +0.215 C 
ATOM     46  C46 UNL     1      10.148   5.741   1.421 -0.09 +0.00    +0.251 C 
ATOM     47  C47 UNL     1      11.004   4.584   1.989+99.99 +0.00    +0.313 C 
ATOM     48  C48 UNL     1      10.294   3.686   3.020+12.55 +0.00    +0.083 C 
ATOM     49  C49 UNL     1       8.966   3.122   2.566 -0.14 -0.00    -0.056 A 
ATOM     50  C50 UNL     1       8.845   2.427   1.353 -0.19 +0.00    +0.010 A 
ATOM     51  C51 UNL     1       7.602   1.950   0.927 -0.19 +0.00    +0.037 A 
ATOM     52  C52 UNL     1       6.482   2.156   1.723 -0.18 +0.00    +0.065 A 
ATOM     53  C53 UNL     1       6.586   2.806   2.944 -0.22 +0.00    +0.037 A 
ATOM     54  C54 UNL     1       7.827   3.284   3.368 -0.26 +0.00    +0.010 A 
ATOM     55  O1  UNL     1      26.208   9.814   1.738 -0.22 -0.00    -0.271 OA
ATOM     56  O2  UNL     1      26.005   5.117   0.235 -0.25 -0.00    -0.398 OA
ATOM     57  O3  UNL     1      27.330   8.746  -1.673+23.04 -0.00    -0.271 OA
ATOM     58  O4  UNL     1      29.489   5.959  -4.213 -0.28 -0.00    -0.648 OA
ATOM     59  O5  UNL     1      27.640   5.444  -3.092 +3.20 -0.00    -0.775 OA
ATOM     60  O6  UNL     1      22.477   9.452  -0.675 -0.09 -0.00    -0.271 OA
ATOM     61  O7  UNL     1      24.525   4.515   2.798 +4.58 -0.00    -0.361 OA
ATOM     62  O8  UNL     1      18.189   9.412   1.506 -0.26 -0.00    -0.271 OA
ATOM     63  O9  UNL     1      19.690   7.835  -2.120 +3.68 -0.00    -0.393 OA
ATOM     64  O10 UNL     1      15.968   6.051  -1.122+99.99 -0.00    -0.271 OA
ATOM     65  O11 UNL     1      12.105   8.117  -0.037+32.41 -0.00    -0.393 OA
ATOM     66  O12 UNL     1      15.380   6.352   2.804+99.99 -0.00    -0.272 OA
ATOM     67  O13 UNL     1      11.932   7.739   3.847 -0.28 -0.00    -0.277 OA
ATOM     68  O14 UNL     1      12.811  12.377   3.199+99.99 -0.00    -0.274 OA
ATOM     69  O15 UNL     1       8.900   9.016   3.891 +0.61 -0.00    -0.271 OA
ATOM     70  O16 UNL     1       4.309   6.959   2.701 -0.18 -0.00    -0.274 OA
ATOM     71  O17 UNL     1      10.297   6.151   0.267 -0.19 -0.00    -0.271 OA
ATOM     72  O18 UNL     1       5.244   1.750   1.322 -0.09 -0.00    -0.361 OA
ATOM     73  N1  UNL     1      25.193   8.700   0.016 +0.30 -0.00    -0.344 N 
ATOM     74  N2  UNL     1      28.213   6.776  -0.891 -0.12 -0.00    -0.344 N 
ATOM     75  N3  UNL     1      23.203  10.787   1.036 +6.17 -0.00    -0.346 N 
ATOM     76  N4  UNL     1      20.126   8.814   0.456+45.07 -0.00    -0.346 N 
ATOM     77  N5  UNL     1      16.585   7.967  -0.046 -0.25 -0.00    -0.344 N 
ATOM     78  N6  UNL     1      14.402   7.969   1.511 +5.68 -0.00    -0.344 N 
ATOM     79  N7  UNL     1      13.568   9.371   3.944 +4.21 -0.00    -0.238 NA
ATOM     80  N8  UNL     1      11.282  13.273   4.589+38.56 -0.00    -0.370 N 
ATOM     81  N9  UNL     1      10.370   9.190   2.134+99.99 -0.00    -0.346 N 
ATOM     82  N10 UNL     1       4.298   5.126   1.392 -0.07 -0.00    -0.370 N 
ATOM     83  N11 UNL     1       9.293   6.350   2.306 -0.08 -0.00    -0.346 N 
ATOM     84  N12 UNL     1      12.240   5.168   2.526+12.76 +0.00    +0.092 N 
ATOM     85  H61 UNL     1      25.694   5.046   1.162 +0.14 +0.00    +0.209 HD
ATOM     86  H62 UNL     1      27.510   5.057  -3.983 +5.64 +0.00    +0.167 HD
ATOM     87  H63 UNL     1      23.981   3.714   2.697 +0.21 +0.00    +0.217 HD
ATOM     88  H64 UNL     1      19.814   7.920  -3.083 -0.10 +0.00    +0.210 HD
ATOM     89  H65 UNL     1      11.558   7.295  -0.062 +0.12 +0.00    +0.210 HD
ATOM     90  H66 UNL     1       5.347   1.162   0.553 +0.06 +0.00    +0.217 HD
ATOM     91  H67 UNL     1      24.607   8.822  -0.807 +0.13 +0.00    +0.163 HD
ATOM     92  H68 UNL     1      27.874   5.872  -0.564 +0.09 +0.00    +0.163 HD
ATOM     93  H69 UNL     1      23.144  10.914   2.036 +1.34 +0.00    +0.163 HD
ATOM     94  H70 UNL     1      20.514   8.426  -0.411 +1.04 +0.00    +0.163 HD
ATOM     95  H71 UNL     1      16.359   8.521   0.779 +0.07 +0.00    +0.163 HD
ATOM     96  H72 UNL     1      13.749   8.742   1.552+99.99 +0.00    +0.163 HD
ATOM     97  H73 UNL     1      10.318  13.309   4.894 +0.15 +0.00    +0.159 HD
ATOM     98  H74 UNL     1      11.807  14.139   4.586 +0.06 +0.00    +0.159 HD
ATOM     99  H75 UNL     1      10.716   8.670   1.326 +4.21 +0.00    +0.163 HD
ATOM    100  H76 UNL     1       3.385   4.908   1.770 +0.02 +0.00    +0.159 HD
ATOM    101  H77 UNL     1       4.848   4.331   1.086 +0.04 +0.00    +0.159 HD
ATOM    102  H78 UNL     1       9.477   6.214   3.294 +0.09 +0.00    +0.163 HD
ATOM    103  H79 UNL     1      12.037   5.920   3.198 +0.15 +0.00    +0.313 HD
ATOM    104  H80 UNL     1      12.799   4.476   3.021+99.99 +0.00    +0.313 HD
ENDROOT
TORSDOF 40
TER
