USER    Run = 1
USER    DPF = ligand_502_receptor.dpf
USER  
USER    Estimated Free Energy of Binding    =  +53.54 kcal/mol  [=(1)+(2)+(3)-(4)]
USER    
USER    (1) Final Intermolecular Energy     =  +52.35 kcal/mol
USER        vdW + Hbond + desolv Energy     =  +52.35 kcal/mol
USER        Electrostatic Energy            =   +0.00 kcal/mol
USER    (2) Final Total Internal Energy     =   -4.30 kcal/mol
USER    (3) Torsional Free Energy           =   +1.19 kcal/mol
USER    (4) Unbound System's Energy  [=(2)] =   -4.30 kcal/mol
USER    
USER    
USER    NEWDPF move ligand_502.pdbqt
USER    NEWDPF about 0.000000 0.000000 0.000000
USER    NEWDPF tran0 25.064271 7.015388 0.911022
USER    NEWDPF quaternion0 0.306628 0.797021 -0.075193 0.514862
USER    NEWDPF axisangle0 0.357679 0.929716 -0.087712 118.023498
USER    NEWDPF quat0 0.357679 0.929716 -0.087712 118.023498
USER    NEWDPF dihe0 53.62 145.82 118.14 108.36 -135.82 -75.87 -2.81 171.10 -84.96 180.00 178.21 133.36 -123.40 88.43 179.91 179.60 36.17 111.75 -180.00 -53.29 -16.51 -77.42 
USER  keepresnum = 1 
USER  
REMARK  22 active torsions:
REMARK  status: ('A' for Active; 'I' for Inactive)
REMARK    1  A    between atoms: C4_4  and  C5_5 
REMARK       I    between atoms: C5_5  and  N3_50 
REMARK    2  A    between atoms: C6_6  and  N3_50 
REMARK    3  A    between atoms: C8_8  and  C10_10 
REMARK       I    between atoms: C10_10  and  N5_52 
REMARK    4  A    between atoms: C11_11  and  N5_52 
REMARK    5  A    between atoms: C13_13  and  C15_15 
REMARK       I    between atoms: C15_15  and  N7_54 
REMARK    6  A    between atoms: C16_16  and  C17_17 
REMARK    7  A    between atoms: C16_16  and  N7_54 
REMARK    8  A    between atoms: C17_17  and  C18_18 
REMARK    9  A    between atoms: C18_18  and  C19_19 
REMARK       I    between atoms: C19_19  and  N8_55 
REMARK   10  A    between atoms: C20_20  and  N8_55 
REMARK   11  A    between atoms: C22_22  and  C23_23 
REMARK       I    between atoms: C23_23  and  N11_59 
REMARK   12  A    between atoms: C24_24  and  N11_59 
REMARK   13  A    between atoms: C26_26  and  C28_28 
REMARK       I    between atoms: C28_28  and  N13_61 
REMARK   14  A    between atoms: C29_29  and  N13_61 
REMARK   15  A    between atoms: C31_31  and  C33_33 
REMARK       I    between atoms: C33_33  and  N15_63 
REMARK   16  A    between atoms: C34_34  and  C35_35 
REMARK   17  A    between atoms: C34_34  and  N15_63 
REMARK   18  A    between atoms: C35_35  and  C36_36 
REMARK       I    between atoms: C36_36  and  N16_64 
REMARK   19  A    between atoms: C37_37  and  C38_38 
REMARK   20  A    between atoms: C37_37  and  N16_64 
REMARK   21  A    between atoms: C38_38  and  C39_39 
REMARK   22  A    between atoms: C39_39  and  N17_65 
USER                              x       y       z     vdW  Elec       q    Type
USER                           _______ _______ _______ _____ _____    ______ ____
ROOT
ATOM      1  C20 UNL     1      31.495   5.616   0.734 -0.11 +0.00    +0.125 A 
ATOM      2  C21 UNL     1      32.367   6.538   1.252 -0.12 +0.00    +0.140 A 
ATOM      3  C22 UNL     1      30.298   6.918   1.951 -0.26 +0.00    +0.178 A 
ATOM      4  C44 UNL     1      32.079   8.495   2.775 +1.37 +0.00    +0.157 C 
ATOM      5  N9  UNL     1      31.598   7.362   2.024 -0.16 -0.00    -0.339 N 
ATOM      6  N10 UNL     1      30.219   5.850   1.166 -0.12 -0.00    -0.323 N 
ATOM      7  H10 UNL     1      29.383   5.316   0.935 +0.08 +0.00    +0.169 HD
ENDROOT
BRANCH   1   8
ATOM      8  N8  UNL     1      31.725   4.560  -0.106 -0.00 -0.00    -0.312 N 
ATOM      9  C19 UNL     1      31.912   4.649  -1.471 +0.00 +0.00    +0.223 C 
ATOM     10  O4  UNL     1      31.916   5.682  -2.131 -0.00 -0.00    -0.273 OA
ATOM     11  H55 UNL     1      31.733   3.660   0.352 +0.06 +0.00    +0.170 HD
BRANCH   9  12
ATOM     12  C18 UNL     1      32.156   3.282  -2.089 -0.03 +0.00    +0.105 C 
BRANCH  12  13
ATOM     13  C17 UNL     1      31.077   2.902  -3.103 -0.05 +0.00    +0.029 C 
BRANCH  13  14
ATOM     14  C16 UNL     1      29.757   2.520  -2.438 -0.13 +0.00    +0.123 C 
BRANCH  14  15
ATOM     15  N7  UNL     1      28.823   3.623  -2.358 -0.04 -0.00    -0.356 N 
ATOM     16  C15 UNL     1      28.614   4.329  -1.193 -0.12 +0.00    +0.268 C 
ATOM     17  O3  UNL     1      29.210   4.053  -0.157 -0.15 -0.00    -0.266 OA
ATOM     18  H54 UNL     1      28.397   3.954  -3.211 +0.06 +0.00    +0.162 HD
BRANCH  16  19
ATOM     19  C13 UNL     1      27.650   5.414  -1.300 -0.22 +0.00    +0.104 A 
ATOM     20  C14 UNL     1      26.310   5.454  -0.927 -0.35 +0.00    +0.066 A 
ATOM     21  C11 UNL     1      25.787   6.733  -1.225 -0.34 +0.00    +0.053 A 
ATOM     22  C12 UNL     1      26.815   7.464  -1.768 +2.82 +0.00    +0.120 A 
ATOM     23  N6  UNL     1      27.935   6.670  -1.805 -0.13 -0.00    -0.354 N 
ATOM     24  C45 UNL     1      29.219   7.105  -2.318 -0.20 +0.00    +0.156 C 
BRANCH  21  25
ATOM     25  N5  UNL     1      24.518   7.247  -1.041 -0.25 -0.00    -0.320 N 
ATOM     26  C10 UNL     1      24.224   8.466  -0.456 -0.16 +0.00    +0.273 C 
ATOM     27  O2  UNL     1      25.070   9.233  -0.002 +2.06 -0.00    -0.266 OA
ATOM     28  H53 UNL     1      23.756   6.652  -1.324 +0.12 +0.00    +0.169 HD
BRANCH  26  29
ATOM     29  C8  UNL     1      22.796   8.769  -0.403 -0.29 +0.00    +0.105 A 
ATOM     30  C9  UNL     1      22.107   9.704   0.364 -0.43 +0.00    +0.066 A 
ATOM     31  C6  UNL     1      20.725   9.618   0.066 +0.28 +0.00    +0.053 A 
ATOM     32  C7  UNL     1      20.587   8.627  -0.873 +9.12 +0.00    +0.120 A 
ATOM     33  N4  UNL     1      21.828   8.112  -1.146 +0.89 -0.00    -0.354 N 
ATOM     34  C46 UNL     1      22.064   7.049  -2.102 +3.23 +0.00    +0.156 C 
BRANCH  31  35
ATOM     35  N3  UNL     1      19.741  10.397   0.634 -0.24 -0.00    -0.319 N 
ATOM     36  C5  UNL     1      19.089  11.466   0.050 -0.34 +0.00    +0.290 C 
ATOM     37  O1  UNL     1      19.280  11.893  -1.085 +0.14 -0.00    -0.264 OA
ATOM     38  H52 UNL     1      19.449  10.187   1.584 +0.14 +0.00    +0.169 HD
BRANCH  36  39
ATOM     39  C4  UNL     1      18.115  12.052   0.966 -0.47 +0.00    +0.176 A 
ATOM     40  N1  UNL     1      16.909  11.512   1.349 -0.26 -0.00    -0.342 N 
ATOM     41  C1  UNL     1      16.364  10.249   0.914 -0.43 +0.00    +0.157 C 
ATOM     42  C2  UNL     1      16.312  12.384   2.215 +1.73 +0.00    +0.109 A 
ATOM     43  C3  UNL     1      17.187  13.436   2.327 +0.66 +0.00    +0.107 A 
ATOM     44  N2  UNL     1      18.299  13.228   1.555 -0.35 -0.00    -0.346 N 
ATOM     45  H2  UNL     1      19.103  13.848   1.453 -0.15 +0.00    +0.167 HD
ENDBRANCH  36  39
ENDBRANCH  31  35
ENDBRANCH  26  29
ENDBRANCH  21  25
ENDBRANCH  16  19
ENDBRANCH  14  15
ENDBRANCH  13  14
ENDBRANCH  12  13
ENDBRANCH   9  12
ENDBRANCH   1   8
BRANCH   3  46
ATOM     46  C23 UNL     1      29.137   7.498   2.617 +0.06 +0.00    +0.290 C 
ATOM     47  N11 UNL     1      27.956   7.063   2.048 +0.42 -0.00    -0.319 N 
ATOM     48  H56 UNL     1      28.056   6.418   1.269 +0.10 +0.00    +0.169 HD
ATOM     49  O5  UNL     1      29.222   8.273   3.567 +0.66 -0.00    -0.264 OA
BRANCH  47  50
ATOM     50  C24 UNL     1      26.686   7.424   2.438 -0.19 +0.00    +0.053 A 
ATOM     51  C25 UNL     1      26.438   8.292   3.472 +0.10 +0.00    +0.120 A 
ATOM     52  N12 UNL     1      25.079   8.434   3.600 -0.29 -0.00    -0.354 N 
ATOM     53  C26 UNL     1      24.423   7.669   2.648 +0.42 +0.00    +0.105 A 
ATOM     54  C43 UNL     1      24.451   9.280   4.595 +0.49 +0.00    +0.156 C 
ATOM     55  C27 UNL     1      25.428   7.031   1.926 -0.35 +0.00    +0.066 A 
BRANCH  53  56
ATOM     56  C28 UNL     1      22.970   7.593   2.504 +1.66 +0.00    +0.273 C 
ATOM     57  N13 UNL     1      22.264   8.212   3.521 +1.41 -0.00    -0.320 N 
ATOM     58  H57 UNL     1      22.780   8.624   4.285 +0.17 +0.00    +0.169 HD
ATOM     59  O6  UNL     1      22.437   7.016   1.559 +5.71 -0.00    -0.266 OA
BRANCH  57  60
ATOM     60  C29 UNL     1      20.888   8.294   3.607 +2.80 +0.00    +0.053 A 
ATOM     61  C30 UNL     1      20.072   7.190   3.574+12.02 +0.00    +0.120 A 
ATOM     62  N14 UNL     1      18.771   7.612   3.684 -0.11 -0.00    -0.354 N 
ATOM     63  C31 UNL     1      18.719   8.993   3.785 -0.18 +0.00    +0.104 A 
ATOM     64  C42 UNL     1      17.634   6.716   3.682 +6.64 +0.00    +0.156 C 
ATOM     65  C32 UNL     1      20.044   9.418   3.743 +4.06 +0.00    +0.066 A 
BRANCH  63  66
ATOM     66  C33 UNL     1      17.500   9.770   3.917 -0.29 +0.00    +0.268 C 
ATOM     67  N15 UNL     1      16.342   9.038   4.060 -0.21 -0.00    -0.355 N 
ATOM     68  H58 UNL     1      16.405   8.028   4.104 +0.10 +0.00    +0.162 HD
ATOM     69  O7  UNL     1      17.466  11.001   3.924 -0.20 -0.00    -0.266 OA
BRANCH  67  70
ATOM     70  C34 UNL     1      15.030   9.648   4.158 +2.77 +0.00    +0.132 C 
BRANCH  70  71
ATOM     71  C35 UNL     1      14.000   8.745   4.829 -0.07 +0.00    +0.122 C 
BRANCH  71  72
ATOM     72  C36 UNL     1      13.703   7.523   3.987 -0.38 +0.00    +0.219 C 
ATOM     73  N16 UNL     1      12.936   7.761   2.876 -0.12 -0.00    -0.361 N 
ATOM     74  H59 UNL     1      12.701   8.736   2.654 -0.36 +0.00    +0.162 HD
ATOM     75  O8  UNL     1      14.131   6.406   4.265 -0.17 -0.00    -0.274 OA
BRANCH  73  76
ATOM     76  C37 UNL     1      12.449   6.725   1.995 -0.30 +0.00    +0.124 C 
BRANCH  76  77
ATOM     77  C38 UNL     1      10.950   6.826   1.733 -0.34 +0.00    +0.047 C 
BRANCH  77  78
ATOM     78  C39 UNL     1      10.300   5.671   0.970 -0.09 +0.00    +0.235 C 
BRANCH  78  79
ATOM     79  N17 UNL     1       9.311   6.052  -0.114 -0.19 -0.00    -0.079 N 
ATOM     80  C40 UNL     1       9.852   6.077  -1.510 -0.14 +0.00    +0.269 C 
ATOM     81  C41 UNL     1       8.471   7.261   0.199 -0.24 +0.00    +0.269 C 
ATOM     82  H60 UNL     1       8.629   5.282  -0.104 +0.13 +0.00    +0.278 HD
ENDBRANCH  78  79
ENDBRANCH  77  78
ENDBRANCH  76  77
ENDBRANCH  73  76
ENDBRANCH  71  72
ENDBRANCH  70  71
ENDBRANCH  67  70
ENDBRANCH  63  66
ENDBRANCH  57  60
ENDBRANCH  53  56
ENDBRANCH  47  50
ENDBRANCH   3  46
TORSDOF 22
TER
