USER    Run = 1
USER    DPF = ligand_303_receptor.dpf
USER  
USER    Estimated Free Energy of Binding    = +801.24 kcal/mol  [=(1)+(2)+(3)-(4)]
USER    
USER    (1) Final Intermolecular Energy     = +800.05 kcal/mol
USER        vdW + Hbond + desolv Energy     = +800.05 kcal/mol
USER        Electrostatic Energy            =   +0.00 kcal/mol
USER    (2) Final Total Internal Energy     =   +0.00 kcal/mol
USER    (3) Torsional Free Energy           =   +1.19 kcal/mol
USER    (4) Unbound System's Energy  [=(2)] =   +0.00 kcal/mol
USER    
USER    
USER    NEWDPF move ligand_303.pdbqt
USER    NEWDPF about 0.000000 0.000000 0.000000
USER    NEWDPF tran0 8.263090 5.403670 2.661538
USER    NEWDPF quaternion0 -0.606175 0.266248 0.736731 -0.137442
USER    NEWDPF axisangle0 -0.611983 0.268799 0.743790 -164.200239
USER    NEWDPF quat0 -0.611983 0.268799 0.743790 -164.200239
USER  keepresnum = 1 
USER  
REMARK  0 active torsions:
REMARK  status: ('A' for Active; 'I' for Inactive)
REMARK       I    between atoms: C2_2  and  C3_3 
REMARK       I    between atoms: C2_2  and  O11_53 
REMARK       I    between atoms: C3_3  and  C4_4 
REMARK       I    between atoms: C3_3  and  C36_36 
REMARK       I    between atoms: C4_4  and  C5_5 
REMARK       I    between atoms: C5_5  and  C6_6 
REMARK       I    between atoms: C6_6  and  C7_7 
REMARK       I    between atoms: C6_6  and  N1_57 
REMARK       I    between atoms: C7_7  and  O2_44 
REMARK       I    between atoms: C8_8  and  C9_9 
REMARK       I    between atoms: C8_8  and  N1_57 
REMARK       I    between atoms: C9_9  and  C10_10 
REMARK       I    between atoms: C9_9  and  C14_14 
REMARK       I    between atoms: C10_10  and  C11_11 
REMARK       I    between atoms: C14_14  and  C15_15 
REMARK       I    between atoms: C15_15  and  C16_16 
REMARK       I    between atoms: C16_16  and  C17_17 
REMARK       I    between atoms: C16_16  and  N4_61 
REMARK       I    between atoms: C17_17  and  C18_18 
REMARK       I    between atoms: C21_21  and  C22_22 
REMARK       I    between atoms: C21_21  and  N4_61 
REMARK       I    between atoms: C26_26  and  C27_27 
REMARK       I    between atoms: C26_26  and  N5_62 
REMARK       I    between atoms: C27_27  and  C28_28 
REMARK       I    between atoms: C28_28  and  O7_49 
REMARK       I    between atoms: C29_29  and  C30_30 
REMARK       I    between atoms: C29_29  and  O7_49 
REMARK       I    between atoms: C30_30  and  O8_50 
REMARK       I    between atoms: C31_31  and  C32_32 
REMARK       I    between atoms: C31_31  and  O8_50 
REMARK       I    between atoms: C32_32  and  N6_63 
REMARK       I    between atoms: C33_33  and  C34_34 
REMARK       I    between atoms: C33_33  and  N6_63 
REMARK       I    between atoms: C34_34  and  C35_35 
REMARK       I    between atoms: C34_34  and  N7_64 
REMARK       I    between atoms: C35_35  and  S1_66 
REMARK       I    between atoms: C36_36  and  N8_65 
REMARK       I    between atoms: C37_37  and  C38_38 
REMARK       I    between atoms: C37_37  and  O14_56 
REMARK       I    between atoms: C38_38  and  C39_39 
REMARK       I    between atoms: O11_53  and  P1_68 
REMARK       I    between atoms: O13_55  and  P1_68 
REMARK       I    between atoms: O14_56  and  P1_68 
USER                              x       y       z     vdW  Elec       q    Type
USER                           _______ _______ _______ _____ _____    ______ ____
ROOT
ATOM      1  C1  UNL     1       9.345   3.908   7.869 -0.58 +0.00    +0.041 C 
ATOM      2  C2  UNL     1      10.460   4.901   7.531 -0.37 +0.00    +0.142 C 
ATOM      3  C3  UNL     1      10.058   6.352   7.904+20.49 +0.00    +0.108 C 
ATOM      4  C4  UNL     1       8.849   6.886   7.124+29.31 +0.00    +0.097 C 
ATOM      5  C5  UNL     1       9.124   7.359   5.707+55.41 +0.00    +0.152 C 
ATOM      6  C6  UNL     1       8.758   6.428   4.551 +0.06 +0.00    +0.177 C 
ATOM      7  C7  UNL     1       9.920   6.371   3.553 -0.23 +0.00    +0.197 C 
ATOM      8  C8  UNL     1       6.294   6.592   4.367 +3.87 +0.00    +0.223 C 
ATOM      9  C9  UNL     1       5.148   7.140   3.513 +4.70 +0.00    +0.090 C 
ATOM     10  C10 UNL     1       3.771   6.849   4.138 -0.04 +0.00    +0.073 C 
ATOM     11  C11 UNL     1       3.511   7.697   5.338 +0.73 +0.00    +0.026 A 
ATOM     12  C12 UNL     1       2.832   8.881   5.522 -0.07 +0.00    +0.114 A 
ATOM     13  C13 UNL     1       3.574   8.340   7.450 -0.22 +0.00    +0.180 A 
ATOM     14  C14 UNL     1       5.245   6.596   2.075 -0.22 +0.00    +0.095 C 
ATOM     15  C15 UNL     1       5.430   5.084   2.000 -0.15 +0.00    +0.150 C 
ATOM     16  C16 UNL     1       6.512   4.556   1.032 -0.10 +0.00    +0.154 C 
ATOM     17  C17 UNL     1       6.415   4.986  -0.445 -0.05 +0.00    +0.037 C 
ATOM     18  C18 UNL     1       5.264   4.599  -1.391 +0.58 -0.00    -0.020 C 
ATOM     19  C19 UNL     1       3.870   4.622  -0.777 -0.13 +0.00    +0.009 C 
ATOM     20  C20 UNL     1       5.550   3.321  -2.181 -0.12 +0.00    +0.009 C 
ATOM     21  C21 UNL     1       6.152   2.063   1.201 -0.11 +0.00    +0.241 C 
ATOM     22  C22 UNL     1       6.769   0.776   1.809 +1.46 +0.00    +0.179 C 
ATOM     23  C23 UNL     1       5.801   0.178   2.835 +4.96 +0.00    +0.037 C 
ATOM     24  C24 UNL     1       6.205   0.874   4.130 +3.54 +0.00    +0.022 C 
ATOM     25  C25 UNL     1       7.719   0.943   4.020+95.18 +0.00    +0.127 C 
ATOM     26  C26 UNL     1       9.294   1.035   2.126 +8.04 +0.00    +0.222 C 
ATOM     27  C27 UNL     1       9.507   0.936   0.628 -0.33 +0.00    +0.129 C 
ATOM     28  C28 UNL     1      10.819   1.612   0.233 +1.20 +0.00    +0.177 C 
ATOM     29  C29 UNL     1      10.107   3.200  -1.420 -0.15 +0.00    +0.193 C 
ATOM     30  C30 UNL     1      10.886   4.467  -1.059 -0.08 +0.00    +0.193 C 
ATOM     31  C31 UNL     1      10.572   6.744  -0.475 -0.25 +0.00    +0.187 C 
ATOM     32  C32 UNL     1       9.462   7.638   0.070 -0.01 +0.00    +0.148 C 
ATOM     33  C33 UNL     1       7.444   8.838  -0.628 +3.30 +0.00    +0.251 C 
ATOM     34  C34 UNL     1       6.500   9.116  -1.819+60.69 +0.00    +0.317 C 
ATOM     35  C35 UNL     1       5.047   9.087  -1.320+99.99 +0.00    +0.116 C 
ATOM     36  C36 UNL     1      11.293   7.256   7.886+33.97 +0.00    +0.202 C 
ATOM     37  C37 UNL     1      13.824   4.660   5.399 +4.07 +0.00    +0.185 C 
ATOM     38  C38 UNL     1      14.719   5.515   4.504+99.99 +0.00    +0.073 C 
ATOM     39  C39 UNL     1      14.059   6.808   4.102 -0.25 -0.00    -0.016 A 
ATOM     40  C40 UNL     1      13.701   7.872   4.906 -0.45 +0.00    +0.015 A 
ATOM     41  C41 UNL     1      13.079   8.923   4.172 +1.02 +0.00    +0.008 A 
ATOM     42  C42 UNL     1      13.007   8.639   2.828 +4.99 +0.00    +0.050 A 
ATOM     43  O1  UNL     1       9.559   8.500   5.517+12.72 -0.00    -0.296 OA
ATOM     44  O2  UNL     1       9.761   5.262   2.663 -0.07 -0.00    -0.398 OA
ATOM     45  O3  UNL     1       6.141   5.918   5.381 -0.13 -0.00    -0.273 OA
ATOM     46  O4  UNL     1       4.766   4.338   2.721 -0.06 -0.00    -0.296 OA
ATOM     47  O5  UNL     1       5.066   2.036   0.635 -0.08 -0.00    -0.271 OA
ATOM     48  O6  UNL     1      10.244   1.139   2.907+27.98 -0.00    -0.273 OA
ATOM     49  O7  UNL     1      10.832   1.999  -1.147 -0.15 -0.00    -0.389 OA
ATOM     50  O8  UNL     1       9.970   5.564  -1.016 -0.07 -0.00    -0.387 OA
ATOM     51  O9  UNL     1       7.225   9.238   0.514+15.84 -0.00    -0.271 OA
ATOM     52  O10 UNL     1      12.443   6.830   7.965 -0.24 -0.00    -0.280 OA
ATOM     53  O11 UNL     1      10.738   4.855   6.140 -0.19 -0.00    -0.291 OA
ATOM     54  O12 UNL     1      11.799   2.442   6.403+13.11 -0.00    -0.631 OA
ATOM     55  O13 UNL     1      10.452   3.221   4.328 -0.33 -0.00    -0.307 OA
ATOM     56  O14 UNL     1      12.702   4.197   4.663 +9.92 -0.00    -0.297 OA
ATOM     57  N1  UNL     1       7.545   6.922   3.892 +0.25 -0.00    -0.347 N 
ATOM     58  N2  UNL     1       2.885   9.275   6.835 -0.11 -0.00    -0.360 N 
ATOM     59  H2  UNL     1       2.478  10.114   7.245 +0.07 +0.00    +0.166 HD
ATOM     60  N3  UNL     1       3.970   7.362   6.588 -0.04 -0.00    -0.355 N 
ATOM     61  N4  UNL     1       6.934   3.189   1.331 -0.01 -0.00    -0.348 N 
ATOM     62  N5  UNL     1       7.996   1.009   2.591 +2.98 -0.00    -0.339 N 
ATOM     63  N6  UNL     1       8.572   8.118  -0.967 -0.22 -0.00    -0.357 N 
ATOM     64  N7  UNL     1       6.751   8.136  -2.912+74.09 +0.00    +0.092 N 
ATOM     65  N8  UNL     1      11.083   8.603   7.909+29.99 -0.00    -0.272 NA
ATOM     66  S1  UNL     1       3.853   9.409  -2.665 +2.27 -0.00    -0.180 SA
ATOM     67  S2  UNL     1      13.676   7.111   2.458 +2.30 -0.00    -0.106 SA
ATOM     68  P1  UNL     1      11.484   3.585   5.501 -0.22 +0.00    +0.393 P 
ATOM     69  H57 UNL     1       9.987   4.463   3.191 -0.12 +0.00    +0.209 HD
ATOM     70  H58 UNL     1      10.625   2.312   3.972 -0.30 +0.00    +0.222 HD
ATOM     71  H59 UNL     1       7.637   7.745   3.302 +0.08 +0.00    +0.163 HD
ATOM     72  H60 UNL     1       4.539   6.550   6.807 +0.06 +0.00    +0.166 HD
ATOM     73  H61 UNL     1       7.642   3.110   2.052 +0.07 +0.00    +0.163 HD
ATOM     74  H62 UNL     1       8.416   7.496  -1.761 -0.09 +0.00    +0.162 HD
ATOM     75  H63 UNL     1       7.541   8.478  -3.464 +9.21 +0.00    +0.313 HD
ATOM     76  H64 UNL     1       5.950   8.184  -3.551+21.13 +0.00    +0.313 HD
ATOM     77  H65 UNL     1      11.935   9.148   7.845 +0.08 +0.00    +0.127 HD
ATOM     78  H66 UNL     1      10.335   8.987   7.334 +0.09 +0.00    +0.127 HD
ATOM     79  H67 UNL     1       2.747   9.307  -1.912 +0.05 +0.00    +0.101 HD
ENDROOT
TORSDOF 38
TER
