USER    Run = 1
USER    DPF = ligand_139_receptor.dpf
USER  
USER    Estimated Free Energy of Binding    =   +4.20 kcal/mol  [=(1)+(2)+(3)-(4)]
USER    
USER    (1) Final Intermolecular Energy     =   +3.01 kcal/mol
USER        vdW + Hbond + desolv Energy     =   +3.01 kcal/mol
USER        Electrostatic Energy            =   +0.00 kcal/mol
USER    (2) Final Total Internal Energy     =   -2.58 kcal/mol
USER    (3) Torsional Free Energy           =   +1.19 kcal/mol
USER    (4) Unbound System's Energy  [=(2)] =   -2.58 kcal/mol
USER    
USER    
USER    NEWDPF move ligand_139.pdbqt
USER    NEWDPF about 0.000000 0.000000 0.000000
USER    NEWDPF tran0 12.481495 8.700867 4.221157
USER    NEWDPF quaternion0 -0.450800 0.155947 0.194763 -0.857046
USER    NEWDPF axisangle0 -0.874931 0.302669 0.378004 -62.026988
USER    NEWDPF quat0 -0.874931 0.302669 0.378004 -62.026988
USER    NEWDPF dihe0 -8.53 169.66 173.08 176.65 -176.83 35.91 74.27 179.92 -3.52 180.00 180.00 180.00 -111.87 5.90 -14.57 -84.35 -52.72 134.06 35.41 
USER  keepresnum = 1 
USER  
REMARK  19 active torsions:
REMARK  status: ('A' for Active; 'I' for Inactive)
REMARK    1  A    between atoms: C3_3  and  N10_48 
REMARK    2  A    between atoms: C5_5  and  C6_6 
REMARK       I    between atoms: C6_6  and  N2_38 
REMARK    3  A    between atoms: C7_7  and  N2_38 
REMARK    4  A    between atoms: C9_9  and  C11_11 
REMARK       I    between atoms: C11_11  and  N4_40 
REMARK    5  A    between atoms: C12_12  and  N4_40 
REMARK    6  A    between atoms: C13_13  and  C15_15 
REMARK       I    between atoms: C15_15  and  N7_44 
REMARK    7  A    between atoms: C16_16  and  C17_17 
REMARK    8  A    between atoms: C16_16  and  N7_44 
REMARK    9  A    between atoms: C17_17  and  C18_18 
REMARK   10  A    between atoms: C18_18  and  N8_45 
REMARK   11  A    between atoms: C18_18  and  N9_47 
REMARK   12  A    between atoms: C21_21  and  C22_22 
REMARK       I    between atoms: C21_21  and  N10_48 
REMARK   13  A    between atoms: C24_24  and  N13_52 
REMARK   14  A    between atoms: C26_26  and  C27_27 
REMARK       I    between atoms: C26_26  and  N13_52 
REMARK   15  A    between atoms: C30_30  and  N14_53 
REMARK   16  A    between atoms: C33_33  and  C34_34 
REMARK   17  A    between atoms: C33_33  and  N14_53 
REMARK   18  A    between atoms: C35_35  and  C36_36 
REMARK   19  A    between atoms: C35_35  and  N14_53 
USER                              x       y       z     vdW  Elec       q    Type
USER                           _______ _______ _______ _____ _____    ______ ____
ROOT
ATOM      1  C1  UNL     1      12.259   9.883   8.291 -0.14 +0.00    +0.156 C 
ATOM      2  C2  UNL     1      14.119   9.786   6.638 +6.61 +0.00    +0.120 A 
ATOM      3  C3  UNL     1      14.376   9.154   5.446 +1.60 +0.00    +0.053 A 
ATOM      4  C4  UNL     1      13.244   8.361   5.153 -0.26 +0.00    +0.066 A 
ATOM      5  C5  UNL     1      12.299   8.526   6.161 +0.01 +0.00    +0.105 A 
ATOM      6  N1  UNL     1      12.872   9.404   7.067 +0.27 -0.00    -0.354 N 
ENDROOT
BRANCH   5   7
ATOM      7  C6  UNL     1      10.973   7.927   6.314 -0.15 +0.00    +0.273 C 
ATOM      8  N2  UNL     1      10.812   6.729   5.641 -0.12 -0.00    -0.320 N 
ATOM      9  H35 UNL     1      11.572   6.387   5.070 +0.12 +0.00    +0.169 HD
ATOM     10  O1  UNL     1      10.090   8.466   6.976 +2.62 -0.00    -0.266 OA
BRANCH   8  11
ATOM     11  C7  UNL     1       9.667   5.957   5.644 -0.20 +0.00    +0.053 A 
ATOM     12  C8  UNL     1       8.990   5.637   6.796 -0.17 +0.00    +0.120 A 
ATOM     13  N3  UNL     1       7.901   4.871   6.457 -0.17 -0.00    -0.354 N 
ATOM     14  C9  UNL     1       7.859   4.674   5.086 -0.24 +0.00    +0.105 A 
ATOM     15  C20 UNL     1       6.955   4.347   7.422 -0.28 +0.00    +0.156 C 
ATOM     16  C10 UNL     1       8.957   5.363   4.576 -0.22 +0.00    +0.066 A 
BRANCH  14  17
ATOM     17  C11 UNL     1       6.825   3.897   4.392 -0.16 +0.00    +0.274 C 
ATOM     18  N4  UNL     1       6.933   3.937   3.018 -0.05 -0.00    -0.306 N 
ATOM     19  H36 UNL     1       7.698   4.445   2.607 +0.08 +0.00    +0.170 HD
ATOM     20  O2  UNL     1       5.973   3.275   5.020 -0.16 -0.00    -0.266 OA
BRANCH  18  21
ATOM     21  C12 UNL     1       6.092   3.311   2.125 -0.08 +0.00    +0.125 A 
ATOM     22  C14 UNL     1       6.330   3.266   0.734 -0.07 +0.00    +0.086 A 
ATOM     23  C13 UNL     1       5.291   2.536   0.180 -0.07 +0.00    +0.121 A 
ATOM     24  N6  UNL     1       4.473   2.257   1.246 -0.05 -0.00    -0.290 N 
ATOM     25  C19 UNL     1       3.161   1.652   1.233 -0.11 +0.00    +0.178 C 
ATOM     26  N5  UNL     1       4.964   2.675   2.426 -0.05 -0.00    -0.283 N 
ATOM     27  H5  UNL     1       4.559   2.534   3.351 +0.07 +0.00    +0.189 HD
BRANCH  23  28
ATOM     28  C15 UNL     1       5.105   2.208  -1.212 -0.05 +0.00    +0.269 C 
ATOM     29  N7  UNL     1       5.637   3.108  -2.107 -0.03 -0.00    -0.355 N 
ATOM     30  H37 UNL     1       5.754   4.065  -1.778 -0.08 +0.00    +0.162 HD
ATOM     31  O3  UNL     1       4.468   1.225  -1.579 -0.09 -0.00    -0.266 OA
BRANCH  29  32
ATOM     32  C16 UNL     1       5.326   3.044  -3.523 -0.10 +0.00    +0.130 C 
BRANCH  32  33
ATOM     33  C17 UNL     1       6.370   2.240  -4.295 -0.11 +0.00    +0.095 C 
BRANCH  33  34
ATOM     34  C18 UNL     1       6.410   0.778  -3.875 -0.10 +0.00    +0.069 C 
BRANCH  34  35
ATOM     35  N8  UNL     1       5.309   0.135  -3.656 -0.03 -0.00    -0.389 N 
ATOM     36  H38 UNL     1       4.520   0.780  -3.753 +0.03 +0.00    +0.157 HD
ATOM     37  H8  UNL     1       5.238  -0.855  -3.423 +0.04 +0.00    +0.157 HD
ENDBRANCH  34  35
BRANCH  34  38
ATOM     38  N9  UNL     1       7.619   0.181  -3.699 +0.11 -0.00    -0.389 N 
ATOM     39  H39 UNL     1       8.437   0.773  -3.617 +0.05 +0.00    +0.157 HD
ATOM     40  H40 UNL     1       7.660  -0.654  -3.124 +0.07 +0.00    +0.157 HD
ENDBRANCH  34  38
ENDBRANCH  33  34
ENDBRANCH  32  33
ENDBRANCH  29  32
ENDBRANCH  23  28
ENDBRANCH  18  21
ENDBRANCH  14  17
ENDBRANCH   8  11
ENDBRANCH   5   7
BRANCH   3  41
ATOM     41  N10 UNL     1      15.555   9.319   4.748 +0.35 -0.00    -0.320 N 
ATOM     42  C21 UNL     1      16.331   8.290   4.247 -0.31 +0.00    +0.274 C 
ATOM     43  O4  UNL     1      16.042   7.100   4.288 -0.70 -0.00    -0.266 OA
ATOM     44  H41 UNL     1      15.811  10.270   4.520 +0.26 +0.00    +0.169 HD
BRANCH  42  45
ATOM     45  C22 UNL     1      17.542   8.760   3.620 -0.45 +0.00    +0.122 A 
ATOM     46  C23 UNL     1      18.777   8.142   3.558 -0.39 +0.00    +0.086 A 
ATOM     47  C24 UNL     1      19.601   9.007   2.814 -0.07 +0.00    +0.125 A 
ATOM     48  N11 UNL     1      18.949  10.116   2.458 -0.22 -0.00    -0.283 N 
ATOM     49  N12 UNL     1      17.728   9.970   3.006 -0.23 -0.00    -0.290 N 
ATOM     50  H11 UNL     1      19.296  10.896   1.900 +0.16 +0.00    +0.189 HD
ATOM     51  C25 UNL     1      16.794  11.071   2.927 -0.36 +0.00    +0.178 C 
BRANCH  47  52
ATOM     52  N13 UNL     1      20.912   8.866   2.433 +0.18 -0.00    -0.308 N 
ATOM     53  C26 UNL     1      21.972   9.572   2.951 -0.32 +0.00    +0.257 C 
ATOM     54  O5  UNL     1      21.919  10.388   3.866 -0.01 -0.00    -0.267 OA
ATOM     55  H42 UNL     1      21.051   8.124   1.764 +0.78 +0.00    +0.170 HD
BRANCH  53  56
ATOM     56  C27 UNL     1      23.297   9.261   2.345 -0.45 +0.00    +0.032 A 
ATOM     57  C28 UNL     1      23.350   8.875   1.008 -0.45 +0.00    +0.019 A 
ATOM     58  C29 UNL     1      24.582   8.579   0.404 -0.30 +0.00    +0.030 A 
ATOM     59  C30 UNL     1      25.805   8.639   1.099 -0.37 +0.00    +0.030 A 
ATOM     60  C31 UNL     1      25.706   9.009   2.452 -0.55 +0.00    +0.030 A 
ATOM     61  C32 UNL     1      24.483   9.314   3.073 -0.58 +0.00    +0.019 A 
BRANCH  59  62
ATOM     62  N14 UNL     1      27.020   8.343   0.489 -0.13 -0.00    -0.379 N 
BRANCH  62  63
ATOM     63  C33 UNL     1      28.306   8.529   1.193 -0.07 +0.00    +0.138 C 
BRANCH  63  64
ATOM     64  C34 UNL     1      28.880   7.196   1.674 -0.25 +0.00    +0.134 C 
ATOM     65 CL1  UNL     1      30.497   7.431   2.383 -0.32 -0.00    -0.129 Cl
ENDBRANCH  63  64
ENDBRANCH  62  63
BRANCH  62  66
ATOM     66  C35 UNL     1      27.123   7.817  -0.889 +0.17 +0.00    +0.138 C 
BRANCH  66  67
ATOM     67  C36 UNL     1      26.383   6.487  -1.077 -0.34 +0.00    +0.134 C 
ATOM     68 CL2  UNL     1      27.476   5.115  -1.381 -0.38 -0.00    -0.129 Cl
ENDBRANCH  66  67
ENDBRANCH  62  66
ENDBRANCH  59  62
ENDBRANCH  53  56
ENDBRANCH  47  52
ENDBRANCH  42  45
ENDBRANCH   3  41
TORSDOF 19
TER
