USER    Run = 1
USER    DPF = ligand_173_receptor.dpf
USER  
USER    Estimated Free Energy of Binding    =   -5.32 kcal/mol  [=(1)+(2)+(3)-(4)]
USER    Estimated Inhibition Constant, Ki   =  126.94 uM (micromolar)  [Temperature = 298.15 K]
USER    
USER    (1) Final Intermolecular Energy     =   -6.51 kcal/mol
USER        vdW + Hbond + desolv Energy     =   -6.51 kcal/mol
USER        Electrostatic Energy            =   +0.00 kcal/mol
USER    (2) Final Total Internal Energy     =   -3.71 kcal/mol
USER    (3) Torsional Free Energy           =   +1.19 kcal/mol
USER    (4) Unbound System's Energy  [=(2)] =   -3.71 kcal/mol
USER    
USER    
USER    NEWDPF move ligand_173.pdbqt
USER    NEWDPF about 0.000000 0.000000 0.000000
USER    NEWDPF tran0 15.324501 7.830825 0.404843
USER    NEWDPF quaternion0 -0.145932 -0.491266 -0.850061 0.121478
USER    NEWDPF axisangle0 -0.147021 -0.494932 -0.856404 166.045180
USER    NEWDPF quat0 -0.147021 -0.494932 -0.856404 166.045180
USER    NEWDPF dihe0 165.56 8.29 -10.49 127.66 -180.00 180.00 133.62 20.79 65.68 113.75 -160.30 79.62 -156.72 -109.22 -57.68 -164.42 1.53 -107.06 47.32 
USER  keepresnum = 1 
USER  
REMARK  19 active torsions:
REMARK  status: ('A' for Active; 'I' for Inactive)
REMARK    1  A    between atoms: C2_2  and  O1_44 
REMARK    2  A    between atoms: C3_3  and  N2_56 
REMARK    3  A    between atoms: C6_6  and  C8_8 
REMARK    4  A    between atoms: C7_7  and  O2_45 
REMARK       I    between atoms: C8_8  and  N1_55 
REMARK    5  A    between atoms: C9_9  and  N1_55 
REMARK    6  A    between atoms: C10_10  and  O7_50 
REMARK    7  A    between atoms: C11_11  and  O6_49 
REMARK    8  A    between atoms: C12_12  and  C15_15 
REMARK    9  A    between atoms: C15_15  and  O5_48 
REMARK   10  A    between atoms: C17_17  and  C18_18 
REMARK       I    between atoms: C17_17  and  N2_56 
REMARK   11  A    between atoms: C21_21  and  N3_57 
REMARK   12  A    between atoms: C24_24  and  C25_25 
REMARK       I    between atoms: C24_24  and  N3_57 
REMARK   13  A    between atoms: C25_25  and  C26_26 
REMARK   14  A    between atoms: C25_25  and  N7_63 
REMARK   15  A    between atoms: C26_26  and  C27_27 
REMARK   16  A    between atoms: C29_29  and  C30_30 
REMARK       I    between atoms: C29_29  and  N7_63 
REMARK   17  A    between atoms: C33_33  and  C36_36 
REMARK   18  A    between atoms: C37_37  and  C38_38 
REMARK   19  A    between atoms: C41_41  and  O11_54 
USER                              x       y       z     vdW  Elec       q    Type
USER                           _______ _______ _______ _____ _____    ______ ____
ROOT
ATOM      1  C18 UNL     1      17.087   8.733   2.413 -0.50 +0.00    +0.032 A 
ATOM      2  C19 UNL     1      16.634   7.526   2.961 -0.17 +0.00    +0.019 A 
ATOM      3  C20 UNL     1      15.322   7.417   3.438 +0.26 +0.00    +0.030 A 
ATOM      4  C21 UNL     1      14.454   8.509   3.385 -0.34 +0.00    +0.034 A 
ATOM      5  C22 UNL     1      14.917   9.720   2.854 +0.63 +0.00    +0.030 A 
ATOM      6  C23 UNL     1      16.226   9.834   2.376 -0.45 +0.00    +0.019 A 
ENDROOT
BRANCH   4   7
ATOM      7  N3  UNL     1      13.122   8.483   3.840 -0.18 -0.00    -0.325 N 
ATOM      8  C24 UNL     1      12.627   7.974   5.026 -0.27 +0.00    +0.245 C 
ATOM      9  O9  UNL     1      13.308   7.484   5.926 -0.26 -0.00    -0.271 OA
ATOM     10  H35 UNL     1      12.424   8.883   3.208 -0.13 +0.00    +0.169 HD
BRANCH   8  11
ATOM     11  C25 UNL     1      11.094   8.167   5.190 -0.31 +0.00    +0.182 C 
BRANCH  11  12
ATOM     12  C26 UNL     1      10.670   7.629   6.571 +0.12 +0.00    +0.095 C 
BRANCH  12  13
ATOM     13  C27 UNL     1      10.755   6.145   6.666 -0.26 +0.00    +0.046 A 
ATOM     14  C28 UNL     1       9.774   5.175   6.386 -0.25 +0.00    +0.135 A 
ATOM     15  N6  UNL     1      10.269   3.954   6.603 -0.23 -0.00    -0.296 N 
ATOM     16  N5  UNL     1      11.516   4.236   7.012 -0.28 -0.00    -0.243 N 
ATOM     17  H6  UNL     1       9.818   3.046   6.488 +0.11 +0.00    +0.187 HD
ATOM     18  N4  UNL     1      11.883   5.532   7.063 -0.17 -0.00    -0.289 N 
ATOM     19  H36 UNL     1      12.162   3.494   7.270 +0.16 +0.00    +0.208 HD
ATOM     20  H4  UNL     1      12.779   5.939   7.333 +0.16 +0.00    +0.188 HD
ENDBRANCH  12  13
ENDBRANCH  11  12
BRANCH  11  21
ATOM     21  N7  UNL     1      10.323   7.518   4.112 -0.18 -0.00    -0.343 N 
ATOM     22  C29 UNL     1       9.243   8.133   3.517 -0.22 +0.00    +0.252 C 
ATOM     23  O10 UNL     1       9.008   9.328   3.665 +0.52 -0.00    -0.268 OA
ATOM     24  H37 UNL     1      10.238   6.509   4.227 +0.10 +0.00    +0.163 HD
BRANCH  22  25
ATOM     25  C30 UNL     1       8.349   7.275   2.691 -0.34 +0.00    +0.032 A 
ATOM     26  C31 UNL     1       7.222   7.785   2.034 -0.40 +0.00    +0.018 A 
ATOM     27  C32 UNL     1       6.412   6.937   1.270 -0.36 +0.00    +0.012 A 
ATOM     28  C33 UNL     1       6.704   5.570   1.165 -0.18 -0.00    -0.036 A 
ATOM     29  C34 UNL     1       7.834   5.069   1.821 -0.14 +0.00    +0.012 A 
ATOM     30  C35 UNL     1       8.646   5.912   2.587 -0.21 +0.00    +0.018 A 
BRANCH  28  31
ATOM     31  C36 UNL     1       5.895   4.655   0.347 -0.19 +0.00    +0.012 C 
ATOM     32  C37 UNL     1       6.325   3.459  -0.086 -0.11 +0.00    +0.012 C 
BRANCH  32  33
ATOM     33  C38 UNL     1       5.511   2.547  -0.903 -0.08 -0.00    -0.036 A 
ATOM     34  C39 UNL     1       5.754   2.350  -2.270 -0.09 +0.00    +0.014 A 
ATOM     35  C40 UNL     1       4.979   1.452  -3.010 -0.06 +0.00    +0.037 A 
ATOM     36  C41 UNL     1       3.963   0.743  -2.377 -0.09 +0.00    +0.065 A 
ATOM     37  C42 UNL     1       3.717   0.914  -1.021 -0.10 +0.00    +0.037 A 
ATOM     38  C43 UNL     1       4.493   1.810  -0.283 -0.12 +0.00    +0.014 A 
BRANCH  36  39
ATOM     39  O11 UNL     1       3.184  -0.143  -3.059 -0.06 -0.00    -0.361 OA
ATOM     40  H32 UNL     1       2.703  -0.692  -2.417 +0.03 +0.00    +0.217 HD
ENDBRANCH  36  39
ENDBRANCH  32  33
ENDBRANCH  28  31
ENDBRANCH  22  25
ENDBRANCH  11  21
ENDBRANCH   8  11
ENDBRANCH   4   7
BRANCH   1  41
ATOM     41  C17 UNL     1      18.473   8.893   1.887 +0.40 +0.00    +0.256 C 
ATOM     42  O8  UNL     1      18.640   8.912   0.675 +1.23 -0.00    -0.267 OA
ATOM     43  N2  UNL     1      19.458   8.955   2.852 -0.16 -0.00    -0.320 N 
ATOM     44  H34 UNL     1      19.191   8.797   3.817 +0.11 +0.00    +0.169 HD
BRANCH  43  45
ATOM     45  C3  UNL     1      20.841   9.163   2.661 -0.15 +0.00    +0.071 A 
ATOM     46  C2  UNL     1      21.251   9.765   1.461 -0.28 +0.00    +0.129 A 
ATOM     47  C7  UNL     1      22.609   9.920   1.146 -0.14 +0.00    +0.117 A 
ATOM     48  C6  UNL     1      23.596   9.540   2.062 -0.37 +0.00    +0.068 A 
ATOM     49  C5  UNL     1      23.179   8.978   3.282 -0.46 +0.00    +0.022 A 
ATOM     50  C4  UNL     1      21.821   8.783   3.575 +0.61 +0.00    +0.034 A 
BRANCH  46  51
ATOM     51  O1  UNL     1      20.311  10.179   0.539 -0.26 -0.00    -0.351 OA
ATOM     52  C1  UNL     1      20.094  11.591   0.676 -0.50 +0.00    +0.210 C 
ENDBRANCH  46  51
BRANCH  47  53
ATOM     53  O2  UNL     1      22.933  10.441  -0.082 -0.26 -0.00    -0.357 OA
ATOM     54  H29 UNL     1      22.158  10.288  -0.659 +0.18 +0.00    +0.217 HD
ENDBRANCH  47  53
BRANCH  48  55
ATOM     55  C8  UNL     1      25.074   9.681   1.835 -0.30 +0.00    +0.259 C 
ATOM     56  O3  UNL     1      25.560  10.808   1.832 -0.10 -0.00    -0.267 OA
ATOM     57  N1  UNL     1      25.776   8.510   1.639 -0.21 -0.00    -0.320 N 
ATOM     58  H33 UNL     1      25.241   7.641   1.666 +0.14 +0.00    +0.169 HD
BRANCH  57  59
ATOM     59  C9  UNL     1      27.159   8.331   1.421 -0.40 +0.00    +0.071 A 
ATOM     60  C10 UNL     1      27.582   8.140   0.088 -0.23 +0.00    +0.129 A 
ATOM     61  C11 UNL     1      28.940   7.915  -0.200 -0.22 +0.00    +0.118 A 
ATOM     62  C12 UNL     1      29.884   7.923   0.841 -0.25 +0.00    +0.073 A 
ATOM     63  C13 UNL     1      29.461   8.142   2.158 -0.08 +0.00    +0.023 A 
ATOM     64  C14 UNL     1      28.107   8.340   2.445 -0.19 +0.00    +0.034 A 
BRANCH  60  65
ATOM     65  O7  UNL     1      26.580   8.128  -0.860 +0.31 -0.00    -0.351 OA
ATOM     66  C16 UNL     1      26.150   6.825  -1.242 -0.23 +0.00    +0.210 C 
ENDBRANCH  60  65
BRANCH  61  67
ATOM     67  O6  UNL     1      29.306   7.666  -1.502 -0.16 -0.00    -0.357 OA
ATOM     68  H31 UNL     1      28.514   7.719  -2.079 +0.09 +0.00    +0.217 HD
ENDBRANCH  61  67
BRANCH  62  69
ATOM     69  C15 UNL     1      31.314   7.690   0.537 -0.15 +0.00    +0.179 C 
ATOM     70  O4  UNL     1      32.226   8.379   0.966 +0.02 -0.00    -0.646 OA
BRANCH  69  71
ATOM     71  O5  UNL     1      31.539   6.635  -0.262 +0.10 -0.00    -0.773 OA
ATOM     72  H30 UNL     1      30.651   6.267  -0.451 +0.06 +0.00    +0.167 HD
ENDBRANCH  69  71
ENDBRANCH  62  69
ENDBRANCH  57  59
ENDBRANCH  48  55
ENDBRANCH  43  45
ENDBRANCH   1  41
TORSDOF 19
TER
