USER    Run = 1
USER    DPF = ligand_80_receptor.dpf
USER  
USER    Estimated Free Energy of Binding    =  -12.94 kcal/mol  [=(1)+(2)+(3)-(4)]
USER    Estimated Inhibition Constant, Ki   =  327.93 pM (picomolar)  [Temperature = 298.15 K]
USER    
USER    (1) Final Intermolecular Energy     =  -14.13 kcal/mol
USER        vdW + Hbond + desolv Energy     =  -14.13 kcal/mol
USER        Electrostatic Energy            =   +0.00 kcal/mol
USER    (2) Final Total Internal Energy     =   -2.45 kcal/mol
USER    (3) Torsional Free Energy           =   +1.19 kcal/mol
USER    (4) Unbound System's Energy  [=(2)] =   -2.45 kcal/mol
USER    
USER    
USER    NEWDPF move ligand_80.pdbqt
USER    NEWDPF about 0.000000 0.000000 0.000000
USER    NEWDPF tran0 21.303855 7.812326 2.993766
USER    NEWDPF quaternion0 -0.041792 0.575338 0.029832 -0.816303
USER    NEWDPF axisangle0 -0.072351 0.996041 0.051646 -70.567268
USER    NEWDPF quat0 -0.072351 0.996041 0.051646 -70.567268
USER    NEWDPF dihe0 -38.11 -171.28 -167.06 157.94 42.18 -61.56 -101.09 -131.82 153.43 -158.90 -8.66 -135.13 179.73 -180.00 165.83 -83.37 180.00 -92.03 
USER  keepresnum = 1 
USER  
REMARK  18 active torsions:
REMARK  status: ('A' for Active; 'I' for Inactive)
REMARK    1  A    between atoms: C3_3  and  N12_51 
REMARK    2  A    between atoms: C5_5  and  C6_6 
REMARK       I    between atoms: C6_6  and  N2_40 
REMARK    3  A    between atoms: C7_7  and  N2_40 
REMARK    4  A    between atoms: C9_9  and  N4_42 
REMARK    5  A    between atoms: C11_11  and  C12_12 
REMARK       I    between atoms: C11_11  and  N4_42 
REMARK    6  A    between atoms: C16_16  and  C18_18 
REMARK       I    between atoms: C18_18  and  N5_43 
REMARK    7  A    between atoms: C19_19  and  N5_43 
REMARK    8  A    between atoms: C21_21  and  C23_23 
REMARK       I    between atoms: C23_23  and  N7_45 
REMARK    9  A    between atoms: C24_24  and  N7_45 
REMARK   10  A    between atoms: C26_26  and  C28_28 
REMARK       I    between atoms: C28_28  and  N9_47 
REMARK   11  A    between atoms: C29_29  and  C30_30 
REMARK   12  A    between atoms: C29_29  and  N9_47 
REMARK   13  A    between atoms: C30_30  and  C31_31 
REMARK   14  A    between atoms: C31_31  and  N10_48 
REMARK   15  A    between atoms: C35_35  and  C36_36 
REMARK       I    between atoms: C35_35  and  N12_51 
REMARK   16  A    between atoms: C36_36  and  C37_37 
REMARK   17  A    between atoms: C37_37  and  C38_38 
REMARK   18  A    between atoms: C38_38  and  N14_54 
USER                              x       y       z     vdW  Elec       q    Type
USER                           _______ _______ _______ _____ _____    ______ ____
ROOT
ATOM      1  C12 UNL     1      20.317  10.753   1.188 -0.50 +0.00    +0.033 A 
ATOM      2  C13 UNL     1      20.019  11.931   0.491 -0.63 +0.00    +0.017 A 
ATOM      3  C14 UNL     1      18.757  12.512   0.613 -0.57 +0.00    +0.002 A 
ATOM      4  C15 UNL     1      17.799  11.929   1.444 -0.62 +0.00    +0.017 A 
ATOM      5  C16 UNL     1      18.100  10.769   2.171 -0.45 +0.00    +0.033 A 
ATOM      6  C17 UNL     1      19.359  10.174   2.033 -0.43 +0.00    +0.034 A 
ENDROOT
BRANCH   1   7
ATOM      7  C11 UNL     1      21.654  10.101   1.088 -0.22 +0.00    +0.257 C 
ATOM      8  N4  UNL     1      22.096   9.516   2.257 -0.22 -0.00    -0.309 N 
ATOM      9  H34 UNL     1      21.628   9.793   3.113 +0.12 +0.00    +0.170 HD
ATOM     10  O2  UNL     1      22.250  10.189   0.022 -0.37 -0.00    -0.267 OA
BRANCH   8  11
ATOM     11  C9  UNL     1      23.291   8.834   2.433 -0.38 +0.00    +0.111 A 
ATOM     12  C10 UNL     1      23.884   8.038   1.466 -0.37 +0.00    +0.079 A 
ATOM     13  C7  UNL     1      25.066   7.474   2.002 -0.37 +0.00    +0.054 A 
ATOM     14  C8  UNL     1      25.187   7.969   3.275 -0.33 +0.00    +0.121 A 
ATOM     15  N3  UNL     1      24.135   8.827   3.522 -0.26 -0.00    -0.345 N 
ATOM     16  C34 UNL     1      24.100   9.655   4.708 -0.06 +0.00    +0.157 C 
BRANCH  13  17
ATOM     17  N2  UNL     1      25.902   6.599   1.333 -0.16 -0.00    -0.320 N 
ATOM     18  C6  UNL     1      25.710   6.100   0.057 -0.27 +0.00    +0.273 C 
ATOM     19  O1  UNL     1      24.734   6.351  -0.645 -0.30 -0.00    -0.266 OA
ATOM     20  H33 UNL     1      26.710   6.288   1.850 +0.14 +0.00    +0.169 HD
BRANCH  18  21
ATOM     21  C5  UNL     1      26.778   5.210  -0.402 -0.29 +0.00    +0.105 A 
ATOM     22  C4  UNL     1      28.085   5.068   0.056 -0.22 +0.00    +0.066 A 
ATOM     23  C3  UNL     1      28.737   4.074  -0.709 -0.21 +0.00    +0.052 A 
ATOM     24  C2  UNL     1      27.827   3.624  -1.633 -0.21 +0.00    +0.120 A 
ATOM     25  N1  UNL     1      26.654   4.314  -1.452 -0.16 -0.00    -0.354 N 
ATOM     26  C1  UNL     1      25.464   4.104  -2.254 -0.18 +0.00    +0.156 C 
BRANCH  23  27
ATOM     27  N12 UNL     1      30.026   3.584  -0.626 -0.03 -0.00    -0.326 N 
ATOM     28  C35 UNL     1      30.420   2.316  -1.016 -0.13 +0.00    +0.222 C 
ATOM     29  O6  UNL     1      29.689   1.442  -1.479 -0.09 -0.00    -0.273 OA
ATOM     30  H41 UNL     1      30.719   4.212  -0.239 +0.07 +0.00    +0.169 HD
BRANCH  28  31
ATOM     31  C36 UNL     1      31.909   2.103  -0.795 -0.16 +0.00    +0.110 C 
BRANCH  31  32
ATOM     32  C37 UNL     1      32.244   1.771   0.653 -0.13 +0.00    +0.078 C 
BRANCH  32  33
ATOM     33  C38 UNL     1      31.274   2.463   1.588 -0.37 +0.00    +0.047 C 
ATOM     34  N13 UNL     1      30.363   1.762   2.172 -0.25 -0.00    -0.394 N 
ATOM     35  H42 UNL     1      29.780   2.377   2.744 -0.44 +0.00    +0.157 HD
ATOM     36  H13 UNL     1      30.244   0.754   2.079 +0.09 +0.00    +0.157 HD
BRANCH  33  37
ATOM     37  N14 UNL     1      31.417   3.797   1.812 -0.11 -0.00    -0.293 NA
ATOM     38  H43 UNL     1      32.311   4.049   2.248 +0.05 +0.00    +0.125 HD
ATOM     39  H44 UNL     1      30.644   4.256   2.278 -0.06 +0.00    +0.125 HD
ENDBRANCH  33  37
ENDBRANCH  32  33
ENDBRANCH  31  32
ENDBRANCH  28  31
ENDBRANCH  23  27
ENDBRANCH  18  21
ENDBRANCH  13  17
ENDBRANCH   8  11
ENDBRANCH   1   7
BRANCH   5  40
ATOM     40  C18 UNL     1      17.046  10.190   3.052 -0.34 +0.00    +0.256 C 
ATOM     41  N5  UNL     1      16.678   8.891   2.748 -0.24 -0.00    -0.322 N 
ATOM     42  H35 UNL     1      17.180   8.392   2.027 +0.10 +0.00    +0.169 HD
ATOM     43  O3  UNL     1      16.622  10.881   3.971 -0.03 -0.00    -0.267 OA
BRANCH  41  44
ATOM     44  C19 UNL     1      15.700   8.163   3.405 -0.47 +0.00    +0.053 A 
ATOM     45  C20 UNL     1      15.797   7.491   4.595 -0.22 +0.00    +0.120 A 
ATOM     46  N6  UNL     1      14.581   6.926   4.876 -0.20 -0.00    -0.354 N 
ATOM     47  C21 UNL     1      13.675   7.204   3.865 -0.37 +0.00    +0.105 A 
ATOM     48  C33 UNL     1      14.316   6.138   6.064 -0.30 +0.00    +0.156 C 
ATOM     49  C22 UNL     1      14.369   7.990   2.948 -0.06 +0.00    +0.066 A 
BRANCH  47  50
ATOM     50  C23 UNL     1      12.286   6.747   3.853 -0.26 +0.00    +0.273 C 
ATOM     51  N7  UNL     1      11.834   6.303   5.083 -0.12 -0.00    -0.320 N 
ATOM     52  H36 UNL     1      12.450   6.386   5.878 +0.13 +0.00    +0.169 HD
ATOM     53  O4  UNL     1      11.602   6.785   2.834 -0.28 -0.00    -0.266 OA
BRANCH  51  54
ATOM     54  C24 UNL     1      10.580   5.793   5.356 -0.26 +0.00    +0.053 A 
ATOM     55  C25 UNL     1       9.729   6.115   6.384 -0.07 +0.00    +0.120 A 
ATOM     56  N8  UNL     1       8.576   5.380   6.244 -0.10 -0.00    -0.354 N 
ATOM     57  C26 UNL     1       8.688   4.529   5.161 -0.25 +0.00    +0.104 A 
ATOM     58  C32 UNL     1       7.410   5.579   7.082 -0.24 +0.00    +0.156 C 
ATOM     59  C27 UNL     1       9.917   4.815   4.578 -0.25 +0.00    +0.066 A 
BRANCH  57  60
ATOM     60  C28 UNL     1       7.727   3.559   4.669 -0.16 +0.00    +0.268 C 
ATOM     61  N9  UNL     1       8.013   3.025   3.434 -0.12 -0.00    -0.355 N 
ATOM     62  H37 UNL     1       8.643   3.556   2.835 +0.06 +0.00    +0.162 HD
ATOM     63  O5  UNL     1       6.700   3.272   5.277 +0.11 -0.00    -0.266 OA
BRANCH  61  64
ATOM     64  C29 UNL     1       7.051   2.208   2.724 -0.26 +0.00    +0.130 C 
BRANCH  64  65
ATOM     65  C30 UNL     1       5.746   2.956   2.482 -0.15 +0.00    +0.095 C 
BRANCH  65  66
ATOM     66  C31 UNL     1       4.556   2.152   2.974 -0.20 +0.00    +0.069 C 
ATOM     67  N11 UNL     1       4.642   1.478   4.153 -0.15 -0.00    -0.389 N 
ATOM     68  H39 UNL     1       5.372   1.753   4.801 -0.46 +0.00    +0.157 HD
ATOM     69  H40 UNL     1       3.776   1.222   4.610 +0.06 +0.00    +0.157 HD
BRANCH  66  70
ATOM     70  N10 UNL     1       3.481   2.123   2.256 -0.01 -0.00    -0.389 N 
ATOM     71  H38 UNL     1       3.658   2.599   1.366 +0.04 +0.00    +0.157 HD
ATOM     72  H10 UNL     1       2.597   1.696   2.532 +0.05 +0.00    +0.157 HD
ENDBRANCH  66  70
ENDBRANCH  65  66
ENDBRANCH  64  65
ENDBRANCH  61  64
ENDBRANCH  57  60
ENDBRANCH  51  54
ENDBRANCH  47  50
ENDBRANCH  41  44
ENDBRANCH   5  40
TORSDOF 18
TER
