USER    Run = 1
USER    DPF = ligand_238_receptor.dpf
USER  
USER    Estimated Free Energy of Binding    =   -8.21 kcal/mol  [=(1)+(2)+(3)-(4)]
USER    Estimated Inhibition Constant, Ki   =  957.20 nM (nanomolar)  [Temperature = 298.15 K]
USER    
USER    (1) Final Intermolecular Energy     =   -9.40 kcal/mol
USER        vdW + Hbond + desolv Energy     =   -9.40 kcal/mol
USER        Electrostatic Energy            =   +0.00 kcal/mol
USER    (2) Final Total Internal Energy     =   -2.25 kcal/mol
USER    (3) Torsional Free Energy           =   +1.19 kcal/mol
USER    (4) Unbound System's Energy  [=(2)] =   -2.25 kcal/mol
USER    
USER    
USER    NEWDPF move ligand_238.pdbqt
USER    NEWDPF about 0.000000 0.000000 0.000000
USER    NEWDPF tran0 11.619222 7.297873 3.101984
USER    NEWDPF quaternion0 0.137044 -0.614033 -0.771597 -0.093911
USER    NEWDPF axisangle0 0.137653 -0.616759 -0.775023 -169.222723
USER    NEWDPF quat0 0.137653 -0.616759 -0.775023 -169.222723
USER    NEWDPF dihe0 -180.00 179.47 50.19 179.20 123.94 -2.57 50.12 -91.82 180.00 114.46 88.99 180.00 163.65 27.70 79.55 51.89 101.76 105.11 -32.40 125.11 
USER  keepresnum = 1 
USER  
REMARK  20 active torsions:
REMARK  status: ('A' for Active; 'I' for Inactive)
REMARK    1  A    between atoms: C4_4  and  C5_5 
REMARK       I    between atoms: C5_5  and  N3_43 
REMARK    2  A    between atoms: C6_6  and  N3_43 
REMARK    3  A    between atoms: C8_8  and  C10_10 
REMARK       I    between atoms: C10_10  and  N5_45 
REMARK    4  A    between atoms: C11_11  and  N5_45 
REMARK    5  A    between atoms: C13_13  and  C15_15 
REMARK       I    between atoms: C15_15  and  N7_47 
REMARK    6  A    between atoms: C16_16  and  N7_47 
REMARK    7  A    between atoms: C18_18  and  C20_20 
REMARK       I    between atoms: C20_20  and  N9_49 
REMARK    8  A    between atoms: C21_21  and  N9_49 
REMARK    9  A    between atoms: C23_23  and  C25_25 
REMARK       I    between atoms: C25_25  and  N11_51 
REMARK   10  A    between atoms: C26_26  and  C27_27 
REMARK   11  A    between atoms: C26_26  and  N11_51 
REMARK   12  A    between atoms: C27_27  and  C28_28 
REMARK       I    between atoms: C28_28  and  N12_52 
REMARK   13  A    between atoms: C29_29  and  C30_30 
REMARK   14  A    between atoms: C29_29  and  N12_52 
REMARK   15  A    between atoms: C30_30  and  C31_31 
REMARK   16  A    between atoms: C31_31  and  N13_53 
REMARK   17  A    between atoms: C33_33  and  C34_34 
REMARK   18  A    between atoms: C33_33  and  N13_53 
REMARK   19  A    between atoms: C34_34  and  C35_35 
REMARK   20  A    between atoms: C35_35  and  N14_54 
USER                              x       y       z     vdW  Elec       q    Type
USER                           _______ _______ _______ _____ _____    ______ ____
ROOT
ATOM      1  C16 UNL     1      14.397   8.342   4.602 -0.39 +0.00    +0.053 A 
ATOM      2  C17 UNL     1      14.132   7.786   5.830 +0.12 +0.00    +0.120 A 
ATOM      3  C18 UNL     1      12.184   7.771   4.674 -0.33 +0.00    +0.105 A 
ATOM      4  C19 UNL     1      13.183   8.327   3.878 -0.31 +0.00    +0.066 A 
ATOM      5  C37 UNL     1      12.167   6.828   7.018 -0.32 +0.00    +0.156 C 
ATOM      6  N8  UNL     1      12.804   7.441   5.869 -0.14 -0.00    -0.354 N 
ENDROOT
BRANCH   1   7
ATOM      7  N7  UNL     1      15.652   8.793   4.241 -0.23 -0.00    -0.320 N 
ATOM      8  C15 UNL     1      16.169   8.786   2.958 -0.36 +0.00    +0.273 C 
ATOM      9  O3  UNL     1      15.552   8.385   1.974 -0.27 -0.00    -0.266 OA
ATOM     10  H47 UNL     1      16.214   9.172   4.988 +0.13 +0.00    +0.169 HD
BRANCH   8  11
ATOM     11  C13 UNL     1      17.531   9.312   2.855 -0.42 +0.00    +0.105 A 
ATOM     12  C14 UNL     1      18.732   8.649   2.618 +0.09 +0.00    +0.066 A 
ATOM     13  C11 UNL     1      19.787   9.591   2.606 -0.32 +0.00    +0.053 A 
ATOM     14  C12 UNL     1      19.219  10.821   2.830 +0.03 +0.00    +0.120 A 
ATOM     15  N6  UNL     1      17.865  10.652   2.975 -0.17 -0.00    -0.354 N 
ATOM     16  C38 UNL     1      16.941  11.741   3.226 -0.08 +0.00    +0.156 C 
BRANCH  13  17
ATOM     17  N5  UNL     1      21.145   9.416   2.415 -0.20 -0.00    -0.320 N 
ATOM     18  C10 UNL     1      21.770   9.257   1.192 -0.09 +0.00    +0.273 C 
ATOM     19  O2  UNL     1      21.177   9.266   0.116 -0.10 -0.00    -0.266 OA
ATOM     20  H46 UNL     1      21.709   9.424   3.251 +0.12 +0.00    +0.169 HD
BRANCH  18  21
ATOM     21  C8  UNL     1      23.219   9.083   1.276 -0.37 +0.00    +0.105 A 
ATOM     22  C9  UNL     1      24.142   8.744   0.288 -0.30 +0.00    +0.066 A 
ATOM     23  C6  UNL     1      25.434   8.698   0.859 -0.24 +0.00    +0.053 A 
ATOM     24  C7  UNL     1      25.292   9.017   2.186 -0.43 +0.00    +0.120 A 
ATOM     25  N4  UNL     1      23.964   9.252   2.434 -0.19 -0.00    -0.354 N 
ATOM     26  C39 UNL     1      23.440   9.614   3.736 -0.54 +0.00    +0.156 C 
BRANCH  23  27
ATOM     27  N3  UNL     1      26.650   8.407   0.284 -0.15 -0.00    -0.319 N 
ATOM     28  C5  UNL     1      27.874   8.397   0.925 -0.21 +0.00    +0.290 C 
ATOM     29  O1  UNL     1      28.056   8.651   2.113 -0.14 -0.00    -0.264 OA
ATOM     30  H45 UNL     1      26.675   8.177  -0.707 +0.10 +0.00    +0.169 HD
BRANCH  28  31
ATOM     31  C4  UNL     1      28.952   8.043   0.010 -0.20 +0.00    +0.176 A 
ATOM     32  N1  UNL     1      29.043   6.910  -0.765 -0.08 -0.00    -0.342 N 
ATOM     33  C1  UNL     1      28.079   5.837  -0.826 -0.22 +0.00    +0.157 C 
ATOM     34  C2  UNL     1      30.211   6.972  -1.474 -0.12 +0.00    +0.109 A 
ATOM     35  C3  UNL     1      30.795   8.158  -1.098 -0.15 +0.00    +0.107 A 
ATOM     36  N2  UNL     1      30.015   8.816  -0.183 -0.11 -0.00    -0.346 N 
ATOM     37  H2  UNL     1      30.210   9.714   0.260 +0.08 +0.00    +0.167 HD
ENDBRANCH  28  31
ENDBRANCH  23  27
ENDBRANCH  18  21
ENDBRANCH  13  17
ENDBRANCH   8  11
ENDBRANCH   1   7
BRANCH   3  38
ATOM     38  C20 UNL     1      10.769   7.539   4.384 -0.27 +0.00    +0.273 C 
ATOM     39  N9  UNL     1      10.397   6.206   4.400 -0.10 -0.00    -0.320 N 
ATOM     40  H48 UNL     1      11.104   5.508   4.572 +0.10 +0.00    +0.169 HD
ATOM     41  O4  UNL     1       9.996   8.462   4.141 -0.40 -0.00    -0.266 OA
BRANCH  39  42
ATOM     42  C21 UNL     1       9.122   5.727   4.168 -0.22 +0.00    +0.053 A 
ATOM     43  C22 UNL     1       8.117   5.808   5.101 -0.04 +0.00    +0.120 A 
ATOM     44  N10 UNL     1       6.984   5.251   4.563 -0.07 -0.00    -0.354 N 
ATOM     45  C23 UNL     1       7.235   4.794   3.281 -0.13 +0.00    +0.104 A 
ATOM     46  C36 UNL     1       5.720   5.154   5.265 -0.23 +0.00    +0.156 C 
ATOM     47  C24 UNL     1       8.570   5.097   3.029 -0.16 +0.00    +0.066 A 
BRANCH  45  48
ATOM     48  C25 UNL     1       6.247   4.150   2.428 -0.06 +0.00    +0.268 C 
ATOM     49  N11 UNL     1       6.551   2.859   2.052 -0.04 -0.00    -0.355 N 
ATOM     50  H49 UNL     1       7.359   2.410   2.459 +0.06 +0.00    +0.162 HD
ATOM     51  O5  UNL     1       5.212   4.698   2.060 -0.09 -0.00    -0.266 OA
BRANCH  49  52
ATOM     52  C26 UNL     1       5.644   2.046   1.262 -0.15 +0.00    +0.132 C 
BRANCH  52  53
ATOM     53  C27 UNL     1       6.082   1.945  -0.193 -0.11 +0.00    +0.122 C 
BRANCH  53  54
ATOM     54  C28 UNL     1       7.290   2.813  -0.462 -0.04 +0.00    +0.219 C 
ATOM     55  N12 UNL     1       6.961   4.017  -1.055 -0.02 -0.00    -0.361 N 
ATOM     56  H50 UNL     1       5.988   4.295  -1.051 -0.05 +0.00    +0.162 HD
ATOM     57  O6  UNL     1       8.434   2.494  -0.162 -0.07 -0.00    -0.274 OA
BRANCH  55  58
ATOM     58  C29 UNL     1       7.971   5.030  -1.296 +0.03 +0.00    +0.124 C 
BRANCH  58  59
ATOM     59  C30 UNL     1       8.312   5.828  -0.040 -0.20 +0.00    +0.050 C 
BRANCH  59  60
ATOM     60  C31 UNL     1       9.015   7.164  -0.323 -0.22 +0.00    +0.273 C 
BRANCH  60  61
ATOM     61  N13 UNL     1       9.456   7.355  -1.711 -0.34 +0.00    +0.084 N 
ATOM     62  C32 UNL     1       9.879   8.738  -1.932 +0.08 +0.00    +0.309 C 
BRANCH  61  63
ATOM     63  C33 UNL     1      10.458   6.387  -2.187 -0.17 +0.00    +0.273 C 
BRANCH  63  64
ATOM     64  C34 UNL     1      10.072   5.542  -3.411 -0.26 +0.00    +0.060 C 
BRANCH  64  65
ATOM     65  C35 UNL     1      10.211   4.037  -3.164 +0.08 +0.00    +0.268 C 
BRANCH  65  66
ATOM     66  N14 UNL     1       8.924   3.351  -3.134 -0.01 +0.00    +0.078 N 
ATOM     67  H51 UNL     1       8.728   3.014  -2.192 +0.12 +0.00    +0.312 HD
ATOM     68  H52 UNL     1       8.183   4.018  -3.348 +0.09 +0.00    +0.312 HD
ENDBRANCH  65  66
ENDBRANCH  64  65
ENDBRANCH  63  64
ENDBRANCH  61  63
ENDBRANCH  60  61
ENDBRANCH  59  60
ENDBRANCH  58  59
ENDBRANCH  55  58
ENDBRANCH  53  54
ENDBRANCH  52  53
ENDBRANCH  49  52
ENDBRANCH  45  48
ENDBRANCH  39  42
ENDBRANCH   3  38
TORSDOF 20
TER
