USER    Run = 1
USER    DPF = ligand_32_receptor.dpf
USER  
USER    Estimated Free Energy of Binding    = +131.82 kcal/mol  [=(1)+(2)+(3)-(4)]
USER    
USER    (1) Final Intermolecular Energy     = +130.63 kcal/mol
USER        vdW + Hbond + desolv Energy     = +130.63 kcal/mol
USER        Electrostatic Energy            =   +0.00 kcal/mol
USER    (2) Final Total Internal Energy     =   -0.53 kcal/mol
USER    (3) Torsional Free Energy           =   +1.19 kcal/mol
USER    (4) Unbound System's Energy  [=(2)] =   -0.53 kcal/mol
USER    
USER    
USER    NEWDPF move ligand_32.pdbqt
USER    NEWDPF about 0.000000 0.000000 0.000000
USER    NEWDPF tran0 12.239336 7.138695 1.080033
USER    NEWDPF quaternion0 -0.823724 -0.236089 0.326724 -0.398738
USER    NEWDPF axisangle0 -0.898218 -0.257440 0.356271 -133.001379
USER    NEWDPF quat0 -0.898218 -0.257440 0.356271 -133.001379
USER    NEWDPF dihe0 52.55 50.79 84.28 158.32 34.58 8.30 -15.42 176.15 -156.68 -180.00 -67.20 180.00 134.90 107.94 -143.22 56.19 -156.73 -155.35 -154.54 -50.01 -107.80 52.38 -101.82 
USER  keepresnum = 1 
USER  
REMARK  23 active torsions:
REMARK  status: ('A' for Active; 'I' for Inactive)
REMARK    1  A    between atoms: C2_2  and  C3_3 
REMARK    2  A    between atoms: C3_3  and  C5_5 
REMARK    3  A    between atoms: C12_12  and  C38_38 
REMARK    4  A    between atoms: C18_18  and  C34_34 
REMARK    5  A    between atoms: C20_20  and  C24_24 
REMARK    6  A    between atoms: C24_24  and  C25_25 
REMARK    7  A    between atoms: C26_26  and  S1_86 
REMARK    8  A    between atoms: C34_34  and  C36_36 
REMARK    9  A    between atoms: C36_36  and  C37_37 
REMARK   10  A    between atoms: C36_36  and  O8_66 
REMARK   11  A    between atoms: C37_37  and  O7_65 
REMARK   12  A    between atoms: C38_38  and  C39_39 
REMARK       I    between atoms: C39_39  and  N9_81 
REMARK   13  A    between atoms: C40_40  and  C41_41 
REMARK   14  A    between atoms: C40_40  and  N9_81 
REMARK   15  A    between atoms: C44_44  and  N10_82 
REMARK   16  A    between atoms: C47_47  and  C48_48 
REMARK       I    between atoms: C47_47  and  N10_82 
REMARK   17  A    between atoms: C48_48  and  N11_83 
REMARK   18  A    between atoms: C50_50  and  C51_51 
REMARK       I    between atoms: C50_50  and  N11_83 
REMARK   19  A    between atoms: C51_51  and  N12_84 
REMARK   20  A    between atoms: C52_52  and  C53_53 
REMARK       I    between atoms: C52_52  and  N12_84 
REMARK   21  A    between atoms: C53_53  and  C54_54 
REMARK   22  A    between atoms: C54_54  and  N13_85 
REMARK   23  A    between atoms: C57_57  and  S2_87 
USER                              x       y       z     vdW  Elec       q    Type
USER                           _______ _______ _______ _____ _____    ______ ____
ROOT
ATOM      1  C5  UNL     1       6.549   4.822   6.597 -0.38 +0.00    +0.180 C 
ATOM      2  C6  UNL     1       7.914   4.246   7.051 -0.38 +0.00    +0.241 C 
ATOM      3  C7  UNL     1      10.316   4.238   6.608 -0.37 +0.00    +0.173 C 
ATOM      4  C8  UNL     1      11.290   4.615   5.429 -0.39 +0.00    +0.002 A 
ATOM      5  C9  UNL     1      11.373   4.202   4.141 +1.21 +0.00    +0.023 A 
ATOM      6  C10 UNL     1      12.528   5.142   3.944+19.33 +0.00    +0.177 A 
ATOM      7  C11 UNL     1      12.256   6.276   2.871 +0.01 +0.00    +0.240 C 
ATOM      8  C12 UNL     1      12.897   7.032   0.569 +0.40 +0.00    +0.179 C 
ATOM      9  C13 UNL     1      12.530   6.384  -0.793 -0.36 +0.00    +0.223 C 
ATOM     10  C14 UNL     1      12.426   3.932  -0.169+17.06 +0.00    +0.100 C 
ATOM     11  C15 UNL     1      11.646   3.149  -1.220 +7.14 +0.00    +0.035 C 
ATOM     12  C16 UNL     1      11.380   4.469  -1.955 +4.08 +0.00    +0.067 C 
ATOM     13  C17 UNL     1       9.925   4.820  -2.312 -0.23 +0.00    +0.034 C 
ATOM     14  C18 UNL     1       9.131   5.556  -1.217 -0.18 +0.00    +0.085 C 
ATOM     15  C19 UNL     1       8.986   4.754   0.073 -0.08 +0.00    +0.223 C 
ATOM     16  C20 UNL     1       7.798   2.943   1.172 -0.12 +0.00    +0.180 C 
ATOM     17  C21 UNL     1       6.583   3.835   1.511 -0.05 +0.00    +0.241 C 
ATOM     18  C22 UNL     1       5.899   5.753   2.931 -0.14 +0.00    +0.225 C 
ATOM     19  C23 UNL     1       5.942   5.962   4.448 +0.16 +0.00    +0.236 C 
ATOM     20  O1  UNL     1       8.070   3.632   8.104 -0.44 -0.00    -0.271 OA
ATOM     21  O2  UNL     1      11.489   7.230   3.031 -0.27 -0.00    -0.271 OA
ATOM     22  O3  UNL     1      12.642   7.022  -1.844 +0.15 -0.00    -0.277 OA
ATOM     23  O4  UNL     1       9.332   5.201   1.166 -0.10 -0.00    -0.273 OA
ATOM     24  O5  UNL     1       5.546   3.856   0.851 -0.06 -0.00    -0.271 OA
ATOM     25  O6  UNL     1       5.437   6.938   4.994+12.16 -0.00    -0.272 OA
ATOM     26  N1  UNL     1       8.972   4.582   6.228 -0.13 -0.00    -0.354 N 
ATOM     27  N2  UNL     1      12.271   5.493   5.331 -0.18 -0.00    -0.279 NA
ATOM     28  N3  UNL     1      13.011   6.139   1.719 +1.11 -0.00    -0.346 N 
ATOM     29  N4  UNL     1      11.894   5.158  -0.763 -0.13 -0.00    -0.247 NA
ATOM     30  N5  UNL     1       8.365   3.531  -0.037 +0.00 -0.00    -0.347 N 
ATOM     31  N6  UNL     1       6.852   4.730   2.526 -0.01 -0.00    -0.351 N 
ATOM     32  N7  UNL     1       6.514   4.919   5.139 -0.10 -0.00    -0.346 N 
ATOM     33  H66 UNL     1       8.831   5.338   5.568 +0.10 +0.00    +0.162 HD
ATOM     34  H67 UNL     1      12.045   6.485   5.441 +0.10 +0.00    +0.128 HD
ATOM     35  H68 UNL     1      13.716   5.412   1.657 +1.06 +0.00    +0.163 HD
ATOM     36  H69 UNL     1       7.813   3.405  -0.890 +0.06 +0.00    +0.163 HD
ATOM     37  H70 UNL     1       7.838   4.989   2.611 +0.08 +0.00    +0.163 HD
ATOM     38  H71 UNL     1       6.819   4.114   4.597 +0.07 +0.00    +0.163 HD
ENDROOT
BRANCH   8  39
ATOM     39  C38 UNL     1      14.155   7.889   0.408+21.64 +0.00    +0.137 C 
BRANCH  39  40
ATOM     40  C39 UNL     1      14.726   8.284   1.755 +8.43 +0.00    +0.220 C 
ATOM     41  O9  UNL     1      14.665   7.559   2.746 +0.35 -0.00    -0.274 OA
ATOM     42  N9  UNL     1      15.258   9.551   1.776 +2.11 -0.00    -0.357 N 
ATOM     43  H73 UNL     1      15.474  10.002   0.896 -0.35 +0.00    +0.162 HD
BRANCH  42  44
ATOM     44  C40 UNL     1      15.932  10.047   2.953 -0.31 +0.00    +0.161 C 
BRANCH  44  45
ATOM     45  C41 UNL     1      17.339   9.521   3.021 -0.47 -0.00    -0.040 A 
ATOM     46  C42 UNL     1      17.935   9.228   4.252 -0.28 +0.00    +0.011 A 
ATOM     47  C43 UNL     1      19.233   8.710   4.313 +0.60 +0.00    +0.030 A 
ATOM     48  C44 UNL     1      19.956   8.470   3.144 +0.62 +0.00    +0.034 A 
ATOM     49  C45 UNL     1      19.357   8.752   1.910 +9.37 +0.00    +0.030 A 
ATOM     50  C46 UNL     1      18.060   9.269   1.848 -0.40 +0.00    +0.011 A 
BRANCH  48  51
ATOM     51  N10 UNL     1      21.263   7.946   3.118 +2.53 -0.00    -0.325 N 
ATOM     52  C47 UNL     1      22.224   8.099   2.130 +1.27 +0.00    +0.244 C 
ATOM     53  O10 UNL     1      22.066   8.649   1.043 -0.05 -0.00    -0.271 OA
ATOM     54  H74 UNL     1      21.540   7.383   3.914 +2.04 +0.00    +0.169 HD
BRANCH  52  55
ATOM     55  C48 UNL     1      23.537   7.355   2.456 +2.71 +0.00    +0.172 C 
ATOM     56  C49 UNL     1      24.232   8.076   3.609 +0.77 +0.00    +0.042 C 
BRANCH  55  57
ATOM     57  N11 UNL     1      24.394   7.288   1.268 -0.15 -0.00    -0.347 N 
ATOM     58  C50 UNL     1      24.457   8.350   0.383 -0.29 +0.00    +0.236 C 
ATOM     59  O11 UNL     1      23.732   9.337   0.440 -0.28 -0.00    -0.272 OA
ATOM     60  H75 UNL     1      25.292   6.809   1.381 +0.12 +0.00    +0.163 HD
BRANCH  58  61
ATOM     61  C51 UNL     1      25.578   8.216  -0.651 +1.30 +0.00    +0.225 C 
BRANCH  61  62
ATOM     62  N12 UNL     1      26.624   7.337  -0.159 -0.14 -0.00    -0.352 N 
ATOM     63  C52 UNL     1      27.378   7.675   0.942 -0.31 +0.00    +0.219 C 
ATOM     64  O12 UNL     1      27.218   8.735   1.543 -0.32 -0.00    -0.274 OA
ATOM     65  H76 UNL     1      26.946   6.598  -0.773 +0.09 +0.00    +0.162 HD
BRANCH  63  66
ATOM     66  C53 UNL     1      28.416   6.642   1.307 +0.08 +0.00    +0.123 C 
BRANCH  66  67
ATOM     67  C54 UNL     1      28.357   5.448   0.361 -0.16 +0.00    +0.144 C 
BRANCH  67  68
ATOM     68  N13 UNL     1      29.535   5.378  -0.487 -0.04 -0.00    -0.287 N 
ATOM     69  C55 UNL     1      29.578   5.875  -1.757 -0.10 +0.00    +0.228 C 
ATOM     70  C56 UNL     1      30.946   5.650  -2.330 -0.05 +0.00    +0.128 C 
ATOM     71  O13 UNL     1      28.665   6.432  -2.347 -0.44 -0.00    -0.273 OA
ATOM     72  C57 UNL     1      31.609   4.708  -1.337 -0.02 +0.00    +0.145 C 
ATOM     73  C58 UNL     1      30.651   4.660  -0.171 -0.06 +0.00    +0.240 C 
ATOM     74  O14 UNL     1      30.837   4.031   0.863 -0.14 -0.00    -0.272 OA
BRANCH  72  75
ATOM     75  S2  UNL     1      31.818   3.030  -2.015 -0.06 -0.00    -0.167 SA
ATOM     76  H77 UNL     1      31.009   2.419  -1.132 +0.03 +0.00    +0.102 HD
ENDBRANCH  72  75
ENDBRANCH  67  68
ENDBRANCH  66  67
ENDBRANCH  63  66
ENDBRANCH  61  62
ENDBRANCH  58  61
ENDBRANCH  55  57
ENDBRANCH  52  55
ENDBRANCH  48  51
ENDBRANCH  44  45
ENDBRANCH  42  44
ENDBRANCH  39  40
ENDBRANCH   8  39
BRANCH  14  77
ATOM     77  C34 UNL     1       7.749   6.148  -1.676+15.22 +0.00    +0.025 C 
ATOM     78  C35 UNL     1       6.632   5.519  -0.827 +2.63 +0.00    +0.013 C 
BRANCH  77  79
ATOM     79  C36 UNL     1       7.658   7.702  -1.691 +3.43 +0.00    +0.146 C 
BRANCH  79  80
ATOM     80  C37 UNL     1       8.918   8.431  -1.184 +0.28 +0.00    +0.196 C 
BRANCH  80  81
ATOM     81  O7  UNL     1       9.871   8.610  -2.221 -0.27 -0.00    -0.398 OA
ATOM     82  H64 UNL     1      10.733   8.332  -1.869 -0.15 +0.00    +0.209 HD
ENDBRANCH  80  81
ENDBRANCH  79  80
BRANCH  79  83
ATOM     83  O8  UNL     1       6.548   8.121  -0.888 -0.27 -0.00    -0.393 OA
ATOM     84  H65 UNL     1       6.672   9.071  -0.660 -0.38 +0.00    +0.210 HD
ENDBRANCH  79  83
ENDBRANCH  77  79
ENDBRANCH  14  77
BRANCH  16  85
ATOM     85  C24 UNL     1       7.379   1.484   0.979 -0.22 +0.00    +0.077 C 
BRANCH  85  86
ATOM     86  C25 UNL     1       6.036   1.369   0.314 -0.14 -0.00    -0.010 A 
ATOM     87  C26 UNL     1       4.871   0.859   0.848 +0.25 +0.00    +0.077 A 
ATOM     88  N8  UNL     1       3.881   0.939  -0.087 -0.08 -0.00    -0.350 N 
ATOM     89  C27 UNL     1       4.381   1.448  -1.262 -0.10 +0.00    +0.043 A 
ATOM     90  H72 UNL     1       2.924   0.658   0.064 +0.02 +0.00    +0.166 HD
ATOM     91  C28 UNL     1       3.748   1.663  -2.491 -0.06 +0.00    +0.030 A 
ATOM     92  C32 UNL     1       5.723   1.755  -1.035 -0.11 -0.00    -0.000 A 
ATOM     93  C29 UNL     1       4.514   2.207  -3.527 -0.06 +0.00    +0.002 A 
ATOM     94  C30 UNL     1       5.851   2.538  -3.331 -0.12 +0.00    +0.001 A 
ATOM     95  C31 UNL     1       6.465   2.325  -2.090 -0.09 +0.00    +0.014 A 
BRANCH  87  96
ATOM     96  S1  UNL     1       4.486   0.218   2.408 +0.48 -0.00    -0.116 SA
ATOM     97  C33 UNL     1       5.117   1.530   3.481 -0.32 +0.00    +0.097 C 
ENDBRANCH  87  96
ENDBRANCH  85  86
ENDBRANCH  16  85
BRANCH   1  98
ATOM     98  C3  UNL     1       5.360   4.005   7.171 -0.34 +0.00    +0.013 C 
ATOM     99  C4  UNL     1       4.122   4.890   7.361 -0.30 +0.00    +0.012 C 
BRANCH  98 100
ATOM    100  C2  UNL     1       5.042   2.767   6.304 +1.76 +0.00    +0.002 C 
ATOM    101  C1  UNL     1       3.592   2.311   6.396 -0.25 +0.00    +0.005 C 
ENDBRANCH  98 100
ENDBRANCH   1  98
TORSDOF 23
TER
