USER    Run = 1
USER    DPF = ligand_49_receptor.dpf
USER  
USER    Estimated Free Energy of Binding    =  +3.07e+005 kcal/mol  [=(1)+(2)+(3)-(4)]
USER    
USER    (1) Final Intermolecular Energy     =  +3.07e+005 kcal/mol
USER        vdW + Hbond + desolv Energy     =  +3.07e+005 kcal/mol
USER        Electrostatic Energy            =   +0.00 kcal/mol
USER    (2) Final Total Internal Energy     =   +0.00 kcal/mol
USER    (3) Torsional Free Energy           =   +1.19 kcal/mol
USER    (4) Unbound System's Energy  [=(2)] =   +0.00 kcal/mol
USER    
USER    
USER    NEWDPF move ligand_49.pdbqt
USER    NEWDPF about 0.000000 0.000000 0.000000
USER    NEWDPF tran0 19.562109 7.007365 3.636650
USER    NEWDPF quaternion0 -0.007255 -0.348579 0.932162 0.097541
USER    NEWDPF axisangle0 -0.007289 -0.350249 0.936628 168.804828
USER    NEWDPF quat0 -0.007289 -0.350249 0.936628 168.804828
USER  keepresnum = 1 
USER  
REMARK  0 active torsions:
REMARK  status: ('A' for Active; 'I' for Inactive)
REMARK       I    between atoms: C3_3  and  N19_108 
REMARK       I    between atoms: C4_4  and  O26_84 
REMARK       I    between atoms: C5_5  and  O25_83 
REMARK       I    between atoms: C6_6  and  O2_60 
REMARK       I    between atoms: C7_7  and  C8_8 
REMARK       I    between atoms: C7_7  and  O2_60 
REMARK       I    between atoms: C7_7  and  N5_91 
REMARK       I    between atoms: C8_8  and  C9_9 
REMARK       I    between atoms: C8_8  and  O4_62 
REMARK       I    between atoms: C10_10  and  C12_12 
REMARK       I    between atoms: C13_13  and  C15_15 
REMARK       I    between atoms: C15_15  and  N3_89 
REMARK       I    between atoms: C16_16  and  C17_17 
REMARK       I    between atoms: C16_16  and  N3_89 
REMARK       I    between atoms: C17_17  and  C18_18 
REMARK       I    between atoms: C18_18  and  N4_90 
REMARK       I    between atoms: C19_19  and  C20_20 
REMARK       I    between atoms: C19_19  and  N5_91 
REMARK       I    between atoms: C20_20  and  C21_21 
REMARK       I    between atoms: C20_20  and  N6_92 
REMARK       I    between atoms: C21_21  and  O6_64 
REMARK       I    between atoms: C23_23  and  C24_24 
REMARK       I    between atoms: C23_23  and  N6_92 
REMARK       I    between atoms: C24_24  and  C25_25 
REMARK       I    between atoms: C25_25  and  C26_26 
REMARK       I    between atoms: C25_25  and  O24_82 
REMARK       I    between atoms: C26_26  and  N7_93 
REMARK       I    between atoms: C28_28  and  C29_29 
REMARK       I    between atoms: C28_28  and  N7_93 
REMARK       I    between atoms: C29_29  and  C30_30 
REMARK       I    between atoms: C29_29  and  N11_98 
REMARK       I    between atoms: C30_30  and  C31_31 
REMARK       I    between atoms: C30_30  and  O9_67 
REMARK       I    between atoms: C34_34  and  O9_67 
REMARK       I    between atoms: C35_35  and  O14_72 
REMARK       I    between atoms: C36_36  and  O13_71 
REMARK       I    between atoms: C37_37  and  O12_70 
REMARK       I    between atoms: C38_38  and  C39_39 
REMARK       I    between atoms: C39_39  and  O11_69 
REMARK       I    between atoms: C40_40  and  O14_72 
REMARK       I    between atoms: C41_41  and  O20_78 
REMARK       I    between atoms: C42_42  and  O18_76 
REMARK       I    between atoms: C43_43  and  O17_75 
REMARK       I    between atoms: C44_44  and  C45_45 
REMARK       I    between atoms: C45_45  and  O16_74 
REMARK       I    between atoms: C46_46  and  O18_76 
REMARK       I    between atoms: C46_46  and  N10_97 
REMARK       I    between atoms: C47_47  and  C48_48 
REMARK       I    between atoms: C47_47  and  N11_98 
REMARK       I    between atoms: C50_50  and  N18_107 
REMARK       I    between atoms: C51_51  and  C52_52 
REMARK       I    between atoms: C52_52  and  C53_53 
REMARK       I    between atoms: C52_52  and  N15_104 
REMARK       I    between atoms: C53_53  and  C54_54 
REMARK       I    between atoms: C54_54  and  N14_103 
REMARK       I    between atoms: C55_55  and  C56_56 
REMARK       I    between atoms: C55_55  and  N15_104 
REMARK       I    between atoms: C56_56  and  C57_57 
REMARK       I    between atoms: C56_56  and  N17_106 
REMARK       I    between atoms: C57_57  and  N16_105 
USER                              x       y       z     vdW  Elec       q    Type
USER                           _______ _______ _______ _____ _____    ______ ____
ROOT
ATOM      1  C1  UNL     1      13.019   2.264   6.973+99.99 +0.00    +0.042 C 
ATOM      2  C2  UNL     1      11.925   3.248   7.377 +0.65 +0.00    +0.156 C 
ATOM      3  C3  UNL     1      12.492   4.618   7.822 -0.38 +0.00    +0.277 C 
ATOM      4  C4  UNL     1      11.368   5.664   7.761 -0.18 +0.00    +0.187 C 
ATOM      5  C5  UNL     1      10.760   5.762   6.344 -0.24 +0.00    +0.204 C 
ATOM      6  C6  UNL     1      11.032   4.493   5.503 -0.25 +0.00    +0.294 C 
ATOM      7  C7  UNL     1      12.267   5.112   3.558+25.50 +0.00    +0.262 C 
ATOM      8  C8  UNL     1      12.473   4.028   2.463+99.99 +0.00    +0.224 C 
ATOM      9  C9  UNL     1      11.255   3.158   2.328+99.99 +0.00    +0.084 A 
ATOM     10  C10 UNL     1       9.199   2.539   1.805 +0.15 +0.00    +0.073 A 
ATOM     11  C11 UNL     1       9.636   1.363   2.381+11.06 +0.00    +0.084 A 
ATOM     12  C12 UNL     1       7.738   2.693   1.234 -0.14 +0.00    +0.102 A 
ATOM     13  C13 UNL     1       5.650   2.098   0.714 -0.10 +0.00    +0.108 A 
ATOM     14  C14 UNL     1       5.646   3.411   0.266 -0.07 +0.00    +0.087 A 
ATOM     15  C15 UNL     1       4.516   1.157   0.657 -0.08 +0.00    +0.268 C 
ATOM     16  C16 UNL     1       2.399   0.622  -0.494 -0.10 +0.00    +0.125 C 
ATOM     17  C17 UNL     1       2.724  -0.164  -1.766 +0.18 +0.00    +0.049 C 
ATOM     18  C18 UNL     1       2.757   0.707  -3.027 -0.03 +0.00    +0.268 C 
ATOM     19  C19 UNL     1      13.189   7.389   3.787 -0.34 +0.00    +0.245 C 
ATOM     20  C20 UNL     1      14.461   8.184   4.119 -0.39 +0.00    +0.205 C 
ATOM     21  C21 UNL     1      14.796   8.086   5.634 +4.28 +0.00    +0.146 C 
ATOM     22  C22 UNL     1      15.539   6.818   6.047 +2.52 +0.00    +0.042 C 
ATOM     23  C23 UNL     1      16.727   8.458   3.168 -0.45 +0.00    +0.220 C 
ATOM     24  C24 UNL     1      17.641   8.013   2.052 -0.08 +0.00    +0.136 C 
ATOM     25  C25 UNL     1      19.067   8.533   2.221 +4.14 +0.00    +0.149 C 
ATOM     26  C26 UNL     1      19.826   8.015   3.475 +1.41 +0.00    +0.109 C 
ATOM     27  C27 UNL     1      19.723   6.502   3.679+17.40 +0.00    +0.035 C 
ATOM     28  C28 UNL     1      22.094   8.503   4.419+51.23 +0.00    +0.243 C 
ATOM     29  C29 UNL     1      23.510   9.002   4.066 -0.29 +0.00    +0.212 C 
ATOM     30  C30 UNL     1      24.400   7.857   3.507 +1.70 +0.00    +0.207 C 
ATOM     31  C31 UNL     1      24.715   6.786   4.512+99.99 +0.00    +0.057 A 
ATOM     32  C32 UNL     1      25.909   6.404   5.090 +0.99 +0.00    +0.116 A 
ATOM     33  C33 UNL     1      24.419   5.184   6.009+99.99 +0.00    +0.180 A 
ATOM     34  C34 UNL     1      24.047   7.860   1.142 -0.27 +0.00    +0.293 C 
ATOM     35  C35 UNL     1      25.475   7.635   0.567 -0.30 +0.00    +0.211 C 
ATOM     36  C36 UNL     1      25.478   6.527  -0.492 -0.35 +0.00    +0.183 C 
ATOM     37  C37 UNL     1      24.424   5.472  -0.158 -0.46 +0.00    +0.180 C 
ATOM     38  C38 UNL     1      23.034   6.119  -0.215 -0.27 +0.00    +0.179 C 
ATOM     39  C39 UNL     1      22.005   5.290   0.566+25.75 +0.00    +0.198 C 
ATOM     40  C40 UNL     1      27.293   8.965  -0.336 +5.13 +0.00    +0.292 C 
ATOM     41  C41 UNL     1      27.751  10.437  -0.198+99.99 +0.00    +0.205 C 
ATOM     42  C42 UNL     1      29.206  10.563  -0.658+99.99 +0.00    +0.198 C 
ATOM     43  C43 UNL     1      29.344  10.033  -2.094+99.99 +0.00    +0.181 C 
ATOM     44  C44 UNL     1      28.786   8.600  -2.198 +6.16 +0.00    +0.179 C 
ATOM     45  C45 UNL     1      29.710   7.538  -1.574 -0.19 +0.00    +0.198 C 
ATOM     46  C46 UNL     1      29.948  12.430   0.582+99.99 +0.00    +0.358 C 
ATOM     47  C47 UNL     1      23.808  10.869   5.691+18.14 +0.00    +0.269 C 
ATOM     48  C48 UNL     1      24.253  11.115   7.116+58.81 +0.00    +0.111 A 
ATOM     49  C49 UNL     1      23.860  12.210   7.867+99.99 +0.00    +0.009 A 
ATOM     50  C50 UNL     1      24.342  12.204   9.169 +1.62 +0.00    +0.087 A 
ATOM     51  C51 UNL     1      25.450  10.211   8.853+99.99 +0.00    +0.117 A 
ATOM     52  C52 UNL     1      26.440   9.154   9.358+99.99 +0.00    +0.296 C 
ATOM     53  C53 UNL     1      25.917   7.773   8.926+99.99 +0.00    +0.146 C 
ATOM     54  C54 UNL     1      26.637   6.627   9.591+99.99 +0.00    +0.217 C 
ATOM     55  C55 UNL     1      28.450  10.564   9.351 +3.16 +0.00    +0.315 C 
ATOM     56  C56 UNL     1      29.947  10.591   8.973+99.99 +0.00    +0.336 C 
ATOM     57  C57 UNL     1      30.639  11.805   9.614+10.09 +0.00    +0.250 C 
ATOM     58  C58 UNL     1      22.982  13.289   7.319+99.99 +0.00    +0.054 C 
ATOM     59  O1  UNL     1      10.945   3.328   6.328 -0.30 -0.00    -0.351 OA
ATOM     60  O2  UNL     1      12.303   4.523   4.854 +0.61 -0.00    -0.331 OA
ATOM     61  O3  UNL     1       4.520   0.090   1.265 +2.07 -0.00    -0.266 OA
ATOM     62  O4  UNL     1      12.687   4.644   1.177+92.87 -0.00    -0.384 OA
ATOM     63  O5  UNL     1      12.078   7.912   3.801 -0.29 -0.00    -0.271 OA
ATOM     64  O6  UNL     1      13.615   8.159   6.448 -0.14 -0.00    -0.393 OA
ATOM     65  O7  UNL     1      17.002   9.361   3.948 -0.34 -0.00    -0.274 OA
ATOM     66  O8  UNL     1      21.771   8.165   5.558+99.99 -0.00    -0.271 OA
ATOM     67  O9  UNL     1      23.842   7.173   2.381 +0.90 -0.00    -0.345 OA
ATOM     68  O10 UNL     1      23.006   7.483   0.234 -0.26 -0.00    -0.348 OA
ATOM     69  O11 UNL     1      20.679   5.709   0.253+99.99 -0.00    -0.398 OA
ATOM     70  O12 UNL     1      24.562   4.400  -1.102 -0.30 -0.00    -0.390 OA
ATOM     71  O13 UNL     1      26.764   5.874  -0.528 -0.12 -0.00    -0.390 OA
ATOM     72  O14 UNL     1      25.916   8.901   0.046 +0.42 -0.00    -0.346 OA
ATOM     73  O15 UNL     1      27.450   8.509  -1.679 +6.11 -0.00    -0.348 OA
ATOM     74  O16 UNL     1      29.163   6.236  -1.765 -0.11 -0.00    -0.398 OA
ATOM     75  O17 UNL     1      30.715  10.082  -2.499 +1.50 -0.00    -0.390 OA
ATOM     76  O18 UNL     1      29.609  11.955  -0.637 +6.73 -0.00    -0.293 OA
ATOM     77  O19 UNL     1      29.889  11.814   1.632+99.99 -0.00    -0.239 OA
ATOM     78  O20 UNL     1      26.928  11.315  -0.996+99.99 -0.00    -0.388 OA
ATOM     79  O21 UNL     1      23.218  11.688   5.000 +5.85 -0.00    -0.266 OA
ATOM     80  O22 UNL     1      27.159   6.677  10.698+99.99 -0.00    -0.274 OA
ATOM     81  O23 UNL     1      30.156  12.931   9.653 -0.19 -0.00    -0.271 OA
ATOM     82  O24 UNL     1      19.823   8.163   1.045+99.99 -0.00    -0.393 OA
ATOM     83  O25 UNL     1       9.337   5.967   6.460 -0.07 -0.00    -0.388 OA
ATOM     84  O26 UNL     1      11.865   6.942   8.201 +1.30 -0.00    -0.391 OA
ATOM     85  N1  UNL     1      10.132   3.565   1.768+48.22 -0.00    -0.349 N 
ATOM     86  H1  UNL     1       9.975   4.492   1.371 -0.39 +0.00    +0.166 HD
ATOM     87  N2  UNL     1       6.871   1.705   1.271 -0.09 -0.00    -0.344 N 
ATOM     88  H2  UNL     1       7.062   0.779   1.653 +0.06 +0.00    +0.167 HD
ATOM     89  N3  UNL     1       3.463   1.543  -0.152 -0.06 -0.00    -0.356 N 
ATOM     90  N4  UNL     1       3.831   1.704  -2.997 -0.04 +0.00    +0.078 N 
ATOM     91  N5  UNL     1      13.380   6.044   3.571 +1.79 -0.00    -0.330 N 
ATOM     92  N6  UNL     1      15.541   7.758   3.218 -0.19 -0.00    -0.345 N 
ATOM     93  N7  UNL     1      21.232   8.413   3.353 +0.52 -0.00    -0.352 N 
ATOM     94  N8  UNL     1      25.710   5.430   6.037 +4.86 -0.00    -0.360 N 
ATOM     95  H8  UNL     1      26.412   4.991   6.633+12.84 +0.00    +0.166 HD
ATOM     96  N9  UNL     1      23.775   5.971   5.097+99.99 -0.00    -0.352 N 
ATOM     97  N10 UNL     1      30.362  13.711   0.480+99.99 -0.00    -0.346 N 
ATOM     98  N11 UNL     1      24.116   9.596   5.254 +0.45 -0.00    -0.340 N 
ATOM     99  N12 UNL     1      25.123  11.229   9.659 +0.20 -0.00    -0.335 N 
ATOM    100  H12 UNL     1      25.459  11.262  10.622 +0.08 +0.00    +0.168 HD
ATOM    101  N13 UNL     1      25.050  10.119   7.580+99.99 -0.00    -0.339 N 
ATOM    102  H13 UNL     1      25.329   9.338   6.987+99.99 +0.00    +0.167 HD
ATOM    103  N14 UNL     1      26.597   5.456   8.887+99.99 -0.00    -0.370 N 
ATOM    104  N15 UNL     1      27.809   9.351   8.795+21.38 +0.00    +0.098 N 
ATOM    105  N16 UNL     1      31.894  11.552  10.098 +7.49 -0.00    -0.368 N 
ATOM    106  N17 UNL     1      30.623   9.322   9.382+99.99 +0.00    +0.093 N 
ATOM    107  N18 UNL     1      24.048  13.233  10.068+36.77 -0.00    -0.288 NA
ATOM    108  N19 UNL     1      13.087   4.560   9.171 +1.32 +0.00    +0.088 N 
ATOM    109  S1  UNL     1      11.260   1.536   2.896 +8.99 -0.00    -0.084 SA
ATOM    110  S2  UNL     1       7.172   4.147   0.528 -0.16 -0.00    -0.080 SA
ATOM    111  H58 UNL     1      11.798   4.886   0.846 +0.01 +0.00    +0.210 HD
ATOM    112  H59 UNL     1      13.188   9.019   6.260 +0.17 +0.00    +0.210 HD
ATOM    113  H60 UNL     1      20.617   6.660   0.496+99.99 +0.00    +0.209 HD
ATOM    114  H61 UNL     1      23.908   3.711  -0.888 +0.19 +0.00    +0.210 HD
ATOM    115  H62 UNL     1      26.588   5.037  -1.015 +0.13 +0.00    +0.210 HD
ATOM    116  H63 UNL     1      28.261   6.258  -1.376 +0.10 +0.00    +0.209 HD
ATOM    117  H64 UNL     1      30.739   9.961  -3.465 +0.09 +0.00    +0.210 HD
ATOM    118  H65 UNL     1      27.291  12.212  -0.887 +1.59 +0.00    +0.210 HD
ATOM    119  H66 UNL     1      19.491   8.716   0.312 +1.31 +0.00    +0.210 HD
ATOM    120  H67 UNL     1       8.968   5.199   6.934 +0.14 +0.00    +0.210 HD
ATOM    121  H68 UNL     1      12.530   7.255   7.551 +0.17 +0.00    +0.210 HD
ATOM    122  H69 UNL     1       3.665   2.218  -0.885 +0.03 +0.00    +0.162 HD
ATOM    123  H70 UNL     1       4.728   1.209  -2.990 +0.06 +0.00    +0.312 HD
ATOM    124  H71 UNL     1       3.820   2.216  -3.882 +0.05 +0.00    +0.312 HD
ATOM    125  H72 UNL     1      14.288   5.651   3.775 +0.11 +0.00    +0.165 HD
ATOM    126  H73 UNL     1      15.257   7.278   2.368 -0.08 +0.00    +0.163 HD
ATOM    127  H74 UNL     1      21.587   8.474   2.403 +0.11 +0.00    +0.163 HD
ATOM    128  H75 UNL     1      22.774   5.992   4.943+99.99 +0.00    +0.166 HD
ATOM    129  H76 UNL     1      30.559  14.086  -0.437+99.99 +0.00    +0.161 HD
ATOM    130  H77 UNL     1      30.779  14.139   1.292 +8.86 +0.00    +0.161 HD
ATOM    131  H78 UNL     1      24.395   8.968   6.006 +1.32 +0.00    +0.163 HD
ATOM    132  H79 UNL     1      27.133   4.682   9.252+99.99 +0.00    +0.159 HD
ATOM    133  H80 UNL     1      26.373   5.436   7.891 +4.97 +0.00    +0.159 HD
ATOM    134  H81 UNL     1      27.718   9.465   7.785+99.99 +0.00    +0.317 HD
ATOM    135  H82 UNL     1      32.058  10.579  10.345+10.56 +0.00    +0.159 HD
ATOM    136  H83 UNL     1      32.303  12.269  10.680 -0.14 +0.00    +0.159 HD
ATOM    137  H84 UNL     1      29.885   8.606   9.387 +0.16 +0.00    +0.314 HD
ATOM    138  H85 UNL     1      31.255   9.047   8.630+99.99 +0.00    +0.314 HD
ATOM    139  H86 UNL     1      23.046  13.317  10.203 +0.05 +0.00    +0.125 HD
ATOM    140  H87 UNL     1      24.405  14.119   9.723+99.99 +0.00    +0.125 HD
ATOM    141  H88 UNL     1      14.048   4.227   9.115 +0.42 +0.00    +0.313 HD
ATOM    142  H89 UNL     1      13.135   5.520   9.528 +0.31 +0.00    +0.313 HD
ENDROOT
TORSDOF 52
TER
