USER    Run = 1
USER    DPF = ligand_102_receptor.dpf
USER  
USER    Estimated Free Energy of Binding    =  +5.83e+003 kcal/mol  [=(1)+(2)+(3)-(4)]
USER    
USER    (1) Final Intermolecular Energy     =  +5.83e+003 kcal/mol
USER        vdW + Hbond + desolv Energy     =  +5.83e+003 kcal/mol
USER        Electrostatic Energy            =   +0.00 kcal/mol
USER    (2) Final Total Internal Energy     =   +0.00 kcal/mol
USER    (3) Torsional Free Energy           =   +1.19 kcal/mol
USER    (4) Unbound System's Energy  [=(2)] =   +0.00 kcal/mol
USER    
USER    
USER    NEWDPF move ligand_102.pdbqt
USER    NEWDPF about 0.000000 0.000000 0.000000
USER    NEWDPF tran0 15.330894 7.897267 3.207511
USER    NEWDPF quaternion0 0.927804 0.341274 -0.142687 0.048511
USER    NEWDPF axisangle0 0.928897 0.341676 -0.142855 174.438893
USER    NEWDPF quat0 0.928897 0.341676 -0.142855 174.438893
USER  keepresnum = 1 
USER  
REMARK  0 active torsions:
REMARK  status: ('A' for Active; 'I' for Inactive)
REMARK       I    between atoms: C2_2  and  C3_3 
REMARK       I    between atoms: C2_2  and  C7_7 
REMARK       I    between atoms: C3_3  and  C4_4 
REMARK       I    between atoms: C4_4  and  C5_5 
REMARK       I    between atoms: C5_5  and  N1_54 
REMARK       I    between atoms: C6_6  and  N2_56 
REMARK       I    between atoms: C6_6  and  N3_57 
REMARK       I    between atoms: C7_7  and  N4_58 
REMARK       I    between atoms: C11_11  and  C12_12 
REMARK       I    between atoms: C12_12  and  N5_59 
REMARK       I    between atoms: C13_13  and  C15_15 
REMARK       I    between atoms: C13_13  and  N5_59 
REMARK       I    between atoms: C15_15  and  N6_60 
REMARK       I    between atoms: C16_16  and  C17_17 
REMARK       I    between atoms: C16_16  and  C19_19 
REMARK       I    between atoms: C16_16  and  N6_60 
REMARK       I    between atoms: C17_17  and  O4_72 
REMARK       I    between atoms: C19_19  and  C20_20 
REMARK       I    between atoms: C20_20  and  C21_21 
REMARK       I    between atoms: C21_21  and  C22_22 
REMARK       I    between atoms: C21_21  and  C24_24 
REMARK       I    between atoms: C22_22  and  C23_23 
REMARK       I    between atoms: C23_23  and  O7_75 
REMARK       I    between atoms: C24_24  and  N7_61 
REMARK       I    between atoms: C25_25  and  C26_26 
REMARK       I    between atoms: C25_25  and  C30_30 
REMARK       I    between atoms: C25_25  and  N7_61 
REMARK       I    between atoms: C26_26  and  C27_27 
REMARK       I    between atoms: C27_27  and  C28_28 
REMARK       I    between atoms: C28_28  and  C29_29 
REMARK       I    between atoms: C29_29  and  N8_62 
REMARK       I    between atoms: C30_30  and  C31_31 
REMARK       I    between atoms: C31_31  and  C32_32 
REMARK       I    between atoms: C32_32  and  C33_33 
REMARK       I    between atoms: C32_32  and  C40_40 
REMARK       I    between atoms: C33_33  and  C34_34 
REMARK       I    between atoms: C37_37  and  O10_78 
REMARK       I    between atoms: C40_40  and  N9_63 
REMARK       I    between atoms: C41_41  and  C42_42 
REMARK       I    between atoms: C41_41  and  C46_46 
REMARK       I    between atoms: C41_41  and  N9_63 
REMARK       I    between atoms: C42_42  and  C43_43 
REMARK       I    between atoms: C43_43  and  C44_44 
REMARK       I    between atoms: C44_44  and  N10_64 
REMARK       I    between atoms: C45_45  and  N11_66 
REMARK       I    between atoms: C45_45  and  N12_67 
REMARK       I    between atoms: C46_46  and  C47_47 
REMARK       I    between atoms: C47_47  and  C48_48 
REMARK       I    between atoms: C48_48  and  C49_49 
REMARK       I    between atoms: C48_48  and  C53_53 
REMARK       I    between atoms: C49_49  and  C50_50 
REMARK       I    between atoms: C53_53  and  N13_68 
USER                              x       y       z     vdW  Elec       q    Type
USER                           _______ _______ _______ _____ _____    ______ ____
ROOT
ATOM      1  C1  UNL     1      21.761  10.443   0.281 -0.47 +0.00    +0.020 C 
ATOM      2  C2  UNL     1      22.609  10.601   1.546+10.79 +0.00    +0.074 C 
ATOM      3  C3  UNL     1      23.818  11.504   1.236+99.99 +0.00    +0.015 C 
ATOM      4  C4  UNL     1      24.859  11.567   2.361 +9.71 +0.00    +0.020 C 
ATOM      5  C5  UNL     1      26.066  12.430   1.985+99.99 +0.00    +0.121 C 
ATOM      6  C6  UNL     1      27.808  12.363   0.406+99.99 +0.00    +0.121 C 
ATOM      7  C7  UNL     1      21.755  11.218   2.658+16.50 +0.00    +0.224 C 
ATOM      8  C8  UNL     1      21.497  11.595   5.085+99.99 +0.00    +0.127 C 
ATOM      9  C9  UNL     1      21.750  10.729   6.309+99.99 +0.00    +0.022 C 
ATOM     10  C10 UNL     1      22.922   9.847   5.889 +0.40 +0.00    +0.037 C 
ATOM     11  C11 UNL     1      22.663   9.584   4.405 -0.20 +0.00    +0.179 C 
ATOM     12  C12 UNL     1      21.758   8.339   4.229+77.88 +0.00    +0.241 C 
ATOM     13  C13 UNL     1      19.362   7.633   3.963 +0.39 +0.00    +0.172 C 
ATOM     14  C14 UNL     1      19.048   7.001   5.313+41.26 +0.00    +0.042 C 
ATOM     15  C15 UNL     1      18.130   8.355   3.377 -0.42 +0.00    +0.240 C 
ATOM     16  C16 UNL     1      17.379   9.746   1.454 -0.40 +0.00    +0.182 C 
ATOM     17  C17 UNL     1      17.408  11.286   1.500 -0.50 +0.00    +0.144 C 
ATOM     18  C18 UNL     1      17.284  11.841   2.915 -0.44 +0.00    +0.042 C 
ATOM     19  C19 UNL     1      17.573   9.233   0.018 -0.38 +0.00    +0.152 C 
ATOM     20  C20 UNL     1      16.445   9.469  -0.976 +8.10 +0.00    +0.095 C 
ATOM     21  C21 UNL     1      15.834   8.170  -1.525+26.00 +0.00    +0.095 C 
ATOM     22  C22 UNL     1      16.844   7.305  -2.293 +0.09 +0.00    +0.124 C 
ATOM     23  C23 UNL     1      16.192   6.388  -3.294+99.99 +0.00    +0.140 C 
ATOM     24  C24 UNL     1      15.229   7.401  -0.359 +0.87 +0.00    +0.223 C 
ATOM     25  C25 UNL     1      13.251   7.224   1.115 +2.55 +0.00    +0.154 C 
ATOM     26  C26 UNL     1      13.590   7.881   2.459 +2.20 +0.00    +0.033 C 
ATOM     27  C27 UNL     1      13.365   9.399   2.481+99.99 +0.00    +0.004 C 
ATOM     28  C28 UNL     1      13.559  10.015   3.874+99.99 +0.00    +0.030 C 
ATOM     29  C29 UNL     1      12.513   9.588   4.905+84.38 +0.00    +0.267 C 
ATOM     30  C30 UNL     1      11.744   7.270   0.815 +1.03 +0.00    +0.150 C 
ATOM     31  C31 UNL     1      10.846   6.388   1.663 -0.31 +0.00    +0.095 C 
ATOM     32  C32 UNL     1       9.762   7.202   2.385 -0.33 +0.00    +0.089 C 
ATOM     33  C33 UNL     1       8.438   7.380   1.627 -0.38 +0.00    +0.053 C 
ATOM     34  C34 UNL     1       7.731   6.127   1.174 -0.20 -0.00    -0.057 A 
ATOM     35  C35 UNL     1       6.822   5.475   2.017 -0.16 +0.00    +0.010 A 
ATOM     36  C36 UNL     1       6.166   4.318   1.593 -0.10 +0.00    +0.037 A 
ATOM     37  C37 UNL     1       6.407   3.814   0.322 -0.08 +0.00    +0.065 A 
ATOM     38  C38 UNL     1       7.295   4.453  -0.538 -0.10 +0.00    +0.037 A 
ATOM     39  C39 UNL     1       7.952   5.610  -0.111 -0.17 +0.00    +0.010 A 
ATOM     40  C40 UNL     1       9.559   6.725   3.820 -0.22 +0.00    +0.223 C 
ATOM     41  C41 UNL     1       9.670   4.819   5.346 -0.27 +0.00    +0.154 C 
ATOM     42  C42 UNL     1       9.109   3.406   5.518 -0.42 +0.00    +0.034 C 
ATOM     43  C43 UNL     1       7.639   3.234   5.130 +0.61 +0.00    +0.022 C 
ATOM     44  C44 UNL     1       6.690   4.233   5.790 -0.32 +0.00    +0.121 C 
ATOM     45  C45 UNL     1       4.412   4.778   5.505 -0.23 +0.00    +0.121 C 
ATOM     46  C46 UNL     1      11.198   4.782   5.534 -0.33 +0.00    +0.150 C 
ATOM     47  C47 UNL     1      11.721   5.201   6.900 -0.40 +0.00    +0.094 C 
ATOM     48  C48 UNL     1      13.260   5.266   6.965 -0.55 +0.00    +0.085 C 
ATOM     49  C49 UNL     1      13.706   6.188   8.122 -0.68 +0.00    +0.018 C 
ATOM     50  C50 UNL     1      15.144   6.753   8.037 +2.65 -0.00    -0.022 C 
ATOM     51  C51 UNL     1      16.230   5.683   7.982+99.99 +0.00    +0.009 C 
ATOM     52  C52 UNL     1      15.308   7.735   6.874+99.99 +0.00    +0.009 C 
ATOM     53  C53 UNL     1      13.764   3.839   7.168 -0.13 +0.00    +0.220 C 
ATOM     54  N1  UNL     1      26.828  11.747   0.945+64.78 -0.00    -0.372 N 
ATOM     55  H1  UNL     1      26.584  10.800   0.655 +0.73 +0.00    +0.161 HD
ATOM     56  N2  UNL     1      28.301  13.597   0.651+34.86 -0.00    -0.279 NA
ATOM     57  N3  UNL     1      28.517  11.770  -0.578+99.99 -0.00    -0.279 NA
ATOM     58  N4  UNL     1      21.979  10.810   3.956 +0.91 -0.00    -0.338 N 
ATOM     59  N5  UNL     1      20.424   8.628   4.072 +0.89 -0.00    -0.346 N 
ATOM     60  N6  UNL     1      18.426   9.134   2.274 -0.15 -0.00    -0.345 N 
ATOM     61  N7  UNL     1      13.978   7.836   0.008 +3.76 -0.00    -0.349 N 
ATOM     62  N8  UNL     1      11.173   9.933   4.455+64.03 +0.00    +0.078 N 
ATOM     63  N9  UNL     1       9.447   5.366   4.011 -0.07 -0.00    -0.349 N 
ATOM     64  N10 UNL     1       5.334   3.906   5.361 -0.11 -0.00    -0.372 N 
ATOM     65  H10 UNL     1       5.126   2.995   4.952 -0.04 +0.00    +0.161 HD
ATOM     66  N11 UNL     1       4.463   6.019   6.037 -0.15 -0.00    -0.279 NA
ATOM     67  N12 UNL     1       3.160   4.509   5.080 -0.05 -0.00    -0.279 NA
ATOM     68  N13 UNL     1      13.944   3.126   6.021+11.44 -0.00    -0.370 N 
ATOM     69  O1  UNL     1      20.903  12.076   2.416 +1.66 -0.00    -0.273 OA
ATOM     70  O2  UNL     1      22.190   7.194   4.317+99.99 -0.00    -0.271 OA
ATOM     71  O3  UNL     1      16.991   8.239   3.821 -0.47 -0.00    -0.271 OA
ATOM     72  O4  UNL     1      18.581  11.806   0.878 -0.30 -0.00    -0.393 OA
ATOM     73  O5  UNL     1      18.607   8.651  -0.326 +3.19 -0.00    -0.296 OA
ATOM     74  O6  UNL     1      16.723   5.948  -4.301 +2.83 -0.00    -0.650 OA
ATOM     75  O7  UNL     1      14.937   6.019  -2.985+99.99 -0.00    -0.776 OA
ATOM     76  O8  UNL     1      15.840   6.540   0.264+77.99 -0.00    -0.273 OA
ATOM     77  O9  UNL     1      11.283   7.968  -0.092 +5.32 -0.00    -0.296 OA
ATOM     78  O10 UNL     1       5.745   2.684  -0.053 -0.02 -0.00    -0.361 OA
ATOM     79  O11 UNL     1       9.514   7.513   4.766 +0.15 -0.00    -0.273 OA
ATOM     80  O12 UNL     1      11.950   4.419   4.622 +0.49 -0.00    -0.296 OA
ATOM     81  O13 UNL     1      13.947   3.320   8.262 +2.09 -0.00    -0.273 OA
ATOM     82  H69 UNL     1      27.996  13.998   1.529 +0.49 +0.00    +0.126 HD
ATOM     83  H70 UNL     1      29.312  13.623   0.576 +4.42 +0.00    +0.126 HD
ATOM     84  H71 UNL     1      28.050  10.915  -0.863+99.99 +0.00    +0.126 HD
ATOM     85  H72 UNL     1      28.647  12.381  -1.376 +0.87 +0.00    +0.126 HD
ATOM     86  H73 UNL     1      20.160   9.606   4.008 +0.28 +0.00    +0.163 HD
ATOM     87  H74 UNL     1      19.287   8.917   1.777 +0.13 +0.00    +0.163 HD
ATOM     88  H75 UNL     1      13.421   8.389  -0.639 -0.01 +0.00    +0.163 HD
ATOM     89  H76 UNL     1      10.484   9.353   4.949 +0.18 +0.00    +0.312 HD
ATOM     90  H77 UNL     1      10.962  10.899   4.700+50.51 +0.00    +0.312 HD
ATOM     91  H78 UNL     1       9.639   4.750   3.229 +0.02 +0.00    +0.163 HD
ATOM     92  H79 UNL     1       3.615   6.249   6.543 +0.05 +0.00    +0.126 HD
ATOM     93  H80 UNL     1       5.279   6.194   6.609 +0.05 +0.00    +0.126 HD
ATOM     94  H81 UNL     1       3.161   3.644   4.546 +0.05 +0.00    +0.126 HD
ATOM     95  H82 UNL     1       2.775   5.261   4.522 +0.04 +0.00    +0.126 HD
ATOM     96  H83 UNL     1      13.519   3.436   5.148 +0.00 +0.00    +0.159 HD
ATOM     97  H84 UNL     1      14.177   2.147   6.110+99.99 +0.00    +0.159 HD
ATOM     98  H85 UNL     1      19.302  11.883   1.543 +0.19 +0.00    +0.210 HD
ATOM     99  H86 UNL     1      14.705   5.380  -3.692+26.09 +0.00    +0.167 HD
ATOM    100  H87 UNL     1       5.996   2.465  -0.964 +0.06 +0.00    +0.217 HD
ENDROOT
TORSDOF 42
TER
