USER    Run = 1
USER    DPF = ligand_331_receptor.dpf
USER  
USER    Estimated Free Energy of Binding    =  +29.92 kcal/mol  [=(1)+(2)+(3)-(4)]
USER    
USER    (1) Final Intermolecular Energy     =  +28.73 kcal/mol
USER        vdW + Hbond + desolv Energy     =  +28.73 kcal/mol
USER        Electrostatic Energy            =   +0.00 kcal/mol
USER    (2) Final Total Internal Energy     =   +3.30 kcal/mol
USER    (3) Torsional Free Energy           =   +1.19 kcal/mol
USER    (4) Unbound System's Energy  [=(2)] =   +3.30 kcal/mol
USER    
USER    
USER    NEWDPF move ligand_331.pdbqt
USER    NEWDPF about 0.000000 0.000000 0.000000
USER    NEWDPF tran0 6.066185 8.876537 2.281743
USER    NEWDPF quaternion0 -0.210204 -0.006267 -0.084059 0.974017
USER    NEWDPF axisangle0 -0.928156 -0.027671 -0.371161 26.179286
USER    NEWDPF quat0 -0.928156 -0.027671 -0.371161 26.179286
USER    NEWDPF dihe0 180.00 166.80 98.64 119.83 143.89 81.78 105.66 49.82 125.65 -117.33 171.05 171.05 -91.10 53.64 -120.58 -17.74 -180.00 115.16 57.92 -33.01 
USER  keepresnum = 1 
USER  
REMARK  20 active torsions:
REMARK  status: ('A' for Active; 'I' for Inactive)
REMARK    1  A    between atoms: C5_5  and  N1_39 
REMARK       I    between atoms: C7_7  and  N1_39 
REMARK       I    between atoms: C7_7  and  N2_40 
REMARK    2  A    between atoms: C8_8  and  C9_9 
REMARK    3  A    between atoms: C8_8  and  N2_40 
REMARK    4  A    between atoms: C9_9  and  C10_10 
REMARK    5  A    between atoms: C10_10  and  N3_41 
REMARK       I    between atoms: C11_11  and  N3_41 
REMARK       I    between atoms: C11_11  and  N4_42 
REMARK    6  A    between atoms: C12_12  and  C13_13 
REMARK    7  A    between atoms: C12_12  and  N4_42 
REMARK    8  A    between atoms: C13_13  and  C14_14 
REMARK    9  A    between atoms: C14_14  and  N5_43 
REMARK       I    between atoms: C15_15  and  N5_43 
REMARK       I    between atoms: C15_15  and  N6_44 
REMARK   10  A    between atoms: C16_16  and  N6_44 
REMARK   11  A    between atoms: C18_18  and  N7_45 
REMARK       I    between atoms: C22_22  and  N7_45 
REMARK       I    between atoms: C22_22  and  N8_46 
REMARK   12  A    between atoms: C23_23  and  C24_24 
REMARK   13  A    between atoms: C23_23  and  N8_46 
REMARK   14  A    between atoms: C24_24  and  C25_25 
REMARK   15  A    between atoms: C25_25  and  N9_47 
REMARK       I    between atoms: C26_26  and  N9_47 
REMARK       I    between atoms: C26_26  and  N10_48 
REMARK   16  A    between atoms: C27_27  and  C28_28 
REMARK   17  A    between atoms: C27_27  and  N10_48 
REMARK   18  A    between atoms: C28_28  and  C29_29 
REMARK   19  A    between atoms: C29_29  and  N11_49 
REMARK       I    between atoms: C30_30  and  N11_49 
REMARK       I    between atoms: C30_30  and  N12_50 
REMARK   20  A    between atoms: C31_31  and  N12_50 
USER                              x       y       z     vdW  Elec       q    Type
USER                           _______ _______ _______ _____ _____    ______ ____
ROOT
ATOM      1  C31 UNL     1      21.178   9.387   0.795 +0.43 +0.00    +0.037 A 
ATOM      2  C32 UNL     1      22.175  10.168   1.395 +0.25 +0.00    +0.029 A 
ATOM      3  C33 UNL     1      23.523   9.954   1.102 -0.15 +0.00    +0.004 A 
ATOM      4  C34 UNL     1      23.889   8.951   0.208 -0.32 +0.00    +0.023 A 
ATOM      5  C35 UNL     1      22.906   8.159  -0.391 -0.41 +0.00    +0.046 A 
ATOM      6  C36 UNL     1      21.553   8.378  -0.096 +8.29 +0.00    +0.052 A 
ATOM      7  C37 UNL     1      23.284   7.122  -1.308 -0.52 +0.00    +0.099 C 
ATOM      8  N13 UNL     1      23.610   6.287  -2.044 -0.12 -0.00    -0.191 NA
ENDROOT
BRANCH   1   9
ATOM      9  N12 UNL     1      19.843   9.664   1.150 +0.02 -0.00    -0.309 N 
ATOM     10  C30 UNL     1      18.743   9.694   0.321 -0.02 +0.00    +0.320 C 
ATOM     11  N11 UNL     1      17.592   9.920   1.055 -0.19 -0.00    -0.343 N 
ATOM     12  O6  UNL     1      18.737   9.564  -0.895 +2.06 -0.00    -0.247 OA
ATOM     13  H47 UNL     1      17.598   9.483   1.965 +0.13 +0.00    +0.164 HD
ATOM     14  H48 UNL     1      19.682  10.021   2.080 +0.13 +0.00    +0.170 HD
BRANCH  11  15
ATOM     15  C29 UNL     1      16.308   9.917   0.379 -0.30 +0.00    +0.126 C 
BRANCH  15  16
ATOM     16  C28 UNL     1      15.728  11.322   0.295 +0.38 +0.00    +0.039 C 
BRANCH  16  17
ATOM     17  C27 UNL     1      15.442  11.877   1.689 +1.37 +0.00    +0.126 C 
BRANCH  17  18
ATOM     18  N10 UNL     1      15.820  10.949   2.739 -0.07 -0.00    -0.343 N 
ATOM     19  C26 UNL     1      14.897  10.070   3.250 +3.10 +0.00    +0.316 C 
ATOM     20  N9  UNL     1      15.424   9.366   4.302 +0.11 -0.00    -0.343 N 
ATOM     21  O5  UNL     1      13.759   9.933   2.824 +4.24 -0.00    -0.247 OA
ATOM     22  H45 UNL     1      16.426   9.242   4.274 +0.11 +0.00    +0.164 HD
ATOM     23  H46 UNL     1      16.450  11.309   3.442 +0.13 +0.00    +0.164 HD
BRANCH  20  24
ATOM     24  C25 UNL     1      14.649   8.339   4.971 -0.13 +0.00    +0.126 C 
BRANCH  24  25
ATOM     25  C24 UNL     1      15.545   7.330   5.685 +3.79 +0.00    +0.039 C 
BRANCH  25  26
ATOM     26  C23 UNL     1      15.136   5.887   5.399+11.15 +0.00    +0.126 C 
BRANCH  26  27
ATOM     27  N8  UNL     1      13.709   5.704   5.191 -0.03 -0.00    -0.343 N 
ATOM     28  C22 UNL     1      12.975   4.928   6.073 -0.28 +0.00    +0.320 C 
ATOM     29  N7  UNL     1      11.640   4.958   5.728 -0.17 -0.00    -0.309 N 
ATOM     30  O4  UNL     1      13.481   4.296   6.989 -0.47 -0.00    -0.247 OA
ATOM     31  H43 UNL     1      11.463   5.186   4.762 +0.10 +0.00    +0.170 HD
ATOM     32  H44 UNL     1      13.212   6.535   4.907 +0.11 +0.00    +0.164 HD
BRANCH  29  33
ATOM     33  C18 UNL     1      10.566   4.422   6.466 -0.39 +0.00    +0.038 A 
ATOM     34  C17 UNL     1       9.264   4.312   5.963 -0.35 +0.00    +0.059 A 
ATOM     35  C16 UNL     1       8.243   3.759   6.743 -0.41 +0.00    +0.038 A 
ATOM     36  C21 UNL     1       8.528   3.335   8.046 -0.56 +0.00    +0.029 A 
ATOM     37  C20 UNL     1       9.827   3.420   8.546 +0.74 +0.00    +0.004 A 
ATOM     38  C19 UNL     1      10.844   3.951   7.753 -0.44 +0.00    +0.029 A 
BRANCH  35  39
ATOM     39  N6  UNL     1       6.910   3.634   6.299 -0.00 -0.00    -0.309 N 
ATOM     40  C15 UNL     1       5.875   4.507   6.559 -0.30 +0.00    +0.320 C 
ATOM     41  N5  UNL     1       4.677   3.966   6.138 -0.18 -0.00    -0.343 N 
ATOM     42  O3  UNL     1       5.965   5.616   7.064 -0.35 -0.00    -0.247 OA
ATOM     43  H41 UNL     1       4.626   2.959   6.154 -0.02 +0.00    +0.164 HD
ATOM     44  H42 UNL     1       6.745   3.017   5.520 -0.41 +0.00    +0.170 HD
BRANCH  41  45
ATOM     45  C14 UNL     1       3.426   4.681   6.317 -0.24 +0.00    +0.126 C 
BRANCH  45  46
ATOM     46  C13 UNL     1       3.411   6.087   5.717 -0.22 +0.00    +0.039 C 
BRANCH  46  47
ATOM     47  C12 UNL     1       4.762   6.563   5.183 +1.62 +0.00    +0.126 C 
BRANCH  47  48
ATOM     48  N4  UNL     1       5.426   5.628   4.291 -0.05 -0.00    -0.343 N 
ATOM     49  C11 UNL     1       4.743   4.546   3.785 -0.07 +0.00    +0.316 C 
ATOM     50  N3  UNL     1       5.592   3.733   3.072 -0.02 -0.00    -0.343 N 
ATOM     51  O2  UNL     1       3.551   4.337   3.946 -0.07 -0.00    -0.247 OA
ATOM     52  H39 UNL     1       6.319   4.251   2.602 +0.07 +0.00    +0.164 HD
ATOM     53  H40 UNL     1       6.373   5.389   4.547 +0.08 +0.00    +0.164 HD
BRANCH  50  54
ATOM     54  C10 UNL     1       5.074   2.587   2.342 -0.14 +0.00    +0.126 C 
BRANCH  54  55
ATOM     55  C9  UNL     1       4.272   2.952   1.094 -0.11 +0.00    +0.039 C 
BRANCH  55  56
ATOM     56  C8  UNL     1       5.065   3.753   0.062 -0.12 +0.00    +0.126 C 
BRANCH  56  57
ATOM     57  N2  UNL     1       6.453   3.339  -0.072 +0.00 -0.00    -0.343 N 
ATOM     58  C7  UNL     1       6.816   2.415  -1.036 -0.01 +0.00    +0.320 C 
ATOM     59  N1  UNL     1       8.160   2.123  -0.937 -0.01 -0.00    -0.309 N 
ATOM     60  O1  UNL     1       6.030   1.963  -1.854 -0.05 -0.00    -0.247 OA
ATOM     61  H37 UNL     1       8.693   2.761  -0.366 +0.07 +0.00    +0.170 HD
ATOM     62  H38 UNL     1       6.942   3.219   0.803 +0.06 +0.00    +0.164 HD
BRANCH  59  63
ATOM     63  C5  UNL     1       8.890   1.179  -1.687 -0.14 +0.00    +0.037 A 
ATOM     64  C4  UNL     1      10.281   1.063  -1.649 -0.25 +0.00    +0.052 A 
ATOM     65  C3  UNL     1      10.934   0.101  -2.431 -0.40 +0.00    +0.046 A 
ATOM     66  C2  UNL     1      10.194  -0.748  -3.259 -0.30 +0.00    +0.023 A 
ATOM     67  C38 UNL     1      12.364  -0.011  -2.390 -0.47 +0.00    +0.099 C 
ATOM     68  C1  UNL     1       8.806  -0.635  -3.307 -0.25 +0.00    +0.004 A 
ATOM     69  C6  UNL     1       8.159   0.326  -2.526 -0.16 +0.00    +0.029 A 
ATOM     70  N14 UNL     1      13.519  -0.117  -2.374 -0.14 -0.00    -0.191 NA
ENDBRANCH  59  63
ENDBRANCH  56  57
ENDBRANCH  55  56
ENDBRANCH  54  55
ENDBRANCH  50  54
ENDBRANCH  47  48
ENDBRANCH  46  47
ENDBRANCH  45  46
ENDBRANCH  41  45
ENDBRANCH  35  39
ENDBRANCH  29  33
ENDBRANCH  26  27
ENDBRANCH  25  26
ENDBRANCH  24  25
ENDBRANCH  20  24
ENDBRANCH  17  18
ENDBRANCH  16  17
ENDBRANCH  15  16
ENDBRANCH  11  15
ENDBRANCH   1   9
TORSDOF 20
TER
