USER    Run = 1
USER    DPF = ligand_500_receptor.dpf
USER  
USER    Estimated Free Energy of Binding    =  +8.60e+005 kcal/mol  [=(1)+(2)+(3)-(4)]
USER    
USER    (1) Final Intermolecular Energy     =  +8.60e+005 kcal/mol
USER        vdW + Hbond + desolv Energy     =  +5.73e+005 kcal/mol
USER        Electrostatic Energy            =  +2.87e+005 kcal/mol
USER    (2) Final Total Internal Energy     =   +0.00 kcal/mol
USER    (3) Torsional Free Energy           =   +1.19 kcal/mol
USER    (4) Unbound System's Energy  [=(2)] =   +0.00 kcal/mol
USER    
USER    
USER    NEWDPF move ligand_500.pdbqt
USER    NEWDPF about 0.000000 0.000000 0.000000
USER    NEWDPF tran0 17.832792 7.155140 1.773536
USER    NEWDPF quaternion0 -0.920507 0.149990 0.041588 -0.358387
USER    NEWDPF axisangle0 -0.986004 0.160662 0.044547 -137.997681
USER    NEWDPF quat0 -0.986004 0.160662 0.044547 -137.997681
USER  keepresnum = 1 
USER  
REMARK  0 active torsions:
REMARK  status: ('A' for Active; 'I' for Inactive)
REMARK       I    between atoms: C2_2  and  C3_3 
REMARK       I    between atoms: C3_3  and  C5_5 
REMARK       I    between atoms: C3_3  and  N13_101 
REMARK       I    between atoms: C5_5  and  N1_89 
REMARK       I    between atoms: C6_6  and  C7_7 
REMARK       I    between atoms: C6_6  and  C10_10 
REMARK       I    between atoms: C6_6  and  N1_89 
REMARK       I    between atoms: C7_7  and  C8_8 
REMARK       I    between atoms: C8_8  and  C9_9 
REMARK       I    between atoms: C9_9  and  N2_90 
REMARK       I    between atoms: C10_10  and  N3_91 
REMARK       I    between atoms: C11_11  and  C13_13 
REMARK       I    between atoms: C11_11  and  C15_15 
REMARK       I    between atoms: C11_11  and  N3_91 
REMARK       I    between atoms: C15_15  and  N4_92 
REMARK       I    between atoms: C16_16  and  C17_17 
REMARK       I    between atoms: C16_16  and  C20_20 
REMARK       I    between atoms: C16_16  and  N4_92 
REMARK       I    between atoms: C20_20  and  N5_93 
REMARK       I    between atoms: C21_21  and  C24_24 
REMARK       I    between atoms: C21_21  and  N5_93 
REMARK       I    between atoms: C24_24  and  N6_94 
REMARK       I    between atoms: C25_25  and  C27_27 
REMARK       I    between atoms: C25_25  and  N6_94 
REMARK       I    between atoms: C27_27  and  N7_95 
REMARK       I    between atoms: C28_28  and  C31_31 
REMARK       I    between atoms: C28_28  and  N7_95 
REMARK       I    between atoms: C31_31  and  N8_96 
REMARK       I    between atoms: C32_32  and  C35_35 
REMARK       I    between atoms: C32_32  and  N8_96 
REMARK       I    between atoms: C35_35  and  N9_97 
REMARK       I    between atoms: C36_36  and  C39_39 
REMARK       I    between atoms: C36_36  and  N9_97 
REMARK       I    between atoms: C39_39  and  N10_98 
REMARK       I    between atoms: C40_40  and  C41_41 
REMARK       I    between atoms: C40_40  and  C44_44 
REMARK       I    between atoms: C40_40  and  N10_98 
REMARK       I    between atoms: C41_41  and  C42_42 
REMARK       I    between atoms: C42_42  and  C43_43 
REMARK       I    between atoms: C43_43  and  N11_99 
REMARK       I    between atoms: C44_44  and  N12_100 
REMARK       I    between atoms: C45_45  and  C46_46 
REMARK       I    between atoms: C45_45  and  C53_53 
REMARK       I    between atoms: C45_45  and  N12_100 
REMARK       I    between atoms: C46_46  and  C47_47 
REMARK       I    between atoms: C53_53  and  O13_83 
REMARK       I    between atoms: C54_54  and  C55_55 
REMARK       I    between atoms: C54_54  and  N13_101 
REMARK       I    between atoms: C55_55  and  C56_56 
REMARK       I    between atoms: C55_55  and  N14_102 
REMARK       I    between atoms: C56_56  and  C57_57 
REMARK       I    between atoms: C60_60  and  C61_61 
REMARK       I    between atoms: C60_60  and  N14_102 
REMARK       I    between atoms: C61_61  and  N15_103 
REMARK       I    between atoms: C63_63  and  C64_64 
REMARK       I    between atoms: C63_63  and  N15_103 
REMARK       I    between atoms: C64_64  and  N16_104 
REMARK       I    between atoms: C65_65  and  C66_66 
REMARK       I    between atoms: C65_65  and  N16_104 
REMARK       I    between atoms: C66_66  and  N17_105 
REMARK       I    between atoms: C69_69  and  N17_105 
USER                              x       y       z     vdW  Elec       q    Type
USER                           _______ _______ _______ _____ _____    ______ ____
ROOT
ATOM      1  C1  UNL     1       9.069   8.646  -1.020 +1.77 +0.00    +0.008 C 
ATOM      2  C2  UNL     1      10.161   9.259  -0.146+99.99 +0.00    +0.036 C 
ATOM      3  C3  UNL     1      10.791   8.318   0.913+51.86 +0.00    +0.110 C 
ATOM      4  C4  UNL     1      11.916   9.106   1.612+99.99 +0.00    +0.049 C 
ATOM      5  C5  UNL     1      11.282   7.009   0.213 -0.08 +0.00    +0.246 C 
ATOM      6  C6  UNL     1      13.202   5.772  -0.752 +2.18 +0.00    +0.177 C 
ATOM      7  C7  UNL     1      13.507   5.820  -2.249+13.89 +0.00    +0.044 C 
ATOM      8  C8  UNL     1      12.251   5.854  -3.121 +0.57 +0.00    +0.105 C 
ATOM      9  C9  UNL     1      11.515   4.534  -3.094+15.03 +0.00    +0.215 C 
ATOM     10  C10 UNL     1      14.476   5.628   0.106+99.99 +0.00    +0.241 C 
ATOM     11  C11 UNL     1      15.284   5.962   2.444+99.99 +0.00    +0.110 C 
ATOM     12  C12 UNL     1      16.425   4.935   2.359+99.99 +0.00    +0.049 C 
ATOM     13  C13 UNL     1      14.690   5.991   3.875+36.19 +0.00    +0.036 C 
ATOM     14  C14 UNL     1      14.073   4.674   4.332+99.99 +0.00    +0.008 C 
ATOM     15  C15 UNL     1      15.769   7.417   2.116+29.19 +0.00    +0.246 C 
ATOM     16  C16 UNL     1      17.582   9.105   2.413 -0.41 +0.00    +0.180 C 
ATOM     17  C17 UNL     1      18.033   9.779   3.730 -0.34 +0.00    +0.009 C 
ATOM     18  C18 UNL     1      19.234   9.095   4.390 +5.00 +0.00    +0.012 C 
ATOM     19  C19 UNL     1      18.301  11.277   3.556 +1.22 +0.00    +0.012 C 
ATOM     20  C20 UNL     1      18.708   8.933   1.352 +3.06 +0.00    +0.241 C 
ATOM     21  C21 UNL     1      19.341   7.632  -0.744+99.99 +0.00    +0.106 C 
ATOM     22  C22 UNL     1      18.666   6.487  -1.526+99.99 +0.00    +0.048 C 
ATOM     23  C23 UNL     1      19.453   8.841  -1.684+99.99 +0.00    +0.048 C 
ATOM     24  C24 UNL     1      20.756   7.136  -0.292+99.99 +0.00    +0.246 C 
ATOM     25  C25 UNL     1      22.815   7.765   0.957 +0.19 +0.00    +0.172 C 
ATOM     26  C26 UNL     1      22.611   6.849   2.159 +8.95 +0.00    +0.042 C 
ATOM     27  C27 UNL     1      23.923   7.249   0.007 -0.36 +0.00    +0.241 C 
ATOM     28  C28 UNL     1      24.880   7.711  -2.295 +6.97 +0.00    +0.106 C 
ATOM     29  C29 UNL     1      24.221   8.037  -3.647+34.86 +0.00    +0.048 C 
ATOM     30  C30 UNL     1      25.570   6.347  -2.400 +0.34 +0.00    +0.048 C 
ATOM     31  C31 UNL     1      25.903   8.843  -1.948+99.99 +0.00    +0.246 C 
ATOM     32  C32 UNL     1      27.935  10.124  -2.813+99.99 +0.00    +0.106 C 
ATOM     33  C33 UNL     1      27.450  11.465  -2.243+99.99 +0.00    +0.048 C 
ATOM     34  C34 UNL     1      28.426  10.375  -4.253+25.10 +0.00    +0.048 C 
ATOM     35  C35 UNL     1      29.120   9.578  -1.965+99.99 +0.00    +0.246 C 
ATOM     36  C36 UNL     1      29.620   8.238   0.087 -0.26 +0.00    +0.106 C 
ATOM     37  C37 UNL     1      28.963   8.042   1.462 -0.33 +0.00    +0.048 C 
ATOM     38  C38 UNL     1      31.039   8.788   0.291 -0.23 +0.00    +0.048 C 
ATOM     39  C39 UNL     1      29.625   6.860  -0.657 -0.12 +0.00    +0.246 C 
ATOM     40  C40 UNL     1      30.681   4.613  -0.804 -0.05 +0.00    +0.177 C 
ATOM     41  C41 UNL     1      32.101   4.065  -0.569 -0.06 +0.00    +0.044 C 
ATOM     42  C42 UNL     1      32.372   3.409   0.789 -0.15 +0.00    +0.105 C 
ATOM     43  C43 UNL     1      32.261   4.343   1.975 -0.18 +0.00    +0.215 C 
ATOM     44  C44 UNL     1      29.608   3.593  -0.368 -0.14 +0.00    +0.240 C 
ATOM     45  C45 UNL     1      27.917   3.099   1.382+28.05 +0.00    +0.112 C 
ATOM     46  C46 UNL     1      28.008   2.868   2.905+99.99 +0.00    +0.065 C 
ATOM     47  C47 UNL     1      29.123   1.970   3.411 +9.10 -0.00    -0.056 A 
ATOM     48  C48 UNL     1      29.523   2.093   4.753+90.68 +0.00    +0.007 A 
ATOM     49  C49 UNL     1      30.514   1.268   5.287+37.52 +0.00    +0.001 A 
ATOM     50  C50 UNL     1      31.116   0.299   4.489+99.99 +0.00    +0.000 A 
ATOM     51  C51 UNL     1      30.722   0.153   3.162+36.93 +0.00    +0.001 A 
ATOM     52  C52 UNL     1      29.728   0.978   2.628 +0.46 +0.00    +0.007 A 
ATOM     53  C53 UNL     1      26.666   3.923   1.027+78.32 +0.00    +0.189 C 
ATOM     54  C54 UNL     1      10.091   7.083   2.970 -0.26 +0.00    +0.241 C 
ATOM     55  C55 UNL     1       8.882   6.547   3.773 -0.21 +0.00    +0.177 C 
ATOM     56  C56 UNL     1       8.274   5.334   3.048 -0.21 +0.00    +0.038 C 
ATOM     57  C57 UNL     1       7.112   4.639   3.785 -0.23 -0.00    -0.020 C 
ATOM     58  C58 UNL     1       6.587   3.475   2.939 -0.21 +0.00    +0.009 C 
ATOM     59  C59 UNL     1       7.511   4.133   5.170 -0.35 +0.00    +0.009 C 
ATOM     60  C60 UNL     1       7.012   8.173   3.277+16.78 +0.00    +0.240 C 
ATOM     61  C61 UNL     1       6.064   9.190   3.949+99.99 +0.00    +0.172 C 
ATOM     62  C62 UNL     1       6.669  10.581   3.789+99.99 +0.00    +0.042 C 
ATOM     63  C63 UNL     1       4.978   7.891   5.740+99.99 +0.00    +0.236 C 
ATOM     64  C64 UNL     1       4.596   7.922   7.219 +0.49 +0.00    +0.225 C 
ATOM     65  C65 UNL     1       3.695  10.202   7.484 -0.31 +0.00    +0.245 C 
ATOM     66  C66 UNL     1       2.427  11.086   7.680 -0.26 +0.00    +0.106 C 
ATOM     67  C67 UNL     1       1.708  11.162   6.323+99.99+99.99    +0.048 C 
ATOM     68  C68 UNL     1       1.452  10.505   8.716+99.99+99.99    +0.048 C 
ATOM     69  C69 UNL     1       3.398  12.757   9.272+39.95 +0.00    +0.214 C 
ATOM     70  C70 UNL     1       3.989  14.140   9.349+99.99 +0.00    +0.117 C 
ATOM     71  O1  UNL     1      10.545   6.031   0.053 -0.20 -0.00    -0.271 OA
ATOM     72  O2  UNL     1      11.876   3.553  -3.735+50.34 -0.00    -0.274 OA
ATOM     73  O3  UNL     1      15.602   5.512  -0.366+99.99 -0.00    -0.271 OA
ATOM     74  O4  UNL     1      15.127   8.185   1.395 +0.19 -0.00    -0.271 OA
ATOM     75  O5  UNL     1      19.676   9.686   1.274 -0.19 -0.00    -0.271 OA
ATOM     76  O6  UNL     1      21.128   5.971  -0.419+29.31 -0.00    -0.271 OA
ATOM     77  O7  UNL     1      24.878   6.586   0.408 -0.24 -0.00    -0.271 OA
ATOM     78  O8  UNL     1      25.856   9.478  -0.894+90.87 -0.00    -0.271 OA
ATOM     79  O9  UNL     1      30.275   9.555  -2.388 -0.27 -0.00    -0.271 OA
ATOM     80  O10 UNL     1      28.864   6.604  -1.593 -0.20 -0.00    -0.271 OA
ATOM     81  O11 UNL     1      32.138   5.561   1.893 -0.17 -0.00    -0.274 OA
ATOM     82  O12 UNL     1      29.354   2.582  -1.020 -0.16 -0.00    -0.271 OA
ATOM     83  O13 UNL     1      26.746   5.205   1.654 +4.61 -0.00    -0.399 OA
ATOM     84  O14 UNL     1      11.235   6.679   3.189 -0.23 -0.00    -0.271 OA
ATOM     85  O15 UNL     1       7.070   8.033   2.056 -0.38 -0.00    -0.271 OA
ATOM     86  O16 UNL     1       4.495   7.090   4.947 +2.90 -0.00    -0.272 OA
ATOM     87  O17 UNL     1       4.814  10.681   7.266 +2.47 -0.00    -0.271 OA
ATOM     88  O18 UNL     1       3.404  11.998  10.234+99.99 -0.00    -0.274 OA
ATOM     89  N1  UNL     1      12.555   7.015  -0.305 -0.19 -0.00    -0.346 N 
ATOM     90  N2  UNL     1      10.418   4.485  -2.288 -0.04 -0.00    -0.370 N 
ATOM     91  N3  UNL     1      14.218   5.675   1.471+99.99 -0.00    -0.342 N 
ATOM     92  N4  UNL     1      16.949   7.810   2.710 -0.30 -0.00    -0.345 N 
ATOM     93  N5  UNL     1      18.496   7.923   0.437+99.99 -0.00    -0.342 N 
ATOM     94  N6  UNL     1      21.568   8.102   0.272+14.17 -0.00    -0.346 N 
ATOM     95  N7  UNL     1      23.813   7.741  -1.280 -0.25 -0.00    -0.342 N 
ATOM     96  N8  UNL     1      26.868   9.091  -2.901+99.99 -0.00    -0.342 N 
ATOM     97  N9  UNL     1      28.775   9.158  -0.694 +8.49 -0.00    -0.342 N 
ATOM     98  N10 UNL     1      30.495   5.914  -0.161 -0.01 -0.00    -0.346 N 
ATOM     99  N11 UNL     1      32.335   3.725   3.187 -0.04 -0.00    -0.370 N 
ATOM    100  N12 UNL     1      29.099   3.814   0.895 -0.13 -0.00    -0.352 N 
ATOM    101  N13 UNL     1       9.787   7.913   1.909 +0.23 -0.00    -0.342 N 
ATOM    102  N14 UNL     1       7.915   7.585   4.134 +3.44 -0.00    -0.346 N 
ATOM    103  N15 UNL     1       5.856   8.896   5.371+99.99 -0.00    -0.347 N 
ATOM    104  N16 UNL     1       3.491   8.840   7.421 -0.17 -0.00    -0.350 N 
ATOM    105  N17 UNL     1       2.880  12.446   8.032 -0.15 -0.00    -0.344 N 
ATOM    106  H98 UNL     1      26.050   5.753   1.220 +0.14 +0.00    +0.209 HD
ATOM    107  H99 UNL     1      13.188   7.771  -0.058 -0.15 +0.00    +0.163 HD
ATOM    108  HA0 UNL     1       9.989   3.576  -2.175 +0.07 +0.00    +0.159 HD
ATOM    109  HA1 UNL     1      10.322   5.118  -1.492 +0.08 +0.00    +0.159 HD
ATOM    110  HA2 UNL     1      13.286   5.994   1.728 -0.20 +0.00    +0.163 HD
ATOM    111  HA3 UNL     1      17.538   7.105   3.134 +0.07 +0.00    +0.163 HD
ATOM    112  HA4 UNL     1      17.561   7.531   0.412 +0.36 +0.00    +0.163 HD
ATOM    113  HA5 UNL     1      21.073   8.924   0.627 +0.16 +0.00    +0.163 HD
ATOM    114  HA6 UNL     1      23.126   8.480  -1.366 +0.14 +0.00    +0.163 HD
ATOM    115  HA7 UNL     1      27.129   8.285  -3.459+20.85 +0.00    +0.163 HD
ATOM    116  HA8 UNL     1      27.773   9.093  -0.521 +0.23 +0.00    +0.163 HD
ATOM    117  HA9 UNL     1      31.094   6.139   0.635 +0.06 +0.00    +0.163 HD
ATOM    118  HB0 UNL     1      32.042   2.757   3.271 -0.14 +0.00    +0.159 HD
ATOM    119  HB1 UNL     1      32.137   4.305   3.992 -0.14 +0.00    +0.159 HD
ATOM    120  HB2 UNL     1      29.174   4.774   1.222 +0.07 +0.00    +0.163 HD
ATOM    121  HB3 UNL     1       8.806   7.901   1.624 +0.09 +0.00    +0.163 HD
ATOM    122  HB4 UNL     1       7.700   7.698   5.119 +6.70 +0.00    +0.163 HD
ATOM    123  HB5 UNL     1       5.823   9.704   6.000+68.59 +0.00    +0.163 HD
ATOM    124  HB6 UNL     1       2.553   8.462   7.387 +0.06 +0.00    +0.163 HD
ATOM    125  HB7 UNL     1       3.298  12.964   7.269 +0.06 +0.00    +0.163 HD
ENDROOT
TORSDOF 44
TER
