USER    Run = 1
USER    DPF = ligand_401_receptor.dpf
USER  
USER    Estimated Free Energy of Binding    = +918.37 kcal/mol  [=(1)+(2)+(3)-(4)]
USER    
USER    (1) Final Intermolecular Energy     = +917.17 kcal/mol
USER        vdW + Hbond + desolv Energy     = +917.17 kcal/mol
USER        Electrostatic Energy            =   +0.00 kcal/mol
USER    (2) Final Total Internal Energy     =  +42.48 kcal/mol
USER    (3) Torsional Free Energy           =   +1.19 kcal/mol
USER    (4) Unbound System's Energy  [=(2)] =  +42.48 kcal/mol
USER    
USER    
USER    NEWDPF move ligand_401.pdbqt
USER    NEWDPF about 0.000000 0.000000 0.000000
USER    NEWDPF tran0 23.424541 11.438080 1.848488
USER    NEWDPF quaternion0 -0.437170 0.599428 -0.492176 0.455335
USER    NEWDPF axisangle0 -0.491026 0.673273 -0.552808 125.826960
USER    NEWDPF quat0 -0.491026 0.673273 -0.552808 125.826960
USER    NEWDPF dihe0 -180.00 -141.18 -71.08 175.26 158.00 52.33 -14.34 127.57 92.88 14.73 -152.24 -151.67 79.69 108.84 91.84 -81.35 119.07 -114.76 179.43 
USER  keepresnum = 1 
USER  
REMARK  19 active torsions:
REMARK  status: ('A' for Active; 'I' for Inactive)
REMARK    1  A    between atoms: C2_2  and  C3_3 
REMARK       I    between atoms: C2_2  and  N1_52 
REMARK    2  A    between atoms: C5_5  and  N3_54 
REMARK    3  A    between atoms: C8_8  and  C9_9 
REMARK       I    between atoms: C8_8  and  N3_54 
REMARK    4  A    between atoms: C15_15  and  C16_16 
REMARK    5  A    between atoms: C17_17  and  N8_61 
REMARK    6  A    between atoms: C20_20  and  C21_21 
REMARK       I    between atoms: C20_20  and  N8_61 
REMARK    7  A    between atoms: C23_23  and  N10_63 
REMARK    8  A    between atoms: C26_26  and  C27_27 
REMARK       I    between atoms: C26_26  and  N10_63 
REMARK    9  A    between atoms: C27_27  and  C28_28 
REMARK   10  A    between atoms: C27_27  and  N21_76 
REMARK   11  A    between atoms: C28_28  and  C29_29 
REMARK   12  A    between atoms: C29_29  and  N11_64 
REMARK   13  A    between atoms: C30_30  and  C31_31 
REMARK       I    between atoms: C30_30  and  N11_64 
REMARK   14  A    between atoms: C33_33  and  N13_66 
REMARK   15  A    between atoms: C36_36  and  C37_37 
REMARK       I    between atoms: C36_36  and  N13_66 
REMARK   16  A    between atoms: C39_39  and  N15_68 
REMARK   17  A    between atoms: C42_42  and  C43_43 
REMARK       I    between atoms: C42_42  and  N15_68 
REMARK   18  A    between atoms: C44_44  and  N18_72 
REMARK   19  A    between atoms: C47_47  and  C48_48 
REMARK       I    between atoms: C47_47  and  N18_72 
USER                              x       y       z     vdW  Elec       q    Type
USER                           _______ _______ _______ _____ _____    ______ ____
ROOT
ATOM      1  C27 UNL     1      23.817  11.283   0.916+60.13 +0.00    +0.276 C 
ENDROOT
BRANCH   1   2
ATOM      2  C26 UNL     1      23.047  10.757   2.142+25.99 +0.00    +0.253 C 
ATOM      3  N10 UNL     1      21.896  10.055   1.850 -0.11 -0.00    -0.324 N 
ATOM      4  H49 UNL     1      21.612   9.897   0.890 +0.13 +0.00    +0.169 HD
ATOM      5  O4  UNL     1      23.520  10.993   3.255 +2.15 -0.00    -0.271 OA
BRANCH   3   6
ATOM      6  C23 UNL     1      21.065   9.475   2.796 -0.37 +0.00    +0.052 A 
ATOM      7  C22 UNL     1      19.849  10.032   3.268 +1.85 +0.00    +0.066 A 
ATOM      8  C21 UNL     1      19.282   9.158   4.191 +3.73 +0.00    +0.105 A 
ATOM      9  N9  UNL     1      20.150   8.083   4.274 +3.10 -0.00    -0.354 N 
ATOM     10  C24 UNL     1      21.229   8.279   3.447 +2.76 +0.00    +0.120 A 
ATOM     11  C25 UNL     1      19.980   6.914   5.117+82.30 +0.00    +0.156 C 
BRANCH   8  12
ATOM     12  C20 UNL     1      18.023   9.252   4.934 +2.25 +0.00    +0.274 C 
ATOM     13  N8  UNL     1      16.911   9.358   4.122 -0.25 -0.00    -0.306 N 
ATOM     14  H48 UNL     1      17.030   9.447   3.130 +0.14 +0.00    +0.170 HD
ATOM     15  O3  UNL     1      18.009   9.249   6.159+99.99 -0.00    -0.266 OA
BRANCH  13  16
ATOM     16  C17 UNL     1      15.620   9.438   4.586 +1.00 +0.00    +0.125 A 
ATOM     17  C18 UNL     1      15.258   9.914   5.824+31.60 +0.00    +0.140 A 
ATOM     18  N7  UNL     1      13.890   9.809   5.857 +7.32 -0.00    -0.341 N 
ATOM     19  C16 UNL     1      13.486   9.287   4.655 +5.92 +0.00    +0.153 A 
ATOM     20  C19 UNL     1      13.042  10.180   6.964+11.92 +0.00    +0.157 C 
ATOM     21  N6  UNL     1      14.524   9.063   3.873 -0.02 -0.00    -0.324 N 
ATOM     22  H6  UNL     1      14.509   8.684   2.927 -0.20 +0.00    +0.169 HD
BRANCH  19  23
ATOM     23  C15 UNL     1      12.146   9.004   4.262 +2.74 +0.00    +0.151 A 
ATOM     24  N4  UNL     1      11.332   9.790   3.586 +3.38 -0.00    -0.338 N 
ATOM     25  C12 UNL     1      10.163   9.075   3.466 +1.08 +0.00    +0.060 A 
ATOM     26  H4  UNL     1      11.526  10.725   3.229 +0.34 +0.00    +0.167 HD
ATOM     27  C11 UNL     1      10.273   7.829   4.076 -0.39 +0.00    +0.061 A 
ATOM     28  C13 UNL     1       8.953   9.432   2.853+51.31 +0.00    +0.033 A 
ATOM     29  C10 UNL     1       9.236   6.895   4.107 -0.19 +0.00    +0.049 A 
ATOM     30  N5  UNL     1      11.548   7.811   4.576 -0.18 -0.00    -0.337 N 
ATOM     31  C9  UNL     1       8.034   7.257   3.474 -0.03 +0.00    +0.034 A 
ATOM     32  C14 UNL     1       7.890   8.514   2.867 +0.77 +0.00    +0.019 A 
ATOM     33  H47 UNL     1      11.998   7.070   5.097 +0.12 +0.00    +0.167 HD
BRANCH  31  34
ATOM     34  C8  UNL     1       6.916   6.270   3.502 -0.06 +0.00    +0.256 C 
ATOM     35  N3  UNL     1       6.852   5.427   2.409 -0.04 -0.00    -0.322 N 
ATOM     36  H46 UNL     1       7.576   5.471   1.706 +0.08 +0.00    +0.169 HD
ATOM     37  O2  UNL     1       6.175   6.262   4.478 +0.06 -0.00    -0.267 OA
BRANCH  35  38
ATOM     38  C5  UNL     1       5.900   4.441   2.230 -0.11 +0.00    +0.053 A 
ATOM     39  C4  UNL     1       5.679   3.567   1.142 -0.08 +0.00    +0.066 A 
ATOM     40  C3  UNL     1       4.612   2.734   1.451 -0.08 +0.00    +0.104 A 
ATOM     41  N2  UNL     1       4.148   3.143   2.684 -0.01 -0.00    -0.354 N 
ATOM     42  C6  UNL     1       4.942   4.151   3.174 -0.09 +0.00    +0.120 A 
ATOM     43  C7  UNL     1       2.953   2.664   3.347 -0.08 +0.00    +0.156 C 
BRANCH  40  44
ATOM     44  C2  UNL     1       4.066   1.685   0.616 -0.09 +0.00    +0.268 C 
ATOM     45  N1  UNL     1       4.633   1.622  -0.642 -0.05 -0.00    -0.360 N 
ATOM     46  C1  UNL     1       4.074   0.748  -1.642 -0.09 +0.00    +0.149 C 
ATOM     47  H45 UNL     1       5.111   2.454  -0.959 +0.04 +0.00    +0.162 HD
ATOM     48  O1  UNL     1       3.153   0.948   0.965 -0.13 -0.00    -0.266 OA
ENDBRANCH  40  44
ENDBRANCH  35  38
ENDBRANCH  31  34
ENDBRANCH  19  23
ENDBRANCH  13  16
ENDBRANCH   8  12
ENDBRANCH   3   6
ENDBRANCH   1   2
BRANCH   1  49
ATOM     49  C28 UNL     1      25.093  10.459   0.682+66.26 +0.00    +0.062 C 
BRANCH  49  50
ATOM     50  C29 UNL     1      24.874   9.183  -0.142 +6.42 +0.00    +0.125 C 
BRANCH  50  51
ATOM     51  N11 UNL     1      23.526   9.052  -0.659 -0.10 -0.00    -0.356 N 
ATOM     52  C30 UNL     1      23.200   8.118  -1.616 +3.60 +0.00    +0.268 C 
ATOM     53  O5  UNL     1      24.088   7.474  -2.180 -0.38 -0.00    -0.266 OA
ATOM     54  H50 UNL     1      22.767   9.320  -0.039 +0.12 +0.00    +0.162 HD
BRANCH  52  55
ATOM     55  C31 UNL     1      21.792   7.928  -1.861+30.63 +0.00    +0.104 A 
ATOM     56  C32 UNL     1      20.781   8.009  -0.911+28.97 +0.00    +0.066 A 
ATOM     57  C33 UNL     1      19.536   7.788  -1.546+54.29 +0.00    +0.053 A 
ATOM     58  C34 UNL     1      19.813   7.542  -2.868+16.28 +0.00    +0.120 A 
ATOM     59  N12 UNL     1      21.172   7.587  -3.048+24.79 -0.00    -0.354 N 
ATOM     60  C35 UNL     1      21.810   7.229  -4.298+49.49 +0.00    +0.156 C 
BRANCH  57  61
ATOM     61  N13 UNL     1      18.306   7.821  -0.917+63.95 -0.00    -0.320 N 
ATOM     62  C36 UNL     1      17.983   8.568   0.203 +3.68 +0.00    +0.273 C 
ATOM     63  O6  UNL     1      18.767   9.324   0.772 -0.01 -0.00    -0.266 OA
ATOM     64  H51 UNL     1      17.580   7.259  -1.335 +0.35 +0.00    +0.169 HD
BRANCH  62  65
ATOM     65  C37 UNL     1      16.604   8.396   0.661 -0.42 +0.00    +0.105 A 
ATOM     66  C38 UNL     1      15.719   7.339   0.460+21.29 +0.00    +0.066 A 
ATOM     67  C39 UNL     1      14.494   7.635   1.101+14.37 +0.00    +0.053 A 
ATOM     68  C40 UNL     1      14.644   8.863   1.695+97.31 +0.00    +0.120 A 
ATOM     69  N14 UNL     1      15.914   9.316   1.435 -0.14 -0.00    -0.354 N 
ATOM     70  C41 UNL     1      16.424  10.586   1.908 -0.44 +0.00    +0.156 C 
BRANCH  67  71
ATOM     71  N15 UNL     1      13.331   6.906   1.178 +1.02 -0.00    -0.319 N 
ATOM     72  C42 UNL     1      12.653   6.568   2.333 -0.00 +0.00    +0.290 C 
ATOM     73  O7  UNL     1      12.995   6.867   3.475 -0.32 -0.00    -0.264 OA
ATOM     74  H52 UNL     1      12.908   6.570   0.312 +0.03 +0.00    +0.169 HD
BRANCH  72  75
ATOM     75  C43 UNL     1      11.456   5.794   2.034 +0.50 +0.00    +0.178 A 
ATOM     76  N16 UNL     1      10.958   5.708   0.809 -0.08 -0.00    -0.323 N 
ATOM     77  C44 UNL     1       9.855   4.917   0.902 +0.19 +0.00    +0.125 A 
ATOM     78  H16 UNL     1      11.327   6.147  -0.035 +0.09 +0.00    +0.169 HD
ATOM     79  C45 UNL     1       9.661   4.503   2.197 +0.84 +0.00    +0.140 A 
ATOM     80  N17 UNL     1      10.685   5.067   2.909 +0.37 -0.00    -0.339 N 
ATOM     81  C46 UNL     1      10.907   4.920   4.326 -0.22 +0.00    +0.157 C 
BRANCH  77  82
ATOM     82  N18 UNL     1       9.056   4.584  -0.155 -0.03 -0.00    -0.305 N 
ATOM     83  C47 UNL     1       8.220   3.490  -0.212 -0.03 +0.00    +0.291 C 
ATOM     84  O8  UNL     1       8.060   2.649   0.667 -0.09 -0.00    -0.264 OA
ATOM     85  H53 UNL     1       9.063   5.177  -0.978 +0.08 +0.00    +0.170 HD
BRANCH  83  86
ATOM     86  C48 UNL     1       7.517   3.441  -1.490 -0.05 +0.00    +0.176 A 
ATOM     87  N19 UNL     1       6.554   4.298  -1.812 +0.28 -0.00    -0.346 N 
ATOM     88  C49 UNL     1       6.142   3.940  -3.069 +0.41 +0.00    +0.107 A 
ATOM     89  H19 UNL     1       6.195   5.064  -1.242 -0.48 +0.00    +0.167 HD
ATOM     90  C50 UNL     1       6.854   2.858  -3.525 -0.12 +0.00    +0.109 A 
ATOM     91  N20 UNL     1       7.723   2.549  -2.516 -0.04 -0.00    -0.342 N 
ATOM     92  C51 UNL     1       8.685   1.474  -2.533 +0.06 +0.00    +0.157 C 
ENDBRANCH  83  86
ENDBRANCH  77  82
ENDBRANCH  72  75
ENDBRANCH  67  71
ENDBRANCH  62  65
ENDBRANCH  57  61
ENDBRANCH  52  55
ENDBRANCH  50  51
ENDBRANCH  49  50
ENDBRANCH   1  49
BRANCH   1  93
ATOM     93  N21 UNL     1      22.909  11.196  -0.272 -0.08 -0.00    -0.066 N 
ATOM     94  H54 UNL     1      22.953  12.080  -0.801 +0.20 +0.00    +0.275 HD
ATOM     95  H55 UNL     1      21.911  11.025  -0.034 +0.24 +0.00    +0.275 HD
ATOM     96  H56 UNL     1      23.207  10.472  -0.936 +0.24 +0.00    +0.275 HD
ENDBRANCH   1  93
TORSDOF 19
TER
