USER    Run = 1
USER    DPF = ligand_48_receptor.dpf
USER  
USER    Estimated Free Energy of Binding    =  +3.82e+005 kcal/mol  [=(1)+(2)+(3)-(4)]
USER    
USER    (1) Final Intermolecular Energy     =  +3.82e+005 kcal/mol
USER        vdW + Hbond + desolv Energy     =  +2.34e+005 kcal/mol
USER        Electrostatic Energy            =  +1.48e+005 kcal/mol
USER    (2) Final Total Internal Energy     =   +0.00 kcal/mol
USER    (3) Torsional Free Energy           =   +1.19 kcal/mol
USER    (4) Unbound System's Energy  [=(2)] =   +0.00 kcal/mol
USER    
USER    
USER    NEWDPF move ligand_48.pdbqt
USER    NEWDPF about 0.000000 0.000000 0.000000
USER    NEWDPF tran0 18.367707 5.412085 2.454192
USER    NEWDPF quaternion0 0.793755 -0.030734 -0.023098 -0.607022
USER    NEWDPF axisangle0 0.998829 -0.038674 -0.029065 -105.251096
USER    NEWDPF quat0 0.998829 -0.038674 -0.029065 -105.251096
USER  keepresnum = 1 
USER  
REMARK  0 active torsions:
REMARK  status: ('A' for Active; 'I' for Inactive)
REMARK       I    between atoms: C2_2  and  O1_60 
REMARK       I    between atoms: C3_3  and  C14_14 
REMARK       I    between atoms: C5_5  and  N1_75 
REMARK       I    between atoms: C8_8  and  C9_9 
REMARK       I    between atoms: C8_8  and  N1_75 
REMARK       I    between atoms: C9_9  and  C10_10 
REMARK       I    between atoms: C9_9  and  N5_80 
REMARK       I    between atoms: C10_10  and  C11_11 
REMARK       I    between atoms: C11_11  and  C12_12 
REMARK       I    between atoms: C12_12  and  N2_76 
REMARK       I    between atoms: C13_13  and  N2_76 
REMARK       I    between atoms: C13_13  and  N3_77 
REMARK       I    between atoms: C13_13  and  N4_79 
REMARK       I    between atoms: C14_14  and  N6_81 
REMARK       I    between atoms: C15_15  and  C16_16 
REMARK       I    between atoms: C15_15  and  C20_20 
REMARK       I    between atoms: C15_15  and  N6_81 
REMARK       I    between atoms: C16_16  and  C17_17 
REMARK       I    between atoms: C17_17  and  C18_18 
REMARK       I    between atoms: C18_18  and  N7_82 
REMARK       I    between atoms: C19_19  and  N7_82 
REMARK       I    between atoms: C19_19  and  N8_83 
REMARK       I    between atoms: C19_19  and  N9_85 
REMARK       I    between atoms: C20_20  and  N10_86 
REMARK       I    between atoms: C21_21  and  N10_86 
REMARK       I    between atoms: C23_23  and  C28_28 
REMARK       I    between atoms: C24_24  and  O5_64 
REMARK       I    between atoms: C28_28  and  N11_87 
REMARK       I    between atoms: C29_29  and  C30_30 
REMARK       I    between atoms: C29_29  and  C34_34 
REMARK       I    between atoms: C29_29  and  N11_87 
REMARK       I    between atoms: C30_30  and  C31_31 
REMARK       I    between atoms: C31_31  and  C32_32 
REMARK       I    between atoms: C32_32  and  N12_88 
REMARK       I    between atoms: C33_33  and  N12_88 
REMARK       I    between atoms: C33_33  and  N13_89 
REMARK       I    between atoms: C33_33  and  N14_91 
REMARK       I    between atoms: C34_34  and  N15_92 
REMARK       I    between atoms: C35_35  and  N15_92 
REMARK       I    between atoms: C37_37  and  C43_43 
REMARK       I    between atoms: C38_38  and  O8_67 
REMARK       I    between atoms: C41_41  and  C42_42 
REMARK       I    between atoms: C41_41  and  O8_67 
REMARK       I    between atoms: C42_42  and  O10_69 
REMARK       I    between atoms: C43_43  and  N16_93 
REMARK       I    between atoms: C44_44  and  C45_45 
REMARK       I    between atoms: C44_44  and  C49_49 
REMARK       I    between atoms: C44_44  and  N16_93 
REMARK       I    between atoms: C45_45  and  C46_46 
REMARK       I    between atoms: C46_46  and  C47_47 
REMARK       I    between atoms: C47_47  and  N17_94 
REMARK       I    between atoms: C48_48  and  N17_94 
REMARK       I    between atoms: C48_48  and  N19_97 
REMARK       I    between atoms: C49_49  and  N20_98 
REMARK       I    between atoms: C50_50  and  N20_98 
REMARK       I    between atoms: C52_52  and  C57_57 
REMARK       I    between atoms: C53_53  and  O13_72 
REMARK       I    between atoms: C57_57  and  N21_99 
REMARK       I    between atoms: C58_58  and  C59_59 
REMARK       I    between atoms: C58_58  and  N21_99 
REMARK       I    between atoms: C59_59  and  N22_100 
USER                              x       y       z     vdW  Elec       q    Type
USER                           _______ _______ _______ _____ _____    ______ ____
ROOT
ATOM      1  C1  UNL     1      27.001   8.660  -0.464 +2.31 +0.00    +0.210 C 
ATOM      2  C2  UNL     1      27.991   7.543   1.301 -0.33 +0.00    +0.084 A 
ATOM      3  C3  UNL     1      27.412   6.582   2.141+15.54 +0.00    +0.067 A 
ATOM      4  C4  UNL     1      27.706   6.626   3.518+99.99 +0.00    +0.049 A 
ATOM      5  C5  UNL     1      28.572   7.588   4.053+99.99 +0.00    +0.035 A 
ATOM      6  C6  UNL     1      29.157   8.517   3.194 +1.98 +0.00    +0.032 A 
ATOM      7  C7  UNL     1      28.874   8.491   1.826 +0.79 +0.00    +0.040 A 
ATOM      8  C8  UNL     1      29.602   8.391   6.199+99.99 +0.00    +0.255 C 
ATOM      9  C9  UNL     1      29.595   7.988   7.698+99.99 +0.00    +0.309 C 
ATOM     10  C10 UNL     1      30.179   9.064   8.628+99.99 +0.00    +0.047 C 
ATOM     11  C11 UNL     1      29.198  10.183   9.015+99.99 +0.00    +0.022 C 
ATOM     12  C12 UNL     1      28.687  11.077   7.885+20.94 +0.00    +0.122 C 
ATOM     13  C13 UNL     1      30.581  12.664   7.626 -0.23 +0.00    +0.143 C 
ATOM     14  C14 UNL     1      26.478   5.502   1.690 +6.53 +0.00    +0.255 C 
ATOM     15  C15 UNL     1      25.698   4.150  -0.288 -0.17 +0.00    +0.177 C 
ATOM     16  C16 UNL     1      26.504   2.893   0.081+99.99 +0.00    +0.036 C 
ATOM     17  C17 UNL     1      26.641   1.883  -1.067+99.99 +0.00    +0.022 C 
ATOM     18  C18 UNL     1      27.399   2.383  -2.302 -0.13 +0.00    +0.122 C 
ATOM     19  C19 UNL     1      29.164   4.009  -1.705 -0.13 +0.00    +0.143 C 
ATOM     20  C20 UNL     1      24.180   3.904  -0.093 +0.16 +0.00    +0.245 C 
ATOM     21  C21 UNL     1      22.380   4.014   1.625 +3.52 +0.00    +0.035 A 
ATOM     22  C22 UNL     1      21.305   3.848   0.762+99.99 +0.00    +0.049 A 
ATOM     23  C23 UNL     1      20.033   3.542   1.260+99.99 +0.00    +0.067 A 
ATOM     24  C24 UNL     1      19.798   3.465   2.639+99.99 +0.00    +0.084 A 
ATOM     25  C25 UNL     1      20.867   3.711   3.507+10.50 +0.00    +0.040 A 
ATOM     26  C26 UNL     1      22.148   3.983   3.002 +6.01 +0.00    +0.032 A 
ATOM     27  C27 UNL     1      18.211   3.296   4.412+77.22 +0.00    +0.210 C 
ATOM     28  C28 UNL     1      19.015   3.225   0.234+99.99 +0.00    +0.255 C 
ATOM     29  C29 UNL     1      17.427   1.510  -0.584+98.42 +0.00    +0.177 C 
ATOM     30  C30 UNL     1      17.417  -0.023  -0.552+99.99 +0.00    +0.036 C 
ATOM     31  C31 UNL     1      18.544  -0.694  -1.359+99.99 +0.00    +0.022 C 
ATOM     32  C32 UNL     1      19.966  -0.472  -0.837+60.86 +0.00    +0.122 C 
ATOM     33  C33 UNL     1      21.008   0.962  -2.541+60.20 +0.00    +0.143 C 
ATOM     34  C34 UNL     1      16.028   2.117  -0.309+99.99 +0.00    +0.245 C 
ATOM     35  C35 UNL     1      14.930   4.379  -0.423+99.99 +0.00    +0.035 A 
ATOM     36  C36 UNL     1      13.665   4.029   0.056+99.99 +0.00    +0.049 A 
ATOM     37  C37 UNL     1      12.646   4.993   0.195 +2.90 +0.00    +0.067 A 
ATOM     38  C38 UNL     1      12.914   6.320  -0.185 -0.37 +0.00    +0.085 A 
ATOM     39  C39 UNL     1      14.186   6.680  -0.641 +1.08 +0.00    +0.040 A 
ATOM     40  C40 UNL     1      15.183   5.713  -0.763+99.99 +0.00    +0.032 A 
ATOM     41  C41 UNL     1      11.628   7.943  -1.277+13.78 +0.00    +0.285 C 
ATOM     42  C42 UNL     1      10.131   8.197  -1.378 +0.21 +0.00    +0.164 C 
ATOM     43  C43 UNL     1      11.321   4.515   0.723+99.99 +0.00    +0.255 C 
ATOM     44  C44 UNL     1       9.089   5.235   1.630 -0.13 +0.00    +0.177 C 
ATOM     45  C45 UNL     1       8.282   4.020   1.141 -0.15 +0.00    +0.036 C 
ATOM     46  C46 UNL     1       8.062   3.932  -0.377 -0.13 +0.00    +0.022 C 
ATOM     47  C47 UNL     1       7.578   5.222  -1.036 +0.38 +0.00    +0.122 C 
ATOM     48  C48 UNL     1       6.075   7.008  -0.218 +0.18 +0.00    +0.143 C 
ATOM     49  C49 UNL     1       9.289   5.231   3.172 -0.13 +0.00    +0.245 C 
ATOM     50  C50 UNL     1       7.886   5.222   5.257 -0.25 +0.00    +0.035 A 
ATOM     51  C51 UNL     1       6.578   5.373   5.725 -0.27 +0.00    +0.049 A 
ATOM     52  C52 UNL     1       6.278   5.335   7.102 -0.39 +0.00    +0.067 A 
ATOM     53  C53 UNL     1       7.318   5.144   8.033 +0.08 +0.00    +0.084 A 
ATOM     54  C54 UNL     1       8.625   4.984   7.555 -0.45 +0.00    +0.040 A 
ATOM     55  C55 UNL     1       8.904   5.023   6.182 -0.32 +0.00    +0.032 A 
ATOM     56  C56 UNL     1       8.060   5.021  10.306+40.22 +0.00    +0.210 C 
ATOM     57  C57 UNL     1       4.832   5.512   7.458 +0.06 +0.00    +0.254 C 
ATOM     58  C58 UNL     1       3.085   5.407   9.224+99.99 +0.00    +0.225 C 
ATOM     59  C59 UNL     1       2.585   6.833   9.477+99.99 +0.00    +0.233 C 
ATOM     60  O1  UNL     1      27.775   7.529  -0.052 -0.17 -0.00    -0.355 OA
ATOM     61  O2  UNL     1      30.269   9.329   5.773+99.99 -0.00    -0.271 OA
ATOM     62  O3  UNL     1      25.924   4.781   2.519+19.50 -0.00    -0.268 OA
ATOM     63  O4  UNL     1      23.525   3.342  -0.976+32.60 -0.00    -0.271 OA
ATOM     64  O5  UNL     1      18.533   3.132   3.035 +0.65 -0.00    -0.355 OA
ATOM     65  O6  UNL     1      18.876   3.936  -0.756+99.99 -0.00    -0.268 OA
ATOM     66  O7  UNL     1      15.099   1.443   0.122 +1.26 -0.00    -0.271 OA
ATOM     67  O8  UNL     1      11.961   7.295  -0.044 +0.05 -0.00    -0.340 OA
ATOM     68  O9  UNL     1       9.525   8.381  -2.423 -0.08 -0.00    -0.648 OA
ATOM     69  O10 UNL     1       9.506   8.201  -0.182 +0.98 -0.00    -0.775 OA
ATOM     70  O11 UNL     1      11.132   3.320   0.927+99.99 -0.00    -0.268 OA
ATOM     71  O12 UNL     1      10.402   5.248   3.695 -0.17 -0.00    -0.271 OA
ATOM     72  O13 UNL     1       6.995   5.121   9.366+85.94 -0.00    -0.355 OA
ATOM     73  O14 UNL     1       4.013   5.843   6.603 -0.22 -0.00    -0.268 OA
ATOM     74  O15 UNL     1       1.745   7.105  10.331+99.99+99.99    -0.272 OA
ATOM     75  N1  UNL     1      28.800   7.545   5.443+99.99 -0.00    -0.325 N 
ATOM     76  N2  UNL     1      29.765  11.699   7.149 +0.43 -0.00    -0.367 N 
ATOM     77  N3  UNL     1      30.406  13.424   8.642 -0.11 -0.00    -0.376 N 
ATOM     78  H3  UNL     1      31.058  14.138   8.964 +0.08 +0.00    +0.158 HD
ATOM     79  N4  UNL     1      31.691  12.800   6.879 -0.20 -0.00    -0.274 NA
ATOM     80  N5  UNL     1      30.402   6.755   7.835+99.99 +0.00    +0.092 N 
ATOM     81  N6  UNL     1      26.260   5.352   0.343 -0.16 -0.00    -0.344 N 
ATOM     82  N7  UNL     1      28.769   2.749  -1.990 -0.07 -0.00    -0.367 N 
ATOM     83  N8  UNL     1      28.418   5.052  -1.738 -0.05 -0.00    -0.376 N 
ATOM     84  H8  UNL     1      27.430   5.062  -1.990 +0.07 +0.00    +0.158 HD
ATOM     85  N9  UNL     1      30.469   4.053  -1.379 -0.00 -0.00    -0.274 NA
ATOM     86  N10 UNL     1      23.698   4.186   1.173 -0.29 -0.00    -0.325 N 
ATOM     87  N11 UNL     1      18.336   2.049   0.424+99.99 -0.00    -0.344 N 
ATOM     88  N12 UNL     1      20.528   0.789  -1.289+27.22 -0.00    -0.367 N 
ATOM     89  N13 UNL     1      20.974   0.094  -3.484+99.99 -0.00    -0.376 N 
ATOM     90  H13 UNL     1      20.616  -0.860  -3.433+99.99 +0.00    +0.158 HD
ATOM     91  N14 UNL     1      21.491   2.205  -2.755+99.99 -0.00    -0.274 NA
ATOM     92  N15 UNL     1      15.996   3.477  -0.586+99.99 -0.00    -0.325 N 
ATOM     93  N16 UNL     1      10.352   5.467   0.936 -0.02 -0.00    -0.344 N 
ATOM     94  N17 UNL     1       6.369   5.703  -0.393 +0.15 -0.00    -0.367 N 
ATOM     95  N18 UNL     1       6.926   7.972  -0.267 -0.27 -0.00    -0.376 N 
ATOM     96  H18 UNL     1       7.922   7.885  -0.474 +0.05 +0.00    +0.158 HD
ATOM     97  N19 UNL     1       4.778   7.207   0.083+51.18 -0.00    -0.274 NA
ATOM     98  N20 UNL     1       8.082   5.266   3.862 -0.06 -0.00    -0.325 N 
ATOM     99  N21 UNL     1       4.462   5.330   8.767+99.99 -0.00    -0.348 N 
ATOM    100  N22 UNL     1       3.018   7.790   8.604 +2.82 -0.00    -0.369 N 
ATOM    101  H54 UNL     1       8.521   8.185  -0.361 +0.06 +0.00    +0.167 HD
ATOM    102  H55 UNL     1      28.315   6.816   5.953 +0.20 +0.00    +0.169 HD
ATOM    103  H56 UNL     1      30.245  11.039   6.531 +0.08 +0.00    +0.162 HD
ATOM    104  H57 UNL     1      29.511  13.203   9.077 +0.08 +0.00    +0.158 HD
ATOM    105  H58 UNL     1      32.188  13.637   7.168 +0.05 +0.00    +0.127 HD
ATOM    106  H59 UNL     1      31.497  12.821   5.887 +0.05 +0.00    +0.127 HD
ATOM    107  H60 UNL     1      30.191   6.099   7.084+99.99 +0.00    +0.313 HD
ATOM    108  H61 UNL     1      31.389   6.994   7.714 +1.29 +0.00    +0.313 HD
ATOM    109  H62 UNL     1      26.934   5.821  -0.263 +0.10 +0.00    +0.163 HD
ATOM    110  H63 UNL     1      29.292   2.023  -1.516 -0.01 +0.00    +0.162 HD
ATOM    111  H64 UNL     1      28.968   5.873  -1.471 +0.07 +0.00    +0.158 HD
ATOM    112  H65 UNL     1      31.028   3.411  -1.931 +0.04 +0.00    +0.127 HD
ATOM    113  H66 UNL     1      30.880   4.977  -1.395 +0.04 +0.00    +0.127 HD
ATOM    114  H67 UNL     1      24.413   4.381   1.878 +0.12 +0.00    +0.169 HD
ATOM    115  H68 UNL     1      18.275   1.686   1.370+99.99 +0.00    +0.163 HD
ATOM    116  H69 UNL     1      21.054   1.272  -0.572 +4.08 +0.00    +0.162 HD
ATOM    117  H70 UNL     1      21.381   0.562  -4.301 +4.46 +0.00    +0.158 HD
ATOM    118  H71 UNL     1      22.275   2.424  -2.131+99.99 +0.00    +0.127 HD
ATOM    119  H72 UNL     1      20.790   2.880  -2.454+13.82 +0.00    +0.127 HD
ATOM    120  H73 UNL     1      16.883   3.873  -0.901+99.99 +0.00    +0.169 HD
ATOM    121  H74 UNL     1      10.661   6.435   0.924 +0.08 +0.00    +0.163 HD
ATOM    122  H75 UNL     1       5.597   5.050  -0.422 -0.06 +0.00    +0.162 HD
ATOM    123  H76 UNL     1       6.426   8.844  -0.059 -0.01 +0.00    +0.158 HD
ATOM    124  H77 UNL     1       4.127   6.592  -0.387 +0.74 +0.00    +0.127 HD
ATOM    125  H78 UNL     1       4.456   8.166   0.038+93.91 +0.00    +0.127 HD
ATOM    126  H79 UNL     1       7.248   5.400   3.301 +0.08 +0.00    +0.169 HD
ATOM    127  H80 UNL     1       5.194   5.179   9.454+99.99 +0.00    +0.163 HD
ATOM    128  H81 UNL     1       2.545   8.682   8.646 +0.06 +0.00    +0.159 HD
ATOM    129  H82 UNL     1       3.346   7.481   7.691 +0.06 +0.00    +0.159 HD
ENDROOT
TORSDOF 41
TER
