USER    Run = 1
USER    DPF = ligand_254_receptor.dpf
USER  
USER    Estimated Free Energy of Binding    =  +8.63e+003 kcal/mol  [=(1)+(2)+(3)-(4)]
USER    
USER    (1) Final Intermolecular Energy     =  +8.63e+003 kcal/mol
USER        vdW + Hbond + desolv Energy     =  +8.63e+003 kcal/mol
USER        Electrostatic Energy            =   +0.00 kcal/mol
USER    (2) Final Total Internal Energy     =   +0.00 kcal/mol
USER    (3) Torsional Free Energy           =   +1.19 kcal/mol
USER    (4) Unbound System's Energy  [=(2)] =   +0.00 kcal/mol
USER    
USER    
USER    NEWDPF move ligand_254.pdbqt
USER    NEWDPF about 0.000000 0.000000 0.000000
USER    NEWDPF tran0 13.663345 7.605955 2.430749
USER    NEWDPF quaternion0 -0.366933 0.002055 -0.241345 0.898392
USER    NEWDPF axisangle0 -0.835469 0.004680 -0.549518 52.104996
USER    NEWDPF quat0 -0.835469 0.004680 -0.549518 52.104996
USER  keepresnum = 1 
USER  
REMARK  0 active torsions:
REMARK  status: ('A' for Active; 'I' for Inactive)
REMARK       I    between atoms: C2_2  and  O1_48 
REMARK       I    between atoms: C4_4  and  C5_5 
REMARK       I    between atoms: C4_4  and  O1_48 
REMARK       I    between atoms: C7_7  and  N7_62 
REMARK       I    between atoms: C8_8  and  S1_74 
REMARK       I    between atoms: C9_9  and  N1_55 
REMARK       I    between atoms: C11_11  and  C12_12 
REMARK       I    between atoms: C11_11  and  N1_55 
REMARK       I    between atoms: C12_12  and  C13_13 
REMARK       I    between atoms: C12_12  and  N5_60 
REMARK       I    between atoms: C13_13  and  C14_14 
REMARK       I    between atoms: C14_14  and  C15_15 
REMARK       I    between atoms: C15_15  and  N3_58 
REMARK       I    between atoms: C16_16  and  N3_58 
REMARK       I    between atoms: C16_16  and  N4_59 
REMARK       I    between atoms: C18_18  and  C19_19 
REMARK       I    between atoms: C18_18  and  S1_74 
REMARK       I    between atoms: C19_19  and  N6_61 
REMARK       I    between atoms: C20_20  and  C21_21 
REMARK       I    between atoms: C20_20  and  N7_62 
REMARK       I    between atoms: C23_23  and  C29_29 
REMARK       I    between atoms: C25_25  and  O4_51 
REMARK       I    between atoms: C27_27  and  C28_28 
REMARK       I    between atoms: C27_27  and  O4_51 
REMARK       I    between atoms: C28_28  and  N8_63 
REMARK       I    between atoms: C29_29  and  N9_64 
REMARK       I    between atoms: C30_30  and  N9_64 
REMARK       I    between atoms: C31_31  and  S2_75 
REMARK       I    between atoms: C32_32  and  N10_65 
REMARK       I    between atoms: C34_34  and  C36_36 
REMARK       I    between atoms: C36_36  and  O7_54 
REMARK       I    between atoms: C37_37  and  O7_54 
REMARK       I    between atoms: C40_40  and  C41_41 
REMARK       I    between atoms: C40_40  and  N10_65 
REMARK       I    between atoms: C41_41  and  C42_42 
REMARK       I    between atoms: C41_41  and  N15_72 
REMARK       I    between atoms: C42_42  and  C43_43 
REMARK       I    between atoms: C43_43  and  C44_44 
REMARK       I    between atoms: C44_44  and  N12_68 
REMARK       I    between atoms: C45_45  and  N12_68 
REMARK       I    between atoms: C45_45  and  N14_71 
REMARK       I    between atoms: C46_46  and  C47_47 
REMARK       I    between atoms: C46_46  and  S2_75 
REMARK       I    between atoms: C47_47  and  N16_73 
USER                              x       y       z     vdW  Elec       q    Type
USER                           _______ _______ _______ _____ _____    ______ ____
ROOT
ATOM      1  C1  UNL     1      19.501  11.550  10.201+99.99 +0.00    +0.040 C 
ATOM      2  C2  UNL     1      18.924  12.693   9.372+84.41 +0.00    +0.124 C 
ATOM      3  C3  UNL     1      17.798  13.390  10.126+99.99 +0.00    +0.040 C 
ATOM      4  C4  UNL     1      19.221  11.971   7.131+99.99 +0.00    +0.293 C 
ATOM      5  C5  UNL     1      18.498  11.434   5.947+99.99 +0.00    +0.043 A 
ATOM      6  C6  UNL     1      17.229  10.848   6.057 +8.09 +0.00    +0.048 A 
ATOM      7  C7  UNL     1      16.588  10.344   4.926 +1.85 +0.00    +0.055 A 
ATOM      8  C8  UNL     1      17.241  10.414   3.669 -0.39 +0.00    +0.054 A 
ATOM      9  C9  UNL     1      18.527  10.992   3.544 +1.62 +0.00    +0.053 A 
ATOM     10  C10 UNL     1      19.131  11.506   4.698+99.99 +0.00    +0.048 A 
ATOM     11  C11 UNL     1      20.026  12.022   1.803 -0.49 +0.00    +0.108 C 
ATOM     12  C12 UNL     1      20.541  11.853   0.342 -0.30 +0.00    +0.284 C 
ATOM     13  C13 UNL     1      21.772  10.938   0.333 +0.28 +0.00    +0.045 C 
ATOM     14  C14 UNL     1      22.437  10.854  -1.047 +5.21 +0.00    +0.022 C 
ATOM     15  C15 UNL     1      23.642   9.913  -1.060 +4.32 +0.00    +0.121 C 
ATOM     16  C16 UNL     1      25.894   9.812   0.053+99.99 +0.00    +0.063 C 
ATOM     17  C17 UNL     1      26.150   8.525  -0.215 +0.61 +0.00    +0.056 C 
ATOM     18  C18 UNL     1      17.049   8.063   2.202 -0.48 +0.00    +0.109 C 
ATOM     19  C19 UNL     1      17.752   7.725   0.881+12.63 +0.00    +0.277 C 
ATOM     20  C20 UNL     1      14.479   9.545   6.052+11.03 +0.00    +0.256 C 
ATOM     21  C21 UNL     1      13.208   8.815   5.759 +0.31 +0.00    +0.035 A 
ATOM     22  C22 UNL     1      13.100   7.911   4.696 -0.40 +0.00    +0.034 A 
ATOM     23  C23 UNL     1      11.887   7.258   4.443 -0.36 +0.00    +0.035 A 
ATOM     24  C24 UNL     1      10.798   7.478   5.295 -0.32 +0.00    +0.053 A 
ATOM     25  C25 UNL     1      10.906   8.357   6.378 -0.09 +0.00    +0.070 A 
ATOM     26  C26 UNL     1      12.107   9.028   6.602 +2.17 +0.00    +0.053 A 
ATOM     27  C27 UNL     1       9.844   9.122   8.397+99.99 +0.00    +0.205 C 
ATOM     28  C28 UNL     1       9.531  10.618   8.274+99.99 +0.00    +0.293 C 
ATOM     29  C29 UNL     1      11.835   6.317   3.285 -0.18 +0.00    +0.256 C 
ATOM     30  C30 UNL     1      10.241   5.214   1.677 +0.56 +0.00    +0.055 A 
ATOM     31  C31 UNL     1       8.879   5.123   1.296 -0.13 +0.00    +0.054 A 
ATOM     32  C32 UNL     1       8.465   4.223   0.279 -0.11 +0.00    +0.053 A 
ATOM     33  C33 UNL     1       9.445   3.475  -0.387 -0.11 +0.00    +0.048 A 
ATOM     34  C34 UNL     1      10.794   3.561  -0.021+14.42 +0.00    +0.043 A 
ATOM     35  C35 UNL     1      11.183   4.423   1.013+99.99 +0.00    +0.048 A 
ATOM     36  C36 UNL     1      11.851   2.766  -0.708 +4.17 +0.00    +0.293 C 
ATOM     37  C37 UNL     1      12.195   0.950  -2.197 +0.21 +0.00    +0.124 C 
ATOM     38  C38 UNL     1      11.441   0.409  -3.405 -0.28 +0.00    +0.040 C 
ATOM     39  C39 UNL     1      12.647  -0.187  -1.288 +5.00 +0.00    +0.040 C 
ATOM     40  C40 UNL     1       6.583   3.243  -0.981 -0.08 +0.00    +0.108 C 
ATOM     41  C41 UNL     1       5.695   2.061  -0.494 -0.05 +0.00    +0.284 C 
ATOM     42  C42 UNL     1       5.396   1.928   1.012 -0.17 +0.00    +0.044 C 
ATOM     43  C43 UNL     1       4.094   2.535   1.563 -0.13 +0.00    +0.017 C 
ATOM     44  C44 UNL     1       4.161   3.987   2.026 -0.12 +0.00    +0.095 C 
ATOM     45  C45 UNL     1       3.893   5.211  -0.089 +0.85 +0.00    +0.122 C 
ATOM     46  C46 UNL     1       7.721   7.639   1.130 -0.36 +0.00    +0.109 C 
ATOM     47  C47 UNL     1       7.985   8.880   1.993+23.25 +0.00    +0.277 C 
ATOM     48  O1  UNL     1      18.358  12.167   8.158 +2.79 -0.00    -0.313 OA
ATOM     49  O2  UNL     1      20.418  12.203   7.145+32.54 -0.00    -0.259 OA
ATOM     50  O3  UNL     1      14.683   9.915   7.201+21.75 -0.00    -0.267 OA
ATOM     51  O4  UNL     1       9.764   8.482   7.119+12.21 -0.00    -0.349 OA
ATOM     52  O5  UNL     1      12.895   5.835   2.899 +2.58 -0.00    -0.267 OA
ATOM     53  O6  UNL     1      13.047   2.966  -0.566+99.99 -0.00    -0.259 OA
ATOM     54  O7  UNL     1      11.287   1.808  -1.481 -0.18 -0.00    -0.313 OA
ATOM     55  N1  UNL     1      19.137  11.081   2.274 -0.20 -0.00    -0.343 N 
ATOM     56  N2  UNL     1      20.449  13.035   2.493 +1.13 -0.00    -0.387 N 
ATOM     57  H2  UNL     1      20.166  13.235   3.453 +0.57 +0.00    +0.157 HD
ATOM     58  N3  UNL     1      24.704  10.433  -0.211+99.99 -0.00    -0.382 N 
ATOM     59  N4  UNL     1      26.849  10.594   0.640+16.06 -0.00    -0.290 NA
ATOM     60  N5  UNL     1      19.467  11.345  -0.526 -0.24 +0.00    +0.090 N 
ATOM     61  N6  UNL     1      18.983   8.503   0.664+45.91 +0.00    +0.079 N 
ATOM     62  N7  UNL     1      15.302   9.752   4.965 +5.38 -0.00    -0.322 N 
ATOM     63  N8  UNL     1       9.588  11.305   9.562+14.52 +0.00    +0.080 N 
ATOM     64  N9  UNL     1      10.591   6.103   2.727 -0.12 -0.00    -0.322 N 
ATOM     65  N10 UNL     1       7.094   4.166  -0.104 -0.01 -0.00    -0.343 N 
ATOM     66  N11 UNL     1       6.822   3.335  -2.259 -0.03 -0.00    -0.387 N 
ATOM     67  H11 UNL     1       6.486   2.701  -2.984 +0.04 +0.00    +0.157 HD
ATOM     68  N12 UNL     1       4.635   4.914   1.007 -0.21 -0.00    -0.270 NA
ATOM     69  N13 UNL     1       2.807   4.630  -0.431 +5.65 -0.00    -0.381 N 
ATOM     70  H13 UNL     1       2.374   3.860   0.079 +0.01 +0.00    +0.158 HD
ATOM     71  N14 UNL     1       4.477   6.184  -0.815 +1.36 -0.00    -0.279 NA
ATOM     72  N15 UNL     1       4.500   1.982  -1.348 -0.08 +0.00    +0.090 N 
ATOM     73  N16 UNL     1       9.320   8.875   2.597 +3.18 +0.00    +0.079 N 
ATOM     74  S1  UNL     1      16.397   9.774   2.195 -0.57 -0.00    -0.124 SA
ATOM     75  S2  UNL     1       7.635   6.121   2.153 -0.27 -0.00    -0.124 SA
ATOM     76  H50 UNL     1      18.756  10.418   1.598 +0.14 +0.00    +0.167 HD
ATOM     77  H51 UNL     1      21.102  13.607   1.951 +2.34 +0.00    +0.157 HD
ATOM     78  H52 UNL     1      24.872  11.426  -0.349+99.99 +0.00    +0.160 HD
ATOM     79  H53 UNL     1      27.579  10.052   1.092 +0.80 +0.00    +0.125 HD
ATOM     80  H54 UNL     1      26.416  11.231   1.303 +0.40 +0.00    +0.125 HD
ATOM     81  H55 UNL     1      19.247  10.375  -0.283 +0.27 +0.00    +0.313 HD
ATOM     82  H56 UNL     1      18.618  11.886  -0.356 +0.29 +0.00    +0.313 HD
ATOM     83  H57 UNL     1      19.654   8.252   1.397 +8.60 +0.00    +0.312 HD
ATOM     84  H58 UNL     1      19.415   8.157  -0.199 +6.15 +0.00    +0.312 HD
ATOM     85  H59 UNL     1      14.957   9.500   4.045 +0.06 +0.00    +0.169 HD
ATOM     86  H60 UNL     1       9.375  12.293   9.429 +4.38 +0.00    +0.312 HD
ATOM     87  H61 UNL     1      10.539  11.272   9.930 +0.18 +0.00    +0.312 HD
ATOM     88  H62 UNL     1       9.824   6.698   3.047 +0.10 +0.00    +0.169 HD
ATOM     89  H63 UNL     1       6.497   4.322   0.714 +0.06 +0.00    +0.167 HD
ATOM     90  H64 UNL     1       7.411   4.162  -2.402 -0.06 +0.00    +0.157 HD
ATOM     91  H65 UNL     1       4.968   5.775   1.436 +0.03 +0.00    +0.130 HD
ATOM     92  H66 UNL     1       2.434   5.043  -1.287 +0.02 +0.00    +0.158 HD
ATOM     93  H67 UNL     1       4.087   6.284  -1.746 +0.40 +0.00    +0.126 HD
ATOM     94  H68 UNL     1       5.479   6.035  -0.892 -0.51 +0.00    +0.126 HD
ATOM     95  H69 UNL     1       4.826   2.143  -2.308 +0.07 +0.00    +0.313 HD
ATOM     96  H70 UNL     1       3.898   2.789  -1.144 +0.07 +0.00    +0.313 HD
ATOM     97  H71 UNL     1       9.410   9.702   3.191 -0.18 +0.00    +0.312 HD
ATOM     98  H72 UNL     1      10.020   8.994   1.862 +2.29 +0.00    +0.312 HD
ENDROOT
TORSDOF 40
TER
