USER    Run = 1
USER    DPF = ligand_276_receptor.dpf
USER  
USER    Estimated Free Energy of Binding    =  +3.07e+004 kcal/mol  [=(1)+(2)+(3)-(4)]
USER    
USER    (1) Final Intermolecular Energy     =  +3.07e+004 kcal/mol
USER        vdW + Hbond + desolv Energy     =  +3.07e+004 kcal/mol
USER        Electrostatic Energy            =   +0.00 kcal/mol
USER    (2) Final Total Internal Energy     =   +0.00 kcal/mol
USER    (3) Torsional Free Energy           =   +1.19 kcal/mol
USER    (4) Unbound System's Energy  [=(2)] =   +0.00 kcal/mol
USER    
USER    
USER    NEWDPF move ligand_276.pdbqt
USER    NEWDPF about 0.000000 0.000000 0.000000
USER    NEWDPF tran0 16.718489 8.576621 2.265628
USER    NEWDPF quaternion0 0.014615 -0.989123 -0.083634 0.120115
USER    NEWDPF axisangle0 0.014722 -0.996336 -0.084244 166.202467
USER    NEWDPF quat0 0.014722 -0.996336 -0.084244 166.202467
USER  keepresnum = 1 
USER  
REMARK  0 active torsions:
REMARK  status: ('A' for Active; 'I' for Inactive)
REMARK       I    between atoms: C2_2  and  O1_57 
REMARK       I    between atoms: C3_3  and  C14_14 
REMARK       I    between atoms: C5_5  and  N1_71 
REMARK       I    between atoms: C8_8  and  C9_9 
REMARK       I    between atoms: C8_8  and  N1_71 
REMARK       I    between atoms: C9_9  and  C10_10 
REMARK       I    between atoms: C9_9  and  N4_74 
REMARK       I    between atoms: C10_10  and  C11_11 
REMARK       I    between atoms: C11_11  and  C12_12 
REMARK       I    between atoms: C12_12  and  N2_72 
REMARK       I    between atoms: C13_13  and  N2_72 
REMARK       I    between atoms: C13_13  and  N3_73 
REMARK       I    between atoms: C14_14  and  N5_75 
REMARK       I    between atoms: C15_15  and  C16_16 
REMARK       I    between atoms: C15_15  and  C20_20 
REMARK       I    between atoms: C15_15  and  N5_75 
REMARK       I    between atoms: C16_16  and  C17_17 
REMARK       I    between atoms: C17_17  and  C18_18 
REMARK       I    between atoms: C18_18  and  N6_76 
REMARK       I    between atoms: C19_19  and  N7_78 
REMARK       I    between atoms: C19_19  and  N8_79 
REMARK       I    between atoms: C20_20  and  N9_80 
REMARK       I    between atoms: C21_21  and  N9_80 
REMARK       I    between atoms: C23_23  and  C28_28 
REMARK       I    between atoms: C24_24  and  O6_62 
REMARK       I    between atoms: C28_28  and  N10_81 
REMARK       I    between atoms: C29_29  and  C30_30 
REMARK       I    between atoms: C29_29  and  C34_34 
REMARK       I    between atoms: C29_29  and  N10_81 
REMARK       I    between atoms: C30_30  and  C31_31 
REMARK       I    between atoms: C31_31  and  C32_32 
REMARK       I    between atoms: C32_32  and  N11_82 
REMARK       I    between atoms: C33_33  and  N12_84 
REMARK       I    between atoms: C33_33  and  N13_85 
REMARK       I    between atoms: C34_34  and  N14_86 
REMARK       I    between atoms: C35_35  and  N14_86 
REMARK       I    between atoms: C37_37  and  C42_42 
REMARK       I    between atoms: C38_38  and  O9_65 
REMARK       I    between atoms: C42_42  and  N15_87 
REMARK       I    between atoms: C43_43  and  C44_44 
REMARK       I    between atoms: C43_43  and  C48_48 
REMARK       I    between atoms: C43_43  and  N15_87 
REMARK       I    between atoms: C44_44  and  C45_45 
REMARK       I    between atoms: C45_45  and  C46_46 
REMARK       I    between atoms: C46_46  and  N16_88 
REMARK       I    between atoms: C47_47  and  N16_88 
REMARK       I    between atoms: C47_47  and  N17_89 
REMARK       I    between atoms: C48_48  and  N18_90 
REMARK       I    between atoms: C49_49  and  N18_90 
REMARK       I    between atoms: C51_51  and  C56_56 
REMARK       I    between atoms: C52_52  and  O13_69 
REMARK       I    between atoms: C56_56  and  N19_91 
USER                              x       y       z     vdW  Elec       q    Type
USER                           _______ _______ _______ _____ _____    ______ ____
ROOT
ATOM      1  C1  UNL     1       9.591   7.591   3.787 -0.28 +0.00    +0.210 C 
ATOM      2  C2  UNL     1       7.708   7.182   2.533 -0.30 +0.00    +0.084 A 
ATOM      3  C3  UNL     1       7.977   6.992   1.170 -0.30 +0.00    +0.067 A 
ATOM      4  C4  UNL     1       7.107   7.541   0.211 -0.42 +0.00    +0.049 A 
ATOM      5  C5  UNL     1       5.959   8.237   0.601 +3.27 +0.00    +0.035 A 
ATOM      6  C6  UNL     1       5.688   8.381   1.967 +2.01 +0.00    +0.032 A 
ATOM      7  C7  UNL     1       6.551   7.853   2.929 +4.62 +0.00    +0.040 A 
ATOM      8  C8  UNL     1       5.066   8.770  -1.680+11.34 +0.00    +0.255 C 
ATOM      9  C9  UNL     1       3.880   9.508  -2.356 +5.62 +0.00    +0.309 C 
ATOM     10  C10 UNL     1       4.279  10.940  -2.756+99.99 +0.00    +0.047 C 
ATOM     11  C11 UNL     1       4.346  11.919  -1.580+99.99 +0.00    +0.022 C 
ATOM     12  C12 UNL     1       2.957  12.302  -1.061 +3.19 +0.00    +0.124 C 
ATOM     13  C13 UNL     1       3.070  11.621   1.277+22.00 +0.00    +0.291 C 
ATOM     14  C14 UNL     1       9.159   6.238   0.663 -0.15 +0.00    +0.255 C 
ATOM     15  C15 UNL     1      10.660   4.272   1.037+99.99 +0.00    +0.177 C 
ATOM     16  C16 UNL     1      10.610   3.002   1.907+99.99 +0.00    +0.036 C 
ATOM     17  C17 UNL     1       9.445   2.041   1.621 +0.06 +0.00    +0.022 C 
ATOM     18  C18 UNL     1       8.037   2.634   1.633 -0.20 +0.00    +0.121 C 
ATOM     19  C19 UNL     1       7.536   3.135   3.908 -0.25 +0.00    +0.121 C 
ATOM     20  C20 UNL     1      12.070   4.928   1.126+52.71 +0.00    +0.245 C 
ATOM     21  C21 UNL     1      13.371   6.758  -0.010 +0.09 +0.00    +0.035 A 
ATOM     22  C22 UNL     1      14.616   6.546   0.587+99.99 +0.00    +0.049 A 
ATOM     23  C23 UNL     1      15.707   7.387   0.300 +7.80 +0.00    +0.067 A 
ATOM     24  C24 UNL     1      15.540   8.427  -0.626 +0.46 +0.00    +0.084 A 
ATOM     25  C25 UNL     1      14.294   8.656  -1.210+99.99 +0.00    +0.040 A 
ATOM     26  C26 UNL     1      13.219   7.820  -0.909+19.18 +0.00    +0.032 A 
ATOM     27  C27 UNL     1      17.294   8.785  -2.068 +0.32 +0.00    +0.210 C 
ATOM     28  C28 UNL     1      16.995   7.099   0.999 +4.42 +0.00    +0.255 C 
ATOM     29  C29 UNL     1      19.140   8.025   1.847+99.99 +0.00    +0.177 C 
ATOM     30  C30 UNL     1      18.927   8.278   3.354 -0.34 +0.00    +0.036 C 
ATOM     31  C31 UNL     1      18.803   9.734   3.838 +2.03 +0.00    +0.022 C 
ATOM     32  C32 UNL     1      17.643  10.538   3.249 -0.42 +0.00    +0.121 C 
ATOM     33  C33 UNL     1      17.749  11.935   1.307 -0.60 +0.00    +0.121 C 
ATOM     34  C34 UNL     1      20.242   8.895   1.172+22.76 +0.00    +0.245 C 
ATOM     35  C35 UNL     1      22.669   9.468   1.502 -0.40 +0.00    +0.035 A 
ATOM     36  C36 UNL     1      23.780   9.208   2.311 -0.45 +0.00    +0.049 A 
ATOM     37  C37 UNL     1      25.028   9.818   2.067 -0.45 +0.00    +0.067 A 
ATOM     38  C38 UNL     1      25.163  10.714   0.990+18.57 +0.00    +0.084 A 
ATOM     39  C39 UNL     1      24.048  10.966   0.182+29.27 +0.00    +0.040 A 
ATOM     40  C40 UNL     1      22.815  10.351   0.438 -0.00 +0.00    +0.032 A 
ATOM     41  C41 UNL     1      26.475  12.340  -0.180+99.99 +0.00    +0.210 C 
ATOM     42  C42 UNL     1      26.131   9.450   3.015 -0.35 +0.00    +0.255 C 
ATOM     43  C43 UNL     1      28.621   9.516   3.455+52.35 +0.00    +0.177 C 
ATOM     44  C44 UNL     1      28.830   8.013   3.702+32.99 +0.00    +0.036 C 
ATOM     45  C45 UNL     1      28.938   7.214   2.402 +0.41 +0.00    +0.022 C 
ATOM     46  C46 UNL     1      29.191   5.736   2.682+99.99 +0.00    +0.124 C 
ATOM     47  C47 UNL     1      29.285   3.615   1.502 +0.44 +0.00    +0.291 C 
ATOM     48  C48 UNL     1      28.746  10.311   4.778+99.99 +0.00    +0.245 C 
ATOM     49  C49 UNL     1      27.464  10.751   6.889+99.99 +0.00    +0.035 A 
ATOM     50  C50 UNL     1      28.351  11.651   7.484+99.99 +0.00    +0.049 A 
ATOM     51  C51 UNL     1      28.084  12.179   8.760+72.77 +0.00    +0.067 A 
ATOM     52  C52 UNL     1      26.907  11.820   9.426+27.68 +0.00    +0.084 A 
ATOM     53  C53 UNL     1      26.023  10.914   8.840+19.42 +0.00    +0.040 A 
ATOM     54  C54 UNL     1      26.297  10.390   7.575+99.99 +0.00    +0.032 A 
ATOM     55  C55 UNL     1      25.714  13.334  10.675+99.99 +0.00    +0.210 C 
ATOM     56  C56 UNL     1      29.045  13.136   9.364 -0.26 +0.00    +0.252 C 
ATOM     57  O1  UNL     1       8.506   6.692   3.536 -0.14 -0.00    -0.355 OA
ATOM     58  O2  UNL     1       5.920   8.215  -2.371+22.50 -0.00    -0.271 OA
ATOM     59  O3  UNL     1       3.132  10.426   1.024+99.99 -0.00    -0.254 OA
ATOM     60  O4  UNL     1       9.666   6.511  -0.422 -0.17 -0.00    -0.268 OA
ATOM     61  O5  UNL     1      12.927   4.530   1.912+99.99 -0.00    -0.271 OA
ATOM     62  O6  UNL     1      16.548   9.293  -0.959 +0.46 -0.00    -0.355 OA
ATOM     63  O7  UNL     1      17.218   5.984   1.461 +8.72 -0.00    -0.268 OA
ATOM     64  O8  UNL     1      20.044   9.527   0.133 +0.17 -0.00    -0.271 OA
ATOM     65  O9  UNL     1      26.390  11.292   0.782+23.70 -0.00    -0.355 OA
ATOM     66  O10 UNL     1      25.881   8.835   4.050 -0.73 -0.00    -0.268 OA
ATOM     67  O11 UNL     1      29.111   2.931   2.497 +1.14 -0.00    -0.254 OA
ATOM     68  O12 UNL     1      29.789  10.908   5.041+99.99 -0.00    -0.271 OA
ATOM     69  O13 UNL     1      26.644  12.250  10.699 -0.22 -0.00    -0.355 OA
ATOM     70  O14 UNL     1      28.692  14.139   9.969 -0.18 -0.00    -0.268 OA
ATOM     71  N1  UNL     1       5.032   8.809  -0.298+99.99 -0.00    -0.325 N 
ATOM     72  N2  UNL     1       2.972  12.616   0.351 +3.14 -0.00    -0.348 N 
ATOM     73  N3  UNL     1       3.107  12.096   2.545 +0.23 -0.00    -0.254 NA
ATOM     74  N4  UNL     1       3.509   8.771  -3.588 +0.81 +0.00    +0.092 N 
ATOM     75  N5  UNL     1       9.645   5.235   1.463 -0.02 -0.00    -0.344 N 
ATOM     76  N6  UNL     1       7.853   3.556   2.747 -0.05 -0.00    -0.372 N 
ATOM     77  H6  UNL     1       7.979   4.556   2.594 +0.08 +0.00    +0.161 HD
ATOM     78  N7  UNL     1       7.327   1.880   4.357 +4.43 -0.00    -0.279 NA
ATOM     79  N8  UNL     1       7.390   4.023   4.915 -0.15 -0.00    -0.279 NA
ATOM     80  N9  UNL     1      12.233   5.966   0.223 -0.29 -0.00    -0.325 N 
ATOM     81  N10 UNL     1      17.889   8.133   1.117 +2.26 -0.00    -0.344 N 
ATOM     82  N11 UNL     1      17.961  10.811   1.863 -0.16 -0.00    -0.372 N 
ATOM     83  H11 UNL     1      18.375  10.065   1.304 +0.13 +0.00    +0.161 HD
ATOM     84  N12 UNL     1      18.160  12.115   0.035 +0.66 -0.00    -0.279 NA
ATOM     85  N13 UNL     1      17.168  13.054   1.785 -0.22 -0.00    -0.279 NA
ATOM     86  N14 UNL     1      21.466   8.809   1.829 +0.51 -0.00    -0.325 N 
ATOM     87  N15 UNL     1      27.407   9.838   2.699 +8.42 -0.00    -0.344 N 
ATOM     88  N16 UNL     1      29.290   4.979   1.450 +0.95 -0.00    -0.348 N 
ATOM     89  N17 UNL     1      29.500   3.063   0.280 -0.20 -0.00    -0.254 NA
ATOM     90  N18 UNL     1      27.661  10.174   5.622+99.99 -0.00    -0.325 N 
ATOM     91  N19 UNL     1      30.373  12.846   9.199 -0.10 -0.00    -0.366 N 
ATOM     92  H53 UNL     1       4.246   9.305   0.134+99.99 +0.00    +0.169 HD
ATOM     93  H54 UNL     1       3.341  13.514   0.631 +0.06 +0.00    +0.163 HD
ATOM     94  H55 UNL     1       3.043  11.372   3.249 +0.01 +0.00    +0.128 HD
ATOM     95  H56 UNL     1       2.525  12.900   2.732 +0.06 +0.00    +0.128 HD
ATOM     96  H57 UNL     1       3.273   7.813  -3.322 +0.19 +0.00    +0.313 HD
ATOM     97  H58 UNL     1       4.370   8.658  -4.135 +1.25 +0.00    +0.313 HD
ATOM     98  H59 UNL     1       9.032   4.933   2.226 +0.06 +0.00    +0.163 HD
ATOM     99  H60 UNL     1       7.193   1.189   3.631 -0.14 +0.00    +0.126 HD
ATOM    100  H61 UNL     1       6.581   1.837   5.041 +5.70 +0.00    +0.126 HD
ATOM    101  H62 UNL     1       7.903   3.746   5.742 -0.02 +0.00    +0.126 HD
ATOM    102  H63 UNL     1       7.698   4.944   4.605 +0.07 +0.00    +0.126 HD
ATOM    103  H64 UNL     1      11.384   6.230  -0.285 +0.09 +0.00    +0.169 HD
ATOM    104  H65 UNL     1      17.627   9.075   0.821 +0.12 +0.00    +0.163 HD
ATOM    105  H66 UNL     1      18.711  12.956  -0.071 +0.07 +0.00    +0.126 HD
ATOM    106  H67 UNL     1      18.724  11.304  -0.237 +0.09 +0.00    +0.126 HD
ATOM    107  H68 UNL     1      16.593  12.890   2.601 +0.11 +0.00    +0.126 HD
ATOM    108  H69 UNL     1      16.636  13.530   1.066 -0.04 +0.00    +0.126 HD
ATOM    109  H70 UNL     1      21.505   8.190   2.628 +0.12 +0.00    +0.169 HD
ATOM    110  H71 UNL     1      27.518  10.428   1.879+13.56 +0.00    +0.163 HD
ATOM    111  H72 UNL     1      29.922   5.338   0.748 +0.07 +0.00    +0.163 HD
ATOM    112  H73 UNL     1      29.035   3.526  -0.487 +0.06 +0.00    +0.128 HD
ATOM    113  H74 UNL     1      29.372   2.058   0.288 +0.04 +0.00    +0.128 HD
ATOM    114  H75 UNL     1      26.911   9.570   5.278 +8.75 +0.00    +0.169 HD
ATOM    115  H76 UNL     1      30.697  11.958   8.839 -0.36 +0.00    +0.159 HD
ATOM    116  H77 UNL     1      31.036  13.440   9.677 +0.07 +0.00    +0.159 HD
ENDROOT
TORSDOF 36
TER
