USER    Run = 1
USER    DPF = ligand_4_receptor.dpf
USER  
USER    Estimated Free Energy of Binding    =  +5.66e+004 kcal/mol  [=(1)+(2)+(3)-(4)]
USER    
USER    (1) Final Intermolecular Energy     =  +5.66e+004 kcal/mol
USER        vdW + Hbond + desolv Energy     =  +5.66e+004 kcal/mol
USER        Electrostatic Energy            =   +0.00 kcal/mol
USER    (2) Final Total Internal Energy     =   +0.00 kcal/mol
USER    (3) Torsional Free Energy           =   +1.19 kcal/mol
USER    (4) Unbound System's Energy  [=(2)] =   +0.00 kcal/mol
USER    
USER    
USER    NEWDPF move ligand_4.pdbqt
USER    NEWDPF about 0.000000 0.000000 0.000000
USER    NEWDPF tran0 16.342273 7.348949 2.502504
USER    NEWDPF quaternion0 0.196206 0.021375 0.123052 -0.972576
USER    NEWDPF axisangle0 0.843591 0.091900 0.529064 -26.898517
USER    NEWDPF quat0 0.843591 0.091900 0.529064 -26.898517
USER  keepresnum = 1 
USER  
REMARK  0 active torsions:
REMARK  status: ('A' for Active; 'I' for Inactive)
REMARK       I    between atoms: C2_2  and  O12_55 
REMARK       I    between atoms: C6_6  and  N4_60 
REMARK       I    between atoms: C7_7  and  N4_60 
REMARK       I    between atoms: C8_8  and  N6_62 
REMARK       I    between atoms: C9_9  and  O6_49 
REMARK       I    between atoms: C10_10  and  O4_47 
REMARK       I    between atoms: C11_11  and  C12_12 
REMARK       I    between atoms: C12_12  and  O3_46 
REMARK       I    between atoms: C13_13  and  O4_47 
REMARK       I    between atoms: C13_13  and  N5_61 
REMARK       I    between atoms: C14_14  and  C15_15 
REMARK       I    between atoms: C14_14  and  N6_62 
REMARK       I    between atoms: C15_15  and  C16_16 
REMARK       I    between atoms: C16_16  and  C17_17 
REMARK       I    between atoms: C16_16  and  N16_72 
REMARK       I    between atoms: C17_17  and  C18_18 
REMARK       I    between atoms: C18_18  and  C19_19 
REMARK       I    between atoms: C19_19  and  N7_63 
REMARK       I    between atoms: C20_20  and  C21_21 
REMARK       I    between atoms: C20_20  and  N7_63 
REMARK       I    between atoms: C21_21  and  C22_22 
REMARK       I    between atoms: C22_22  and  C23_23 
REMARK       I    between atoms: C22_22  and  N15_71 
REMARK       I    between atoms: C23_23  and  C24_24 
REMARK       I    between atoms: C24_24  and  C25_25 
REMARK       I    between atoms: C25_25  and  N8_64 
REMARK       I    between atoms: C26_26  and  C27_27 
REMARK       I    between atoms: C26_26  and  N8_64 
REMARK       I    between atoms: C27_27  and  C28_28 
REMARK       I    between atoms: C28_28  and  C29_29 
REMARK       I    between atoms: C28_28  and  N14_70 
REMARK       I    between atoms: C29_29  and  C30_30 
REMARK       I    between atoms: C30_30  and  C31_31 
REMARK       I    between atoms: C31_31  and  N9_65 
REMARK       I    between atoms: C32_32  and  C33_33 
REMARK       I    between atoms: C32_32  and  N9_65 
REMARK       I    between atoms: C33_33  and  C34_34 
REMARK       I    between atoms: C34_34  and  C35_35 
REMARK       I    between atoms: C34_34  and  N13_69 
REMARK       I    between atoms: C35_35  and  C36_36 
REMARK       I    between atoms: C36_36  and  C37_37 
REMARK       I    between atoms: C37_37  and  N10_66 
REMARK       I    between atoms: C38_38  and  C39_39 
REMARK       I    between atoms: C38_38  and  N10_66 
REMARK       I    between atoms: C39_39  and  C40_40 
REMARK       I    between atoms: C40_40  and  C41_41 
REMARK       I    between atoms: C40_40  and  N12_68 
REMARK       I    between atoms: C41_41  and  C42_42 
REMARK       I    between atoms: C42_42  and  C43_43 
REMARK       I    between atoms: C43_43  and  N11_67 
USER                              x       y       z     vdW  Elec       q    Type
USER                           _______ _______ _______ _____ _____    ______ ____
ROOT
ATOM      1  C1  UNL     1       4.366   5.667   7.267 -0.24 +0.00    +0.156 C 
ATOM      2  C2  UNL     1       4.521   6.600   6.071 +0.15 +0.00    +0.156 C 
ATOM      3  C3  UNL     1       5.899   6.388   5.433 +2.82 +0.00    +0.124 A 
ATOM      4  C4  UNL     1       6.369   4.924   5.356 -0.19 +0.00    +0.196 A 
ATOM      5  C5  UNL     1       5.365   3.883   5.863 -0.26 +0.00    +0.242 C 
ATOM      6  C6  UNL     1       6.340   5.745   3.289 -0.14 +0.00    +0.130 A 
ATOM      7  C7  UNL     1       6.167   4.924   0.982 -0.11 +0.00    +0.226 C 
ATOM      8  C8  UNL     1       7.152   3.727   1.126 -0.08 +0.00    +0.159 C 
ATOM      9  C9  UNL     1       6.723   2.580   0.183 -0.07 +0.00    +0.176 C 
ATOM     10  C10 UNL     1       5.256   2.217   0.495 -0.09 +0.00    +0.195 C 
ATOM     11  C11 UNL     1       4.396   3.476   0.240 -0.09 +0.00    +0.179 C 
ATOM     12  C12 UNL     1       2.905   3.208   0.486 -0.06 +0.00    +0.198 C 
ATOM     13  C13 UNL     1       5.568   0.655   2.270 +0.59 +0.00    +0.358 C 
ATOM     14  C14 UNL     1       9.202   4.643  -0.035 -0.09 +0.00    +0.220 C 
ATOM     15  C15 UNL     1      10.625   5.105   0.209 +0.08 +0.00    +0.138 C 
ATOM     16  C16 UNL     1      11.532   4.116   0.954+99.99 +0.00    +0.226 C 
ATOM     17  C17 UNL     1      11.539   2.685   0.387+99.99 +0.00    +0.037 C 
ATOM     18  C18 UNL     1      11.890   2.536  -1.101 +6.03 +0.00    +0.022 C 
ATOM     19  C19 UNL     1      13.311   2.966  -1.461+99.99 +0.00    +0.122 C 
ATOM     20  C20 UNL     1      14.264   5.244  -1.195+99.99 +0.00    +0.219 C 
ATOM     21  C21 UNL     1      14.248   6.633  -1.810 +6.57 +0.00    +0.138 C 
ATOM     22  C22 UNL     1      14.848   7.713  -0.888 +3.69 +0.00    +0.226 C 
ATOM     23  C23 UNL     1      14.585   9.114  -1.479+99.99 +0.00    +0.037 C 
ATOM     24  C24 UNL     1      14.764  10.294  -0.509+36.52 +0.00    +0.022 C 
ATOM     25  C25 UNL     1      16.200  10.765  -0.297+10.12 +0.00    +0.122 C 
ATOM     26  C26 UNL     1      18.146  10.259   1.117 -0.36 +0.00    +0.219 C 
ATOM     27  C27 UNL     1      18.868   9.116   1.809 +0.76 +0.00    +0.138 C 
ATOM     28  C28 UNL     1      20.272   9.510   2.295 -0.13 +0.00    +0.226 C 
ATOM     29  C29 UNL     1      21.252   9.657   1.110 -0.36 +0.00    +0.037 C 
ATOM     30  C30 UNL     1      22.671  10.106   1.480 +0.49 +0.00    +0.022 C 
ATOM     31  C31 UNL     1      22.723  11.515   2.070+99.99 +0.00    +0.122 C 
ATOM     32  C32 UNL     1      24.978  12.329   1.458+32.17 +0.00    +0.219 C 
ATOM     33  C33 UNL     1      26.375  12.570   2.001+99.99 +0.00    +0.138 C 
ATOM     34  C34 UNL     1      26.997  11.384   2.762+99.99 +0.00    +0.226 C 
ATOM     35  C35 UNL     1      27.039  10.109   1.892+38.00 +0.00    +0.037 C 
ATOM     36  C36 UNL     1      27.668   8.856   2.524 +0.27 +0.00    +0.022 C 
ATOM     37  C37 UNL     1      29.190   8.879   2.685+12.47 +0.00    +0.122 C 
ATOM     38  C38 UNL     1      29.415  10.004   4.889+99.99 +0.00    +0.219 C 
ATOM     39  C39 UNL     1      30.144  11.148   5.576+99.99 +0.00    +0.138 C 
ATOM     40  C40 UNL     1      29.733  11.420   7.035 +5.23 +0.00    +0.226 C 
ATOM     41  C41 UNL     1      30.176  10.287   7.982+99.99 +0.00    +0.037 C 
ATOM     42  C42 UNL     1      29.918  10.531   9.478+42.96 +0.00    +0.032 C 
ATOM     43  C43 UNL     1      30.522  11.809  10.064 +1.49 +0.00    +0.267 C 
ATOM     44  O1  UNL     1       5.319   2.716   5.472 +0.01 -0.00    -0.271 OA
ATOM     45  O2  UNL     1       4.790   4.563   1.094 -0.14 -0.00    -0.359 OA
ATOM     46  O3  UNL     1       2.373   2.280  -0.453 -0.02 -0.00    -0.398 OA
ATOM     47  O4  UNL     1       5.092   1.854   1.883 -0.12 -0.00    -0.293 OA
ATOM     48  O5  UNL     1       6.086  -0.180   1.548+79.80 -0.00    -0.239 OA
ATOM     49  O6  UNL     1       6.804   2.919  -1.209 -0.01 -0.00    -0.391 OA
ATOM     50  O7  UNL     1       8.650   4.789  -1.123 -0.08 -0.00    -0.274 OA
ATOM     51  O8  UNL     1      14.999   4.926  -0.268+99.99 -0.00    -0.274 OA
ATOM     52  O9  UNL     1      18.560  11.413   1.093 -0.35 -0.00    -0.274 OA
ATOM     53  O10 UNL     1      24.692  12.547   0.284 +8.09 -0.00    -0.274 OA
ATOM     54  O11 UNL     1      28.611   9.266   5.446+99.99 -0.00    -0.274 OA
ATOM     55  O12 UNL     1       3.460   6.344   5.138 -0.07 -0.00    -0.392 OA
ATOM     56  N1  UNL     1       4.535   4.283   6.877 -0.22 -0.00    -0.357 N 
ATOM     57  N2  UNL     1       6.669   4.665   3.919 -0.04 -0.00    -0.356 N 
ATOM     58  H2  UNL     1       7.054   3.811   3.516 +0.07 +0.00    +0.162 HD
ATOM     59  N3  UNL     1       5.873   6.792   4.021 +3.97 -0.00    -0.260 NA
ATOM     60  N4  UNL     1       6.390   5.994   1.960 -0.12 -0.00    -0.240 NA
ATOM     61  N5  UNL     1       5.437   0.522   3.607 -0.20 -0.00    -0.346 N 
ATOM     62  N6  UNL     1       8.573   4.095   1.041 -0.01 -0.00    -0.350 N 
ATOM     63  N7  UNL     1      13.385   4.374  -1.804+99.99 -0.00    -0.361 N 
ATOM     64  N8  UNL     1      16.954   9.869   0.545 -0.21 -0.00    -0.361 N 
ATOM     65  N9  UNL     1      24.079  11.896   2.402+99.99 -0.00    -0.361 N 
ATOM     66  N10 UNL     1      29.720   9.913   3.546+99.99 -0.00    -0.361 N 
ATOM     67  N11 UNL     1      31.972  11.845   9.930 +2.96 +0.00    +0.078 N 
ATOM     68  N12 UNL     1      28.296  11.708   7.122+51.63 +0.00    +0.083 N 
ATOM     69  N13 UNL     1      26.300  11.164   4.043+16.92 +0.00    +0.083 N 
ATOM     70  N14 UNL     1      20.746   8.476   3.229 -0.04 +0.00    +0.083 N 
ATOM     71  N15 UNL     1      16.291   7.503  -0.680 -0.24 +0.00    +0.083 N 
ATOM     72  N16 UNL     1      11.156   4.066   2.381+99.99 +0.00    +0.083 N 
ATOM     73  H58 UNL     1       2.414   2.694  -1.333 +0.03 +0.00    +0.209 HD
ATOM     74  H59 UNL     1       7.615   3.454  -1.344 +0.07 +0.00    +0.210 HD
ATOM     75  H60 UNL     1       3.862   6.409   4.247 +0.07 +0.00    +0.210 HD
ATOM     76  H61 UNL     1       3.834   3.599   7.141 +0.06 +0.00    +0.162 HD
ATOM     77  H62 UNL     1       6.350   7.664   3.817 +2.05 +0.00    +0.130 HD
ATOM     78  H63 UNL     1       5.776   6.760   1.715 +0.05 +0.00    +0.132 HD
ATOM     79  H64 UNL     1       5.930  -0.234   4.055 +0.05 +0.00    +0.161 HD
ATOM     80  H65 UNL     1       5.264   1.363   4.160 -0.09 +0.00    +0.161 HD
ATOM     81  H66 UNL     1       9.102   4.066   1.915 -0.04 +0.00    +0.163 HD
ATOM     82  H67 UNL     1      12.910   4.672  -2.647+51.26 +0.00    +0.162 HD
ATOM     83  H68 UNL     1      16.845   8.873   0.331 +0.11 +0.00    +0.162 HD
ATOM     84  H69 UNL     1      24.490  11.541   3.269 +0.15 +0.00    +0.162 HD
ATOM     85  H70 UNL     1      30.483  10.476   3.188+99.99 +0.00    +0.162 HD
ATOM     86  H71 UNL     1      32.332  12.677  10.399 +0.04 +0.00    +0.312 HD
ATOM     87  H72 UNL     1      32.234  11.942   8.951 -0.18 +0.00    +0.312 HD
ATOM     88  H73 UNL     1      28.042  11.923   8.085+13.67 +0.00    +0.313 HD
ATOM     89  H74 UNL     1      27.791  10.841   6.903 +5.41 +0.00    +0.313 HD
ATOM     90  H75 UNL     1      26.485  11.963   4.659+33.61 +0.00    +0.313 HD
ATOM     91  H76 UNL     1      26.751  10.382   4.534 +1.41 +0.00    +0.313 HD
ATOM     92  H77 UNL     1      20.958   7.619   2.720 +1.64 +0.00    +0.313 HD
ATOM     93  H78 UNL     1      21.622   8.774   3.658 +0.24 +0.00    +0.313 HD
ATOM     94  H79 UNL     1      16.401   6.563  -0.267 +0.58 +0.00    +0.313 HD
ATOM     95  H80 UNL     1      16.759   7.437  -1.586 +0.22 +0.00    +0.313 HD
ATOM     96  H81 UNL     1      11.750   3.383   2.858+42.57 +0.00    +0.313 HD
ATOM     97  H82 UNL     1      11.384   4.962   2.818 -0.34 +0.00    +0.313 HD
ENDROOT
TORSDOF 44
TER
