USER    Run = 1
USER    DPF = ligand_272_receptor.dpf
USER  
USER    Estimated Free Energy of Binding    =   -5.60 kcal/mol  [=(1)+(2)+(3)-(4)]
USER    Estimated Inhibition Constant, Ki   =   77.91 uM (micromolar)  [Temperature = 298.15 K]
USER    
USER    (1) Final Intermolecular Energy     =   -6.80 kcal/mol
USER        vdW + Hbond + desolv Energy     =   -6.80 kcal/mol
USER        Electrostatic Energy            =   +0.00 kcal/mol
USER    (2) Final Total Internal Energy     =   -2.29 kcal/mol
USER    (3) Torsional Free Energy           =   +1.19 kcal/mol
USER    (4) Unbound System's Energy  [=(2)] =   -2.29 kcal/mol
USER    
USER    
USER    NEWDPF move ligand_272.pdbqt
USER    NEWDPF about 0.000000 0.000000 0.000000
USER    NEWDPF tran0 14.974432 5.001369 3.051844
USER    NEWDPF quaternion0 -0.228771 0.138112 0.336261 -0.903060
USER    NEWDPF axisangle0 -0.532627 0.321553 0.782887 -50.873435
USER    NEWDPF quat0 -0.532627 0.321553 0.782887 -50.873435
USER    NEWDPF dihe0 180.00 -158.47 -73.42 45.58 34.65 -137.62 -166.07 -157.00 21.46 -154.02 85.34 -118.52 179.91 98.29 63.36 5.03 42.16 -171.08 12.47 180.00 132.22 
USER  keepresnum = 1 
USER  
REMARK  21 active torsions:
REMARK  status: ('A' for Active; 'I' for Inactive)
REMARK    1  A    between atoms: C2_2  and  O1_43 
REMARK    2  A    between atoms: C3_3  and  N1_56 
REMARK    3  A    between atoms: C6_6  and  C8_8 
REMARK    4  A    between atoms: C7_7  and  O2_44 
REMARK    5  A    between atoms: C8_8  and  O4_46 
REMARK    6  A    between atoms: C9_9  and  C10_10 
REMARK       I    between atoms: C9_9  and  N1_56 
REMARK    7  A    between atoms: C11_11  and  O13_55 
REMARK    8  A    between atoms: C12_12  and  O12_54 
REMARK    9  A    between atoms: C13_13  and  N2_57 
REMARK   10  A    between atoms: C16_16  and  C17_17 
REMARK       I    between atoms: C16_16  and  N2_57 
REMARK   11  A    between atoms: C19_19  and  N4_60 
REMARK   12  A    between atoms: C22_22  and  C23_23 
REMARK       I    between atoms: C22_22  and  N4_60 
REMARK   13  A    between atoms: C23_23  and  C24_24 
REMARK   14  A    between atoms: C23_23  and  N8_66 
REMARK   15  A    between atoms: C24_24  and  C25_25 
REMARK   16  A    between atoms: C27_27  and  C28_28 
REMARK       I    between atoms: C27_27  and  N8_66 
REMARK   17  A    between atoms: C31_31  and  N9_67 
REMARK   18  A    between atoms: C34_34  and  C35_35 
REMARK       I    between atoms: C34_34  and  N9_67 
REMARK   19  A    between atoms: C35_35  and  O10_52 
REMARK   20  A    between atoms: C36_36  and  O10_52 
REMARK   21  A    between atoms: C39_39  and  O11_53 
USER                              x       y       z     vdW  Elec       q    Type
USER                           _______ _______ _______ _____ _____    ______ ____
ROOT
ATOM      1  C17 UNL     1      14.881   8.369   4.211 -0.40 +0.00    +0.101 A 
ATOM      2  C18 UNL     1      13.056   7.366   3.223 -0.34 +0.00    +0.118 A 
ATOM      3  C19 UNL     1      12.250   7.574   4.345 -0.38 +0.00    +0.050 A 
ATOM      4  C20 UNL     1      12.827   8.227   5.432 -0.29 +0.00    +0.033 A 
ATOM      5  C21 UNL     1      14.161   8.631   5.370 +0.09 +0.00    +0.037 A 
ATOM      6  N3  UNL     1      14.354   7.744   3.119 -0.17 -0.00    -0.359 N 
ATOM      7  H3  UNL     1      14.903   7.572   2.276 -0.47 +0.00    +0.165 HD
ENDROOT
BRANCH   3   8
ATOM      8  N4  UNL     1      10.918   7.121   4.302 -0.15 -0.00    -0.324 N 
ATOM      9  C22 UNL     1       9.957   7.391   3.342 -0.28 +0.00    +0.245 C 
ATOM     10  O7  UNL     1      10.097   8.127   2.369 -0.00 -0.00    -0.271 OA
ATOM     11  H34 UNL     1      10.582   6.608   5.122 +0.11 +0.00    +0.169 HD
BRANCH   9  12
ATOM     12  C23 UNL     1       8.604   6.710   3.661 -0.20 +0.00    +0.182 C 
BRANCH  12  13
ATOM     13  C24 UNL     1       8.542   6.263   5.126 +0.46 +0.00    +0.095 C 
BRANCH  13  14
ATOM     14  C25 UNL     1       9.174   4.935   5.345 -0.28 +0.00    +0.046 A 
ATOM     15  C26 UNL     1      10.436   4.625   5.890 -0.28 +0.00    +0.135 A 
ATOM     16  N7  UNL     1      10.612   3.300   5.902 -0.29 -0.00    -0.296 N 
ATOM     17  N6  UNL     1       9.456   2.873   5.370 -0.19 -0.00    -0.243 N 
ATOM     18  H7  UNL     1      11.412   2.758   6.229 +0.13 +0.00    +0.187 HD
ATOM     19  N5  UNL     1       8.543   3.798   5.022 -0.18 -0.00    -0.289 N 
ATOM     20  H35 UNL     1       9.276   1.881   5.237 -0.15 +0.00    +0.208 HD
ATOM     21  H5  UNL     1       7.614   3.668   4.620 +0.05 +0.00    +0.188 HD
ENDBRANCH  13  14
ENDBRANCH  12  13
BRANCH  12  22
ATOM     22  N8  UNL     1       8.451   5.557   2.757 -0.04 -0.00    -0.343 N 
ATOM     23  C27 UNL     1       8.874   5.621   1.446 -0.10 +0.00    +0.252 C 
ATOM     24  O8  UNL     1       9.403   6.624   0.976 -0.18 -0.00    -0.268 OA
ATOM     25  H36 UNL     1       8.361   4.642   3.184 +0.08 +0.00    +0.163 HD
BRANCH  23  26
ATOM     26  C28 UNL     1       8.739   4.378   0.639 -0.12 +0.00    +0.032 A 
ATOM     27  C29 UNL     1       7.705   3.462   0.854 -0.12 +0.00    +0.019 A 
ATOM     28  C30 UNL     1       7.616   2.303   0.074 -0.11 +0.00    +0.030 A 
ATOM     29  C31 UNL     1       8.549   2.047  -0.934 -0.11 +0.00    +0.034 A 
ATOM     30  C32 UNL     1       9.573   2.977  -1.156 -0.16 +0.00    +0.030 A 
ATOM     31  C33 UNL     1       9.666   4.137  -0.379 -0.12 +0.00    +0.019 A 
BRANCH  29  32
ATOM     32  N9  UNL     1       8.530   0.903  -1.758 -0.03 -0.00    -0.325 N 
ATOM     33  C34 UNL     1       9.422   0.580  -2.777 +0.08 +0.00    +0.246 C 
ATOM     34  O9  UNL     1      10.391   1.247  -3.120 +0.24 -0.00    -0.271 OA
ATOM     35  H37 UNL     1       7.785   0.241  -1.576 +0.07 +0.00    +0.169 HD
BRANCH  33  36
ATOM     36  C35 UNL     1       9.052  -0.750  -3.456 -0.15 +0.00    +0.278 C 
BRANCH  36  37
ATOM     37  O10 UNL     1       7.735  -0.850  -3.969 -0.58 -0.00    -0.342 OA
BRANCH  37  38
ATOM     38  C36 UNL     1       6.922   0.244  -3.867 +0.04 +0.00    +0.069 A 
ATOM     39  C37 UNL     1       7.324   1.580  -3.917 +0.28 +0.00    +0.039 A 
ATOM     40  C38 UNL     1       6.378   2.602  -3.797 -0.13 +0.00    +0.039 A 
ATOM     41  C39 UNL     1       5.034   2.287  -3.635 -0.07 +0.00    +0.065 A 
ATOM     42  C40 UNL     1       4.616   0.964  -3.594 -0.05 +0.00    +0.039 A 
ATOM     43  C41 UNL     1       5.564  -0.055  -3.713 -0.11 +0.00    +0.039 A 
BRANCH  41  44
ATOM     44  O11 UNL     1       4.149   3.317  -3.523 -0.06 -0.00    -0.361 OA
ATOM     45  H30 UNL     1       4.644   4.153  -3.545 -0.07 +0.00    +0.217 HD
ENDBRANCH  41  44
ENDBRANCH  37  38
ENDBRANCH  36  37
ENDBRANCH  33  36
ENDBRANCH  29  32
ENDBRANCH  23  26
ENDBRANCH  12  22
ENDBRANCH   9  12
ENDBRANCH   3   8
BRANCH   1  46
ATOM     46  C16 UNL     1      16.318   8.791   4.100 -0.32 +0.00    +0.272 C 
ATOM     47  O6  UNL     1      16.881   9.278   5.073 +0.42 -0.00    -0.266 OA
ATOM     48  N2  UNL     1      16.813   8.646   2.818 -0.27 -0.00    -0.319 N 
ATOM     49  H33 UNL     1      16.083   8.484   2.128 +0.05 +0.00    +0.169 HD
BRANCH  48  50
ATOM     50  C13 UNL     1      18.119   8.898   2.351 -0.35 +0.00    +0.071 A 
ATOM     51  C12 UNL     1      18.446   9.491   1.117 -0.08 +0.00    +0.129 A 
ATOM     52  C11 UNL     1      19.800   9.689   0.774 +0.34 +0.00    +0.117 A 
ATOM     53  C10 UNL     1      20.827   9.311   1.661 +0.49 +0.00    +0.068 A 
ATOM     54  C15 UNL     1      20.492   8.724   2.885 +0.57 +0.00    +0.022 A 
ATOM     55  C14 UNL     1      19.150   8.541   3.231 -0.28 +0.00    +0.034 A 
BRANCH  51  56
ATOM     56  O12 UNL     1      17.437  10.034   0.360 -0.26 -0.00    -0.351 OA
ATOM     57  C42 UNL     1      16.945  11.269   0.880 -0.40 +0.00    +0.210 C 
ENDBRANCH  51  56
BRANCH  52  58
ATOM     58  O13 UNL     1      20.095  10.301  -0.423 +0.66 -0.00    -0.357 OA
ATOM     59  H31 UNL     1      20.594  11.126  -0.234 +0.18 +0.00    +0.217 HD
ENDBRANCH  52  58
BRANCH  53  60
ATOM     60  C9  UNL     1      22.253   9.545   1.286 -0.30 +0.00    +0.259 C 
ATOM     61  O5  UNL     1      22.518  10.574   0.670 +0.20 -0.00    -0.267 OA
ATOM     62  N1  UNL     1      23.158   8.601   1.722 -0.20 -0.00    -0.320 N 
ATOM     63  H32 UNL     1      22.843   7.878   2.363 +0.12 +0.00    +0.169 HD
BRANCH  62  64
ATOM     64  C3  UNL     1      24.549   8.541   1.475 -0.39 +0.00    +0.071 A 
ATOM     65  C2  UNL     1      24.957   7.893   0.287 -0.31 +0.00    +0.129 A 
ATOM     66  C7  UNL     1      26.321   7.836  -0.047 -0.25 +0.00    +0.118 A 
ATOM     67  C6  UNL     1      27.279   8.388   0.825 -0.34 +0.00    +0.073 A 
ATOM     68  C5  UNL     1      26.864   9.007   2.010 -0.23 +0.00    +0.023 A 
ATOM     69  C4  UNL     1      25.506   9.089   2.329 -0.53 +0.00    +0.034 A 
BRANCH  65  70
ATOM     70  O1  UNL     1      23.921   7.405  -0.483 -0.27 -0.00    -0.351 OA
ATOM     71  C1  UNL     1      23.655   6.012  -0.354 -0.40 +0.00    +0.210 C 
ENDBRANCH  65  70
BRANCH  66  72
ATOM     72  O2  UNL     1      26.690   7.262  -1.240 -0.15 -0.00    -0.357 OA
ATOM     73  H28 UNL     1      27.559   6.817  -1.138 +0.11 +0.00    +0.217 HD
ENDBRANCH  66  72
BRANCH  67  74
ATOM     74  C8  UNL     1      28.716   8.321   0.474 -0.23 +0.00    +0.179 C 
ATOM     75  O3  UNL     1      29.623   8.530   1.262 +0.18 -0.00    -0.646 OA
BRANCH  74  76
ATOM     76  O4  UNL     1      28.951   8.007  -0.810 +0.08 -0.00    -0.773 OA
ATOM     77  H29 UNL     1      28.298   8.528  -1.322 +0.11 +0.00    +0.167 HD
ENDBRANCH  74  76
ENDBRANCH  67  74
ENDBRANCH  62  64
ENDBRANCH  53  60
ENDBRANCH  48  50
ENDBRANCH   1  46
TORSDOF 21
TER
