USER    Run = 1
USER    DPF = ligand_157_receptor.dpf
USER  
USER    Estimated Free Energy of Binding    =  +1.93e+004 kcal/mol  [=(1)+(2)+(3)-(4)]
USER    
USER    (1) Final Intermolecular Energy     =  +1.93e+004 kcal/mol
USER        vdW + Hbond + desolv Energy     =  +1.93e+004 kcal/mol
USER        Electrostatic Energy            =   +0.00 kcal/mol
USER    (2) Final Total Internal Energy     =   +0.00 kcal/mol
USER    (3) Torsional Free Energy           =   +1.19 kcal/mol
USER    (4) Unbound System's Energy  [=(2)] =   +0.00 kcal/mol
USER    
USER    
USER    NEWDPF move ligand_157.pdbqt
USER    NEWDPF about 0.000000 0.000000 0.000000
USER    NEWDPF tran0 18.100947 8.243306 1.761581
USER    NEWDPF quaternion0 0.695508 0.039125 -0.055427 -0.715309
USER    NEWDPF axisangle0 0.995276 0.055988 -0.079317 -88.663015
USER    NEWDPF quat0 0.995276 0.055988 -0.079317 -88.663015
USER  keepresnum = 1 
USER  
REMARK  0 active torsions:
REMARK  status: ('A' for Active; 'I' for Inactive)
REMARK       I    between atoms: C2_2  and  C3_3 
REMARK       I    between atoms: C3_3  and  C5_5 
REMARK       I    between atoms: C5_5  and  C6_6 
REMARK       I    between atoms: C5_5  and  N9_80 
REMARK       I    between atoms: C6_6  and  N1_72 
REMARK       I    between atoms: C7_7  and  C8_8 
REMARK       I    between atoms: C7_7  and  C12_12 
REMARK       I    between atoms: C7_7  and  N1_72 
REMARK       I    between atoms: C8_8  and  C10_10 
REMARK       I    between atoms: C12_12  and  N2_73 
REMARK       I    between atoms: C13_13  and  C14_14 
REMARK       I    between atoms: C13_13  and  C18_18 
REMARK       I    between atoms: C13_13  and  N2_73 
REMARK       I    between atoms: C14_14  and  C15_15 
REMARK       I    between atoms: C18_18  and  N3_74 
REMARK       I    between atoms: C19_19  and  C20_20 
REMARK       I    between atoms: C19_19  and  N3_74 
REMARK       I    between atoms: C20_20  and  N4_75 
REMARK       I    between atoms: C21_21  and  C22_22 
REMARK       I    between atoms: C21_21  and  C26_26 
REMARK       I    between atoms: C21_21  and  N4_75 
REMARK       I    between atoms: C22_22  and  C23_23 
REMARK       I    between atoms: C26_26  and  N5_76 
REMARK       I    between atoms: C27_27  and  C28_28 
REMARK       I    between atoms: C27_27  and  C30_30 
REMARK       I    between atoms: C27_27  and  N5_76 
REMARK       I    between atoms: C28_28  and  C29_29 
REMARK       I    between atoms: C29_29  and  N6_77 
REMARK       I    between atoms: C30_30  and  N7_78 
REMARK       I    between atoms: C31_31  and  C32_32 
REMARK       I    between atoms: C31_31  and  C36_36 
REMARK       I    between atoms: C31_31  and  N7_78 
REMARK       I    between atoms: C32_32  and  C33_33 
REMARK       I    between atoms: C33_33  and  C34_34 
REMARK       I    between atoms: C34_34  and  C35_35 
REMARK       I    between atoms: C35_35  and  N8_79 
REMARK       I    between atoms: C36_36  and  O9_68 
REMARK       I    between atoms: C37_37  and  C38_38 
REMARK       I    between atoms: C37_37  and  N9_80 
REMARK       I    between atoms: C38_38  and  C39_39 
REMARK       I    between atoms: C38_38  and  N11_82 
REMARK       I    between atoms: C39_39  and  C40_40 
REMARK       I    between atoms: C48_48  and  C49_49 
REMARK       I    between atoms: C48_48  and  N11_82 
REMARK       I    between atoms: C49_49  and  C50_50 
REMARK       I    between atoms: C49_49  and  N15_87 
REMARK       I    between atoms: C50_50  and  C51_51 
REMARK       I    between atoms: C51_51  and  C52_52 
REMARK       I    between atoms: C52_52  and  N12_83 
REMARK       I    between atoms: C53_53  and  N13_85 
REMARK       I    between atoms: C53_53  and  N14_86 
REMARK       I    between atoms: C54_54  and  C55_55 
REMARK       I    between atoms: C54_54  and  N15_87 
REMARK       I    between atoms: C55_55  and  C56_56 
REMARK       I    between atoms: C55_55  and  N17_89 
REMARK       I    between atoms: C56_56  and  C57_57 
REMARK       I    between atoms: C57_57  and  C58_58 
REMARK       I    between atoms: C58_58  and  C59_59 
REMARK       I    between atoms: C59_59  and  N16_88 
USER                              x       y       z     vdW  Elec       q    Type
USER                           _______ _______ _______ _____ _____    ______ ____
ROOT
ATOM      1  C1  UNL     1      14.373   5.452   0.825+99.99 +0.00    +0.005 C 
ATOM      2  C2  UNL     1      15.713   5.805   0.199+99.99 +0.00    +0.002 C 
ATOM      3  C3  UNL     1      15.938   7.315  -0.058 +3.37 +0.00    +0.013 C 
ATOM      4  C4  UNL     1      17.105   7.445  -1.055 +4.65 +0.00    +0.012 C 
ATOM      5  C5  UNL     1      16.252   8.115   1.230 +0.08 +0.00    +0.180 C 
ATOM      6  C6  UNL     1      16.492   9.619   0.945 -0.37 +0.00    +0.241 C 
ATOM      7  C7  UNL     1      17.399  11.711   1.953 -0.51 +0.00    +0.180 C 
ATOM      8  C8  UNL     1      17.512  12.180   3.427 +3.22 +0.00    +0.013 C 
ATOM      9  C9  UNL     1      18.868  11.820   4.051+88.02 +0.00    +0.012 C 
ATOM     10  C10 UNL     1      17.230  13.680   3.649+20.97 +0.00    +0.002 C 
ATOM     11  C11 UNL     1      15.846  14.123   3.197+99.99 +0.00    +0.005 C 
ATOM     12  C12 UNL     1      18.563  12.225   1.061 -0.54 +0.00    +0.241 C 
ATOM     13  C13 UNL     1      20.479  11.452  -0.354 -0.04 +0.00    +0.177 C 
ATOM     14  C14 UNL     1      20.412  12.578  -1.401+11.78 +0.00    +0.038 C 
ATOM     15  C15 UNL     1      19.204  12.511  -2.361+99.99 -0.00    -0.020 C 
ATOM     16  C16 UNL     1      19.169  11.210  -3.164+99.99 +0.00    +0.009 C 
ATOM     17  C17 UNL     1      19.237  13.708  -3.316+99.99 +0.00    +0.009 C 
ATOM     18  C18 UNL     1      21.643  11.589   0.664+11.27 +0.00    +0.240 C 
ATOM     19  C19 UNL     1      24.054  11.923   0.946+99.99 +0.00    +0.225 C 
ATOM     20  C20 UNL     1      24.691  10.541   0.777+23.05 +0.00    +0.236 C 
ATOM     21  C21 UNL     1      26.227   8.901   1.845 -0.43 +0.00    +0.177 C 
ATOM     22  C22 UNL     1      25.448   7.610   1.516 -0.46 +0.00    +0.038 C 
ATOM     23  C23 UNL     1      24.319   7.192   2.487 +2.33 -0.00    -0.020 C 
ATOM     24  C24 UNL     1      24.793   7.094   3.936+27.60 +0.00    +0.009 C 
ATOM     25  C25 UNL     1      23.065   8.060   2.393 -0.26 +0.00    +0.009 C 
ATOM     26  C26 UNL     1      27.458   9.180   0.930 +0.69 +0.00    +0.241 C 
ATOM     27  C27 UNL     1      29.410   8.224  -0.283 -0.19 +0.00    +0.185 C 
ATOM     28  C28 UNL     1      30.617   8.710   0.520 -0.13 +0.00    +0.137 C 
ATOM     29  C29 UNL     1      31.189   9.960  -0.103 -0.15 +0.00    +0.217 C 
ATOM     30  C30 UNL     1      29.665   6.868  -0.976 -0.12 +0.00    +0.241 C 
ATOM     31  C31 UNL     1      28.520   5.071  -2.271 -0.14 +0.00    +0.182 C 
ATOM     32  C32 UNL     1      28.240   3.780  -1.492 -0.26 +0.00    +0.036 C 
ATOM     33  C33 UNL     1      29.350   3.428  -0.497 -0.27 +0.00    +0.004 C 
ATOM     34  C34 UNL     1      29.077   2.087   0.189 -0.25 +0.00    +0.030 C 
ATOM     35  C35 UNL     1      30.173   1.749   1.200 -0.18 +0.00    +0.267 C 
ATOM     36  C36 UNL     1      27.455   5.241  -3.363+56.10 +0.00    +0.163 C 
ATOM     37  C37 UNL     1      15.373   8.340   3.533 -0.38 +0.00    +0.241 C 
ATOM     38  C38 UNL     1      14.092   8.637   4.342 -0.19 +0.00    +0.181 C 
ATOM     39  C39 UNL     1      14.339   8.647   5.858 +2.63 +0.00    +0.075 C 
ATOM     40  C40 UNL     1      15.005   9.899   6.348+78.98 -0.00    -0.028 A 
ATOM     41  C41 UNL     1      16.309  10.016   6.790+99.99 +0.00    +0.096 A 
ATOM     42  C42 UNL     1      15.395  12.066   6.943+38.52 +0.00    +0.042 A 
ATOM     43  C43 UNL     1      15.164  13.430   7.157+41.49 +0.00    +0.030 A 
ATOM     44  C44 UNL     1      13.891  13.926   6.859+99.99 +0.00    +0.002 A 
ATOM     45  C45 UNL     1      12.891  13.089   6.373+99.99 +0.00    +0.001 A 
ATOM     46  C46 UNL     1      13.138  11.726   6.167+99.99 +0.00    +0.014 A 
ATOM     47  C47 UNL     1      14.416  11.201   6.452+99.99 -0.00    -0.002 A 
ATOM     48  C48 UNL     1      11.731   7.901   4.105 -0.30 +0.00    +0.241 C 
ATOM     49  C49 UNL     1      10.815   6.717   3.733 -0.28 +0.00    +0.176 C 
ATOM     50  C50 UNL     1      10.724   6.599   2.205 -0.36 +0.00    +0.036 C 
ATOM     51  C51 UNL     1      10.222   5.225   1.745 +0.45 +0.00    +0.022 C 
ATOM     52  C52 UNL     1      10.072   5.138   0.227 -0.12 +0.00    +0.121 C 
ATOM     53  C53 UNL     1       7.804   5.605  -0.283 -0.14 +0.00    +0.121 C 
ATOM     54  C54 UNL     1       8.674   5.951   4.767 -0.08 +0.00    +0.251 C 
ATOM     55  C55 UNL     1       7.305   6.481   5.256 +4.57 +0.00    +0.308 C 
ATOM     56  C56 UNL     1       6.195   5.424   5.134 -0.26 +0.00    +0.045 C 
ATOM     57  C57 UNL     1       5.842   5.040   3.688 -0.21 +0.00    +0.004 C 
ATOM     58  C58 UNL     1       4.897   3.836   3.597 -0.17 +0.00    +0.030 C 
ATOM     59  C59 UNL     1       3.510   4.111   4.178 -0.07 +0.00    +0.267 C 
ATOM     60  O1  UNL     1      15.955  10.220   0.019 +0.25 -0.00    -0.271 OA
ATOM     61  O2  UNL     1      18.848  13.414   0.964 -0.59 -0.00    -0.271 OA
ATOM     62  O3  UNL     1      21.532  11.261   1.847 +4.84 -0.00    -0.271 OA
ATOM     63  O4  UNL     1      24.587   9.894  -0.265+36.51 -0.00    -0.272 OA
ATOM     64  O5  UNL     1      27.811  10.323   0.626+29.40 -0.00    -0.271 OA
ATOM     65  O6  UNL     1      32.248   9.986  -0.718 -0.22 -0.00    -0.274 OA
ATOM     66  O7  UNL     1      30.777   6.423  -1.229 -0.04 -0.00    -0.271 OA
ATOM     67  O8  UNL     1      27.224   4.468  -4.279+99.99 -0.00    -0.648 OA
ATOM     68  O9  UNL     1      26.712   6.364  -3.220+71.96 -0.00    -0.775 OA
ATOM     69  O10 UNL     1      16.517   8.413   3.976 -0.43 -0.00    -0.271 OA
ATOM     70  O11 UNL     1      11.303   8.997   4.457 +0.30 -0.00    -0.271 OA
ATOM     71  O12 UNL     1       8.993   4.765   4.795 -0.15 -0.00    -0.271 OA
ATOM     72  N1  UNL     1      17.277  10.241   1.900 -0.17 -0.00    -0.346 N 
ATOM     73  N2  UNL     1      19.239  11.228   0.383 -0.28 -0.00    -0.346 N 
ATOM     74  N3  UNL     1      22.853  11.993   0.135+19.54 -0.00    -0.351 N 
ATOM     75  N4  UNL     1      25.413  10.113   1.874 -0.17 -0.00    -0.346 N 
ATOM     76  N5  UNL     1      28.210   8.090   0.560 -0.16 -0.00    -0.346 N 
ATOM     77  N6  UNL     1      30.446  11.089   0.070 +1.64 -0.00    -0.370 N 
ATOM     78  N7  UNL     1      28.503   6.239  -1.385 -0.10 -0.00    -0.345 N 
ATOM     79  N8  UNL     1      29.909   0.471   1.851+10.68 +0.00    +0.078 N 
ATOM     80  N9  UNL     1      15.141   8.109   2.184 +0.27 -0.00    -0.346 N 
ATOM     81  N10 UNL     1      16.530  11.318   7.145 +2.76 -0.00    -0.365 N 
ATOM     82  N11 UNL     1      13.079   7.644   3.960 -0.22 -0.00    -0.346 N 
ATOM     83  N12 UNL     1       9.008   6.030  -0.225 -0.04 -0.00    -0.372 N 
ATOM     84  H12 UNL     1       9.225   6.991  -0.493 +0.09 +0.00    +0.161 HD
ATOM     85  N13 UNL     1       6.825   6.424  -0.723 +2.07 -0.00    -0.279 NA
ATOM     86  N14 UNL     1       7.284   4.400   0.038 -0.03 -0.00    -0.279 NA
ATOM     87  N15 UNL     1       9.512   6.945   4.329 -0.09 -0.00    -0.346 N 
ATOM     88  N16 UNL     1       2.629   2.964   3.991 -0.08 +0.00    +0.078 N 
ATOM     89  N17 UNL     1       6.965   7.747   4.566+99.99 +0.00    +0.092 N 
ATOM     90  H79 UNL     1      26.095   6.337  -3.985+90.12 +0.00    +0.167 HD
ATOM     91  H80 UNL     1      17.406   9.730   2.776 +0.14 +0.00    +0.163 HD
ATOM     92  H81 UNL     1      19.113  10.311   0.793 +0.13 +0.00    +0.163 HD
ATOM     93  H82 UNL     1      22.995  11.853  -0.858 +0.09 +0.00    +0.163 HD
ATOM     94  H83 UNL     1      25.676  10.820   2.549 +0.12 +0.00    +0.163 HD
ATOM     95  H84 UNL     1      28.050   7.186   0.985 +0.10 +0.00    +0.163 HD
ATOM     96  H85 UNL     1      30.754  11.918  -0.424 +0.36 +0.00    +0.159 HD
ATOM     97  H86 UNL     1      29.455  11.035   0.309 +0.81 +0.00    +0.159 HD
ATOM     98  H87 UNL     1      27.666   6.818  -1.443 +0.07 +0.00    +0.163 HD
ATOM     99  H88 UNL     1      28.987   0.487   2.283 -0.20 +0.00    +0.312 HD
ATOM    100  H89 UNL     1      29.879  -0.268   1.150+99.99 +0.00    +0.312 HD
ATOM    101  H90 UNL     1      14.235   8.408   1.833 -0.17 +0.00    +0.163 HD
ATOM    102  H91 UNL     1      17.403  11.687   7.495 +0.11 +0.00    +0.165 HD
ATOM    103  H92 UNL     1      13.384   6.684   3.842 +0.06 +0.00    +0.163 HD
ATOM    104  H93 UNL     1       7.242   7.269  -1.105 -0.36 +0.00    +0.126 HD
ATOM    105  H94 UNL     1       6.246   5.978  -1.424 +7.94 +0.00    +0.126 HD
ATOM    106  H95 UNL     1       6.359   4.479   0.442 +0.04 +0.00    +0.126 HD
ATOM    107  H96 UNL     1       7.882   3.832   0.625 +0.06 +0.00    +0.126 HD
ATOM    108  H97 UNL     1       9.139   7.895   4.347 +0.09 +0.00    +0.163 HD
ATOM    109  H98 UNL     1       2.562   2.736   3.000 +0.08 +0.00    +0.312 HD
ATOM    110  H99 UNL     1       3.032   2.144   4.442 +0.11 +0.00    +0.312 HD
ATOM    111  HA0 UNL     1       6.045   8.057   4.875+99.99 +0.00    +0.313 HD
ATOM    112  HA1 UNL     1       6.880   7.569   3.564 +0.28 +0.00    +0.313 HD
ENDROOT
TORSDOF 47
TER
