USER    Run = 1
USER    DPF = ligand_364_receptor.dpf
USER  
USER    Estimated Free Energy of Binding    =  +1.82e+004 kcal/mol  [=(1)+(2)+(3)-(4)]
USER    
USER    (1) Final Intermolecular Energy     =  +1.82e+004 kcal/mol
USER        vdW + Hbond + desolv Energy     =  +1.82e+004 kcal/mol
USER        Electrostatic Energy            =   +0.00 kcal/mol
USER    (2) Final Total Internal Energy     =   +0.00 kcal/mol
USER    (3) Torsional Free Energy           =   +1.19 kcal/mol
USER    (4) Unbound System's Energy  [=(2)] =   +0.00 kcal/mol
USER    
USER    
USER    NEWDPF move ligand_364.pdbqt
USER    NEWDPF about 0.000000 0.000000 0.000000
USER    NEWDPF tran0 17.133520 7.189001 2.780650
USER    NEWDPF quaternion0 -0.438368 0.041991 0.143548 -0.886264
USER    NEWDPF axisangle0 -0.946431 0.090658 0.309918 -55.185047
USER    NEWDPF quat0 -0.946431 0.090658 0.309918 -55.185047
USER  keepresnum = 1 
USER  
REMARK  0 active torsions:
REMARK  status: ('A' for Active; 'I' for Inactive)
REMARK       I    between atoms: C2_2  and  C3_3 
REMARK       I    between atoms: C3_3  and  C5_5 
REMARK       I    between atoms: C5_5  and  C6_6 
REMARK       I    between atoms: C5_5  and  N8_78 
REMARK       I    between atoms: C6_6  and  N1_70 
REMARK       I    between atoms: C7_7  and  C8_8 
REMARK       I    between atoms: C7_7  and  C10_10 
REMARK       I    between atoms: C7_7  and  N1_70 
REMARK       I    between atoms: C8_8  and  C9_9 
REMARK       I    between atoms: C9_9  and  O3_56 
REMARK       I    between atoms: C10_10  and  N2_71 
REMARK       I    between atoms: C11_11  and  C12_12 
REMARK       I    between atoms: C11_11  and  C16_16 
REMARK       I    between atoms: C11_11  and  N2_71 
REMARK       I    between atoms: C12_12  and  C13_13 
REMARK       I    between atoms: C13_13  and  C14_14 
REMARK       I    between atoms: C14_14  and  N3_72 
REMARK       I    between atoms: C15_15  and  N4_74 
REMARK       I    between atoms: C15_15  and  N5_75 
REMARK       I    between atoms: C16_16  and  N6_76 
REMARK       I    between atoms: C17_17  and  C18_18 
REMARK       I    between atoms: C17_17  and  C22_22 
REMARK       I    between atoms: C17_17  and  N6_76 
REMARK       I    between atoms: C18_18  and  C20_20 
REMARK       I    between atoms: C22_22  and  N7_77 
REMARK       I    between atoms: C23_23  and  C24_24 
REMARK       I    between atoms: C23_23  and  C25_25 
REMARK       I    between atoms: C23_23  and  N7_77 
REMARK       I    between atoms: C24_24  and  S1_90 
REMARK       I    between atoms: C26_26  and  C27_27 
REMARK       I    between atoms: C26_26  and  N8_78 
REMARK       I    between atoms: C27_27  and  C28_28 
REMARK       I    between atoms: C27_27  and  N12_83 
REMARK       I    between atoms: C28_28  and  C29_29 
REMARK       I    between atoms: C29_29  and  C30_30 
REMARK       I    between atoms: C30_30  and  N9_79 
REMARK       I    between atoms: C31_31  and  N10_81 
REMARK       I    between atoms: C31_31  and  N11_82 
REMARK       I    between atoms: C32_32  and  C33_33 
REMARK       I    between atoms: C32_32  and  N12_83 
REMARK       I    between atoms: C33_33  and  N13_84 
REMARK       I    between atoms: C34_34  and  C35_35 
REMARK       I    between atoms: C34_34  and  N13_84 
REMARK       I    between atoms: C35_35  and  N14_85 
REMARK       I    between atoms: C36_36  and  C37_37 
REMARK       I    between atoms: C36_36  and  N14_85 
REMARK       I    between atoms: C37_37  and  C38_38 
REMARK       I    between atoms: C37_37  and  N15_86 
REMARK       I    between atoms: C38_38  and  C39_39 
REMARK       I    between atoms: C45_45  and  C46_46 
REMARK       I    between atoms: C45_45  and  N15_86 
REMARK       I    between atoms: C46_46  and  C47_47 
REMARK       I    between atoms: C46_46  and  N16_87 
REMARK       I    between atoms: C47_47  and  S2_91 
REMARK       I    between atoms: C48_48  and  C49_49 
REMARK       I    between atoms: C48_48  and  N16_87 
REMARK       I    between atoms: C49_49  and  C50_50 
REMARK       I    between atoms: C49_49  and  N17_88 
REMARK       I    between atoms: C50_50  and  O14_67 
REMARK       I    between atoms: C51_51  and  C52_52 
REMARK       I    between atoms: C51_51  and  N17_88 
REMARK       I    between atoms: C52_52  and  C53_53 
REMARK       I    between atoms: C52_52  and  N18_89 
REMARK       I    between atoms: C53_53  and  O16_69 
USER                              x       y       z     vdW  Elec       q    Type
USER                           _______ _______ _______ _____ _____    ______ ____
ROOT
ATOM      1  C1  UNL     1      14.642   8.938   7.014+99.99 +0.00    +0.005 C 
ATOM      2  C2  UNL     1      14.851  10.213   6.209+64.51 +0.00    +0.002 C 
ATOM      3  C3  UNL     1      15.866  10.073   5.054+11.03 +0.00    +0.013 C 
ATOM      4  C4  UNL     1      16.062  11.439   4.377+99.99 +0.00    +0.012 C 
ATOM      5  C5  UNL     1      15.546   8.931   4.056 -0.34 +0.00    +0.180 C 
ATOM      6  C6  UNL     1      14.224   9.092   3.257 +0.66 +0.00    +0.241 C 
ATOM      7  C7  UNL     1      12.674   7.910   1.741+25.97 +0.00    +0.186 C 
ATOM      8  C8  UNL     1      12.797   7.132   0.431 +1.06 +0.00    +0.144 C 
ATOM      9  C9  UNL     1      11.433   6.944  -0.155 -0.18 +0.00    +0.141 C 
ATOM     10  C10 UNL     1      11.746   7.158   2.730 -0.27 +0.00    +0.241 C 
ATOM     11  C11 UNL     1       9.387   6.622   3.251 -0.25 +0.00    +0.176 C 
ATOM     12  C12 UNL     1       8.171   7.474   3.646 +0.36 +0.00    +0.036 C 
ATOM     13  C13 UNL     1       8.047   7.746   5.148+99.99 +0.00    +0.022 C 
ATOM     14  C14 UNL     1       8.099   6.521   6.060+24.37 +0.00    +0.121 C 
ATOM     15  C15 UNL     1       7.034   4.473   6.384 -0.40 +0.00    +0.121 C 
ATOM     16  C16 UNL     1       8.912   5.490   2.310 -0.11 +0.00    +0.241 C 
ATOM     17  C17 UNL     1       7.580   3.395   2.238 -0.14 +0.00    +0.180 C 
ATOM     18  C18 UNL     1       7.588   2.058   3.018 -0.02 +0.00    +0.013 C 
ATOM     19  C19 UNL     1       6.608   1.042   2.406 +0.16 +0.00    +0.012 C 
ATOM     20  C20 UNL     1       8.985   1.395   3.068+99.99 +0.00    +0.002 C 
ATOM     21  C21 UNL     1      10.029   2.141   3.888+19.55 +0.00    +0.005 C 
ATOM     22  C22 UNL     1       6.148   3.917   1.955 -0.06 +0.00    +0.241 C 
ATOM     23  C23 UNL     1       4.277   5.332   2.745 -0.15 +0.00    +0.155 C 
ATOM     24  C24 UNL     1       3.568   5.709   4.049 -0.17 +0.00    +0.103 C 
ATOM     25  C25 UNL     1       4.515   6.590   1.914 +0.73 +0.00    +0.257 C 
ATOM     26  C26 UNL     1      17.011   7.493   2.622 -0.19 +0.00    +0.241 C 
ATOM     27  C27 UNL     1      18.154   7.538   1.585+22.77 +0.00    +0.176 C 
ATOM     28  C28 UNL     1      18.942   6.218   1.509+99.99 +0.00    +0.036 C 
ATOM     29  C29 UNL     1      19.497   5.644   2.826+99.99 +0.00    +0.022 C 
ATOM     30  C30 UNL     1      20.272   6.656   3.654+29.73 +0.00    +0.121 C 
ATOM     31  C31 UNL     1      20.511   5.654   5.785+99.99 +0.00    +0.121 C 
ATOM     32  C32 UNL     1      19.747   9.312   0.828 +3.94 +0.00    +0.236 C 
ATOM     33  C33 UNL     1      20.633  10.467   1.321 -0.37 +0.00    +0.225 C 
ATOM     34  C34 UNL     1      21.138  10.019   3.728 +4.84 +0.00    +0.235 C 
ATOM     35  C35 UNL     1      22.263   9.731   4.736 +0.86 +0.00    +0.225 C 
ATOM     36  C36 UNL     1      23.834   8.302   3.511 +0.38 +0.00    +0.241 C 
ATOM     37  C37 UNL     1      24.257   6.857   3.177+99.99 +0.00    +0.180 C 
ATOM     38  C38 UNL     1      25.363   6.371   4.127+16.75 +0.00    +0.073 C 
ATOM     39  C39 UNL     1      26.711   7.022   3.886 +3.84 -0.00    -0.056 A 
ATOM     40  C40 UNL     1      27.625   6.443   2.992+99.99 +0.00    +0.007 A 
ATOM     41  C41 UNL     1      28.828   7.082   2.695 +3.05 +0.00    +0.001 A 
ATOM     42  C42 UNL     1      29.135   8.301   3.297 +2.56 +0.00    +0.000 A 
ATOM     43  C43 UNL     1      28.242   8.877   4.198+99.99 +0.00    +0.001 A 
ATOM     44  C44 UNL     1      27.036   8.241   4.494+99.99 +0.00    +0.007 A 
ATOM     45  C45 UNL     1      23.739   6.789   0.768 -0.33 +0.00    +0.241 C 
ATOM     46  C46 UNL     1      24.229   7.284  -0.608 -0.42 +0.00    +0.185 C 
ATOM     47  C47 UNL     1      24.727   6.067  -1.391 -0.50 +0.00    +0.105 C 
ATOM     48  C48 UNL     1      24.956   9.614  -0.118+47.86 +0.00    +0.243 C 
ATOM     49  C49 UNL     1      26.177  10.475   0.249+99.99 +0.00    +0.200 C 
ATOM     50  C50 UNL     1      25.829  11.968   0.198+99.99 +0.00    +0.199 C 
ATOM     51  C51 UNL     1      28.603  10.325  -0.218+99.99 +0.00    +0.253 C 
ATOM     52  C52 UNL     1      29.690   9.995  -1.265+44.13 +0.00    +0.332 C 
ATOM     53  C53 UNL     1      29.615   8.527  -1.710 +0.32 +0.00    +0.209 C 
ATOM     54  O1  UNL     1      13.411   9.992   3.443+28.85 -0.00    -0.271 OA
ATOM     55  O2  UNL     1      10.589   7.822  -0.260 +0.37 -0.00    -0.650 OA
ATOM     56  O3  UNL     1      11.161   5.655  -0.421 +0.04 -0.00    -0.776 OA
ATOM     57  O4  UNL     1      12.173   6.344   3.548 -0.25 -0.00    -0.271 OA
ATOM     58  O5  UNL     1       9.013   5.537   1.085 -0.10 -0.00    -0.271 OA
ATOM     59  O6  UNL     1       5.523   3.607   0.942 -0.05 -0.00    -0.271 OA
ATOM     60  O7  UNL     1       3.798   7.589   1.959+12.86 -0.00    -0.305 OA
ATOM     61  O8  UNL     1      16.376   6.477   2.899+46.41 -0.00    -0.271 OA
ATOM     62  O9  UNL     1      19.612   9.040  -0.361 +2.25 -0.00    -0.272 OA
ATOM     63  O10 UNL     1      19.960  10.143   4.065+65.23 -0.00    -0.272 OA
ATOM     64  O11 UNL     1      24.303   9.280   2.922 -0.41 -0.00    -0.271 OA
ATOM     65  O12 UNL     1      22.649   6.250   0.929 +1.28 -0.00    -0.271 OA
ATOM     66  O13 UNL     1      23.796  10.001  -0.018 +0.74 -0.00    -0.271 OA
ATOM     67  O14 UNL     1      26.966  12.805   0.425 +3.73 -0.00    -0.398 OA
ATOM     68  O15 UNL     1      28.873  10.765   0.900+99.99 -0.00    -0.271 OA
ATOM     69  O16 UNL     1      30.133   7.658  -0.703 -0.06 -0.00    -0.398 OA
ATOM     70  N1  UNL     1      13.988   8.061   2.364 +1.77 -0.00    -0.345 N 
ATOM     71  N2  UNL     1      10.400   7.436   2.588 -0.15 -0.00    -0.346 N 
ATOM     72  N3  UNL     1       7.195   5.464   5.578 -0.08 -0.00    -0.372 N 
ATOM     73  H3  UNL     1       6.729   5.513   4.672 +0.08 +0.00    +0.161 HD
ATOM     74  N4  UNL     1       6.186   3.468   6.087 +0.16 -0.00    -0.279 NA
ATOM     75  N5  UNL     1       7.619   4.221   7.575 -0.32 -0.00    -0.279 NA
ATOM     76  N6  UNL     1       8.284   4.450   2.969 -0.04 -0.00    -0.346 N 
ATOM     77  N7  UNL     1       5.569   4.677   2.958 -0.02 -0.00    -0.348 N 
ATOM     78  N8  UNL     1      16.669   8.728   3.131 -0.25 -0.00    -0.346 N 
ATOM     79  N9  UNL     1      21.082   6.034   4.706+99.99 -0.00    -0.372 N 
ATOM     80  H9  UNL     1      22.086   5.907   4.578+99.99 +0.00    +0.161 HD
ATOM     81  N10 UNL     1      19.218   5.716   6.166+99.99 -0.00    -0.279 NA
ATOM     82  N11 UNL     1      21.244   5.067   6.756+49.37 -0.00    -0.279 NA
ATOM     83  N12 UNL     1      19.007   8.705   1.817 +3.36 -0.00    -0.346 N 
ATOM     84  N13 UNL     1      21.528  10.109   2.414 -0.15 -0.00    -0.351 N 
ATOM     85  N14 UNL     1      22.892   8.440   4.501 +8.93 -0.00    -0.351 N 
ATOM     86  N15 UNL     1      24.681   6.880   1.776 -0.09 -0.00    -0.346 N 
ATOM     87  N16 UNL     1      25.281   8.303  -0.436 +0.12 -0.00    -0.345 N 
ATOM     88  N17 UNL     1      27.304  10.128  -0.631+99.99 -0.00    -0.344 N 
ATOM     89  N18 UNL     1      31.031  10.288  -0.692 -0.31 +0.00    +0.094 N 
ATOM     90  S1  UNL     1       3.117   4.247   5.044 -0.15 -0.00    -0.180 SA
ATOM     91  S2  UNL     1      25.266   6.501  -3.081 +9.70 -0.00    -0.180 SA
ATOM     92  H63 UNL     1      10.174   5.587  -0.370 +0.08 +0.00    +0.167 HD
ATOM     93  H64 UNL     1      27.577  12.327   1.025+31.48 +0.00    +0.209 HD
ATOM     94  H65 UNL     1      31.043   7.981  -0.546 +0.08 +0.00    +0.209 HD
ATOM     95  H66 UNL     1      14.492   7.197   2.568 -0.49 +0.00    +0.163 HD
ATOM     96  H67 UNL     1      10.106   7.918   1.738 +0.10 +0.00    +0.163 HD
ATOM     97  H68 UNL     1       5.668   3.139   6.896 -0.24 +0.00    +0.126 HD
ATOM     98  H69 UNL     1       5.519   3.706   5.355 +0.00 +0.00    +0.126 HD
ATOM     99  H70 UNL     1       7.800   3.234   7.730 +0.05 +0.00    +0.126 HD
ATOM    100  H71 UNL     1       8.443   4.770   7.791 +0.08 +0.00    +0.126 HD
ATOM    101  H72 UNL     1       8.117   4.541   3.971 +0.09 +0.00    +0.163 HD
ATOM    102  H73 UNL     1       6.182   5.044   3.685 +0.07 +0.00    +0.163 HD
ATOM    103  H74 UNL     1      16.997   9.528   2.601 +0.13 +0.00    +0.163 HD
ATOM    104  H75 UNL     1      19.095   5.937   7.146 +0.12 +0.00    +0.126 HD
ATOM    105  H76 UNL     1      18.608   6.276   5.584+72.47 +0.00    +0.126 HD
ATOM    106  H77 UNL     1      20.775   4.258   7.147 -0.35 +0.00    +0.126 HD
ATOM    107  H78 UNL     1      22.155   4.801   6.398+99.99 +0.00    +0.126 HD
ATOM    108  H79 UNL     1      19.142   9.041   2.770 +0.11 +0.00    +0.163 HD
ATOM    109  H80 UNL     1      22.516   9.987   2.180 +0.13 +0.00    +0.163 HD
ATOM    110  H81 UNL     1      22.355   7.607   4.757+99.99 +0.00    +0.163 HD
ATOM    111  H82 UNL     1      25.405   7.567   1.603 +0.13 +0.00    +0.163 HD
ATOM    112  H83 UNL     1      26.243   8.010  -0.292 +0.10 +0.00    +0.163 HD
ATOM    113  H84 UNL     1      27.114  10.118  -1.627+99.99 +0.00    +0.163 HD
ATOM    114  H85 UNL     1      30.999   9.987   0.290 +0.14 +0.00    +0.314 HD
ATOM    115  H86 UNL     1      31.105  11.306  -0.598 -0.27 +0.00    +0.314 HD
ATOM    116  H87 UNL     1       2.374   4.908   5.945 +0.04 +0.00    +0.101 HD
ATOM    117  H88 UNL     1      26.093   7.491  -2.724 +0.38 +0.00    +0.101 HD
ENDROOT
TORSDOF 49
TER
