USER    Run = 1
USER    DPF = ligand_537_receptor.dpf
USER  
USER    Estimated Free Energy of Binding    =  +5.61e+003 kcal/mol  [=(1)+(2)+(3)-(4)]
USER    
USER    (1) Final Intermolecular Energy     =  +5.61e+003 kcal/mol
USER        vdW + Hbond + desolv Energy     =  +5.61e+003 kcal/mol
USER        Electrostatic Energy            =   +0.00 kcal/mol
USER    (2) Final Total Internal Energy     = +141.10 kcal/mol
USER    (3) Torsional Free Energy           =   +1.19 kcal/mol
USER    (4) Unbound System's Energy  [=(2)] = +141.10 kcal/mol
USER    
USER    
USER    NEWDPF move ligand_537.pdbqt
USER    NEWDPF about 0.000000 0.000000 0.000000
USER    NEWDPF tran0 20.328333 3.868138 0.512718
USER    NEWDPF quaternion0 0.252928 0.711894 -0.482297 0.443423
USER    NEWDPF axisangle0 0.282187 0.794248 -0.538090 127.355015
USER    NEWDPF quat0 0.282187 0.794248 -0.538090 127.355015
USER    NEWDPF dihe0 -65.59 -179.83 -163.40 -180.00 156.54 -65.22 -30.98 92.78 -121.57 125.39 121.51 124.49 31.61 164.42 68.46 81.81 180.00 -45.75 -5.60 111.40 -63.32 135.51 -44.96 105.29 95.61 -131.82 -132.28 -173.41 82.48 180.00 
USER  keepresnum = 1 
USER  
REMARK  30 active torsions:
REMARK  status: ('A' for Active; 'I' for Inactive)
REMARK    1  A    between atoms: C3_3  and  N20_86 
REMARK    2  A    between atoms: C5_5  and  C6_6 
REMARK       I    between atoms: C6_6  and  N2_68 
REMARK    3  A    between atoms: C7_7  and  N2_68 
REMARK    4  A    between atoms: C9_9  and  C11_11 
REMARK       I    between atoms: C11_11  and  N4_70 
REMARK    5  A    between atoms: C12_12  and  N4_70 
REMARK    6  A    between atoms: C14_14  and  C16_16 
REMARK       I    between atoms: C16_16  and  N6_72 
REMARK    7  A    between atoms: C17_17  and  C18_18 
REMARK    8  A    between atoms: C17_17  and  N6_72 
REMARK    9  A    between atoms: C18_18  and  N7_73 
REMARK   10  A    between atoms: C19_19  and  C20_20 
REMARK   11  A    between atoms: C19_19  and  N7_73 
REMARK   12  A    between atoms: C20_20  and  N8_74 
REMARK   13  A    between atoms: C21_21  and  C22_22 
REMARK       I    between atoms: C21_21  and  N8_74 
REMARK   14  A    between atoms: C24_24  and  C40_40 
REMARK   15  A    between atoms: C26_26  and  N9_75 
REMARK   16  A    between atoms: C35_35  and  N10_76 
REMARK       I    between atoms: C40_40  and  N11_77 
REMARK   17  A    between atoms: C41_41  and  C42_42 
REMARK   18  A    between atoms: C41_41  and  N11_77 
REMARK   19  A    between atoms: C42_42  and  N12_78 
REMARK   20  A    between atoms: C43_43  and  C44_44 
REMARK   21  A    between atoms: C43_43  and  N12_78 
REMARK   22  A    between atoms: C44_44  and  N13_79 
REMARK   23  A    between atoms: C45_45  and  C46_46 
REMARK       I    between atoms: C45_45  and  N13_79 
REMARK   24  A    between atoms: C48_48  and  N15_81 
REMARK   25  A    between atoms: C51_51  and  C52_52 
REMARK       I    between atoms: C51_51  and  N15_81 
REMARK   26  A    between atoms: C54_54  and  N17_83 
REMARK   27  A    between atoms: C57_57  and  C58_58 
REMARK       I    between atoms: C57_57  and  N17_83 
REMARK   28  A    between atoms: C60_60  and  N19_85 
REMARK   29  A    between atoms: C63_63  and  N19_85 
REMARK   30  A    between atoms: C66_66  and  N20_86 
USER                              x       y       z     vdW  Elec       q    Type
USER                           _______ _______ _______ _____ _____    ______ ____
ROOT
ATOM      1  C22 UNL     1      22.840   7.262   0.493 +0.38 +0.00    +0.035 A 
ATOM      2  C23 UNL     1      23.803   6.420  -0.054 -0.49 +0.00    +0.034 A 
ATOM      3  C24 UNL     1      24.069   5.194   0.567 -0.55 +0.00    +0.035 A 
ATOM      4  C25 UNL     1      23.354   4.804   1.713 +0.75 +0.00    +0.047 A 
ATOM      5  C26 UNL     1      22.395   5.646   2.293+39.63 +0.00    +0.048 A 
ATOM      6  C27 UNL     1      22.166   6.881   1.666+99.99 +0.00    +0.047 A 
ENDROOT
BRANCH   1   7
ATOM      7  C21 UNL     1      22.487   8.586  -0.089 -0.20 +0.00    +0.251 C 
ATOM      8  N8  UNL     1      21.257   8.708  -0.696 +1.23 -0.00    -0.355 N 
ATOM      9  H61 UNL     1      20.605   7.945  -0.567 +2.64 +0.00    +0.162 HD
ATOM     10  O4  UNL     1      23.288   9.505   0.040 -0.33 -0.00    -0.268 OA
BRANCH   8  11
ATOM     11  C20 UNL     1      20.632  10.001  -0.985+46.08 +0.00    +0.152 C 
BRANCH  11  12
ATOM     12  C19 UNL     1      20.047  10.777   0.216 -0.32 +0.00    +0.289 C 
BRANCH  12  13
ATOM     13  N7  UNL     1      20.505  10.214   1.491 -0.42 +0.00    +0.086 N 
ATOM     14  H60 UNL     1      21.262   9.548   1.266 +0.25 +0.00    +0.316 HD
BRANCH  13  15
ATOM     15  C18 UNL     1      21.034  11.238   2.402 +1.45 +0.00    +0.289 C 
BRANCH  15  16
ATOM     16  C17 UNL     1      20.618  10.950   3.857+99.99 +0.00    +0.153 C 
BRANCH  16  17
ATOM     17  N6  UNL     1      19.212  10.619   3.972+27.81 -0.00    -0.354 N 
ATOM     18  C16 UNL     1      18.369  10.642   2.887 -0.23 +0.00    +0.268 C 
ATOM     19  O3  UNL     1      18.786  10.801   1.744 -0.30 -0.00    -0.266 OA
ATOM     20  H59 UNL     1      18.859  10.439   4.902 +7.68 +0.00    +0.162 HD
BRANCH  18  21
ATOM     21  C14 UNL     1      16.967  10.446   3.199 -0.39 +0.00    +0.104 A 
ATOM     22  C15 UNL     1      16.377   9.261   3.624 -0.44 +0.00    +0.066 A 
ATOM     23  C12 UNL     1      14.995   9.480   3.805 +0.76 +0.00    +0.053 A 
ATOM     24  C13 UNL     1      14.751  10.788   3.456+56.12 +0.00    +0.120 A 
ATOM     25  N5  UNL     1      15.938  11.358   3.063 +0.45 -0.00    -0.354 N 
ATOM     26  C64 UNL     1      16.037  12.680   2.483+14.55 +0.00    +0.156 C 
BRANCH  23  27
ATOM     27  N4  UNL     1      13.996   8.623   4.222 -0.16 -0.00    -0.320 N 
ATOM     28  C11 UNL     1      14.141   7.622   5.162 -0.29 +0.00    +0.273 C 
ATOM     29  O2  UNL     1      15.157   7.402   5.811 +0.57 -0.00    -0.266 OA
ATOM     30  H58 UNL     1      13.071   8.798   3.854 +0.01 +0.00    +0.169 HD
BRANCH  28  31
ATOM     31  C9  UNL     1      12.926   6.846   5.354 -0.34 +0.00    +0.105 A 
ATOM     32  C10 UNL     1      11.662   7.157   4.870 -0.32 +0.00    +0.066 A 
ATOM     33  C7  UNL     1      10.764   6.143   5.270 -0.27 +0.00    +0.053 A 
ATOM     34  C8  UNL     1      11.485   5.249   6.028 -0.28 +0.00    +0.120 A 
ATOM     35  N3  UNL     1      12.783   5.695   6.101 -0.17 -0.00    -0.354 N 
ATOM     36  C65 UNL     1      13.805   5.063   6.911 -0.49 +0.00    +0.156 C 
BRANCH  33  37
ATOM     37  N2  UNL     1       9.413   5.987   5.022 -0.08 -0.00    -0.320 N 
ATOM     38  C6  UNL     1       8.868   5.207   4.018 -0.14 +0.00    +0.273 C 
ATOM     39  O1  UNL     1       9.525   4.506   3.254 -0.15 -0.00    -0.266 OA
ATOM     40  H57 UNL     1       8.789   6.450   5.664 +0.12 +0.00    +0.169 HD
BRANCH  38  41
ATOM     41  C5  UNL     1       7.409   5.260   3.957 -0.16 +0.00    +0.105 A 
ATOM     42  C4  UNL     1       6.464   5.145   4.974 -0.22 +0.00    +0.066 A 
ATOM     43  C3  UNL     1       5.167   5.269   4.414 -0.17 +0.00    +0.052 A 
ATOM     44  C2  UNL     1       5.339   5.464   3.067 -0.14 +0.00    +0.120 A 
ATOM     45  N1  UNL     1       6.683   5.475   2.797 -0.04 -0.00    -0.354 N 
ATOM     46  C1  UNL     1       7.235   5.669   1.471 -0.15 +0.00    +0.156 C 
BRANCH  43  47
ATOM     47  N20 UNL     1       3.983   5.209   5.122 -0.06 -0.00    -0.333 N 
ATOM     48  H68 UNL     1       3.129   5.303   4.590 +0.05 +0.00    +0.168 HD
BRANCH  47  49
ATOM     49  C66 UNL     1       3.876   5.026   6.482 -0.19 +0.00    +0.353 C 
ATOM     50  O14 UNL     1       4.189   4.060   7.161 -0.58 -0.00    -0.283 OA
ENDBRANCH  47  49
ENDBRANCH  43  47
ENDBRANCH  38  41
ENDBRANCH  33  37
ENDBRANCH  28  31
ENDBRANCH  23  27
ENDBRANCH  18  21
ENDBRANCH  16  17
ENDBRANCH  15  16
ENDBRANCH  13  15
ENDBRANCH  12  13
ENDBRANCH  11  12
ENDBRANCH   8  11
ENDBRANCH   1   7
BRANCH   3  51
ATOM     51  C40 UNL     1      25.104   4.312  -0.032 -0.35 +0.00    +0.251 C 
ATOM     52  N11 UNL     1      25.285   4.427  -1.396 -0.24 -0.00    -0.355 N 
ATOM     53  H62 UNL     1      24.550   4.867  -1.937 +0.10 +0.00    +0.162 HD
ATOM     54  O9  UNL     1      25.713   3.520   0.677 +0.85 -0.00    -0.268 OA
BRANCH  52  55
ATOM     55  C41 UNL     1      26.173   3.512  -2.097 -0.35 +0.00    +0.152 C 
BRANCH  55  56
ATOM     56  C42 UNL     1      26.368   2.193  -1.332+71.25 +0.00    +0.289 C 
BRANCH  56  57
ATOM     57  N12 UNL     1      27.220   2.394  -0.149+99.99 +0.00    +0.086 N 
ATOM     58  H63 UNL     1      26.821   3.153   0.407 +0.44 +0.00    +0.316 HD
BRANCH  57  59
ATOM     59  C43 UNL     1      28.606   2.737  -0.517 -0.10 +0.00    +0.289 C 
BRANCH  59  60
ATOM     60  C44 UNL     1      28.730   4.081  -1.251 -0.17 +0.00    +0.153 C 
BRANCH  60  61
ATOM     61  N13 UNL     1      28.376   5.182  -0.380 -0.06 -0.00    -0.354 N 
ATOM     62  C45 UNL     1      29.050   6.377  -0.390 -0.12 +0.00    +0.268 C 
ATOM     63  O10 UNL     1      29.949   6.608  -1.192 -0.08 -0.00    -0.266 OA
ATOM     64  H64 UNL     1      27.587   5.039   0.236 +0.09 +0.00    +0.162 HD
BRANCH  62  65
ATOM     65  C46 UNL     1      28.582   7.339   0.586 -0.26 +0.00    +0.104 A 
ATOM     66  C47 UNL     1      27.288   7.832   0.696 -0.35 +0.00    +0.066 A 
ATOM     67  C48 UNL     1      27.234   8.731   1.785 -0.25 +0.00    +0.053 A 
ATOM     68  C49 UNL     1      28.507   8.802   2.302 +4.06 +0.00    +0.120 A 
ATOM     69  N14 UNL     1      29.324   7.988   1.555 -0.16 -0.00    -0.354 N 
ATOM     70  C50 UNL     1      30.760   7.922   1.730 -0.28 +0.00    +0.156 C 
BRANCH  67  71
ATOM     71  N15 UNL     1      26.178   9.450   2.310 -0.26 -0.00    -0.320 N 
ATOM     72  C51 UNL     1      26.156  10.053   3.554 +1.65 +0.00    +0.273 C 
ATOM     73  O11 UNL     1      27.080  10.004   4.361 +6.70 -0.00    -0.266 OA
ATOM     74  H65 UNL     1      25.350   9.497   1.736 +0.13 +0.00    +0.169 HD
BRANCH  72  75
ATOM     75  C52 UNL     1      24.910  10.759   3.850 +1.49 +0.00    +0.105 A 
ATOM     76  C53 UNL     1      23.887  10.440   4.740 +0.04 +0.00    +0.066 A 
ATOM     77  C54 UNL     1      22.881  11.436   4.664 +1.86 +0.00    +0.053 A 
ATOM     78  C55 UNL     1      23.300  12.345   3.726+72.91 +0.00    +0.120 A 
ATOM     79  N16 UNL     1      24.510  11.932   3.230 +6.10 -0.00    -0.354 N 
ATOM     80  C56 UNL     1      25.253  12.654   2.216+11.38 +0.00    +0.156 C 
BRANCH  77  81
ATOM     81  N17 UNL     1      21.717  11.444   5.411+99.99 -0.00    -0.320 N 
ATOM     82  C57 UNL     1      21.632  11.456   6.792+48.56 +0.00    +0.273 C 
ATOM     83  O12 UNL     1      22.603  11.474   7.545+57.28 -0.00    -0.266 OA
ATOM     84  H66 UNL     1      20.860  11.456   4.881+99.99 +0.00    +0.169 HD
BRANCH  82  85
ATOM     85  C58 UNL     1      20.261  11.454   7.307+99.99 +0.00    +0.105 A 
ATOM     86  C59 UNL     1      19.080  11.892   6.715+99.99 +0.00    +0.066 A 
ATOM     87  C60 UNL     1      18.006  11.680   7.611 +7.41 +0.00    +0.052 A 
ATOM     88  C61 UNL     1      18.539  11.109   8.740+99.99 +0.00    +0.120 A 
ATOM     89  N18 UNL     1      19.893  10.972   8.554 +0.02 -0.00    -0.354 N 
ATOM     90  C62 UNL     1      20.786  10.405   9.544 -0.10 +0.00    +0.156 C 
BRANCH  87  91
ATOM     91  N19 UNL     1      16.663  11.955   7.466 +1.49 -0.00    -0.333 N 
ATOM     92  H67 UNL     1      16.414  12.678   6.803 +0.71 +0.00    +0.168 HD
BRANCH  91  93
ATOM     93  C63 UNL     1      15.654  11.318   8.149+22.30 +0.00    +0.353 C 
ATOM     94  O13 UNL     1      14.447  11.502   8.078 -0.48 -0.00    -0.283 OA
ENDBRANCH  91  93
ENDBRANCH  87  91
ENDBRANCH  82  85
ENDBRANCH  77  81
ENDBRANCH  72  75
ENDBRANCH  67  71
ENDBRANCH  62  65
ENDBRANCH  60  61
ENDBRANCH  59  60
ENDBRANCH  57  59
ENDBRANCH  56  57
ENDBRANCH  55  56
ENDBRANCH  52  55
ENDBRANCH   3  51
BRANCH   5  95
ATOM     95  N9  UNL     1      21.673   5.292   3.500+54.02 -0.00    -0.244 N 
ATOM     96  C28 UNL     1      21.122   6.312   4.297+99.99 +0.00    +0.266 C 
ATOM     97  C29 UNL     1      20.322   5.898   5.478+99.99 +0.00    +0.045 A 
ATOM     98  O5  UNL     1      21.211   7.521   4.079+99.99 -0.00    -0.267 OA
ATOM     99  C30 UNL     1      19.741   6.880   6.294+82.33 +0.00    +0.018 A 
ATOM    100  C38 UNL     1      20.114   4.543   5.748+37.85 +0.00    +0.006 A 
ATOM    101  C31 UNL     1      18.948   6.512   7.379+99.99 +0.00    +0.002 A 
ATOM    102  C32 UNL     1      18.724   5.163   7.650+99.99 +0.00    +0.012 A 
ATOM    103  C33 UNL     1      19.297   4.167   6.845+52.31 -0.00    -0.021 A 
ATOM    104  C34 UNL     1      19.073   2.807   7.113+99.99 +0.00    +0.048 A 
ATOM    105  C35 UNL     1      19.661   1.827   6.304+99.99 +0.00    +0.104 A 
ATOM    106  C36 UNL     1      20.474   2.192   5.229+99.99 +0.00    +0.054 A 
ATOM    107  C37 UNL     1      20.697   3.552   4.959 +3.04 +0.00    +0.047 A 
ATOM    108  C39 UNL     1      21.585   3.930   3.840 +6.22 +0.00    +0.266 C 
ATOM    109  O6  UNL     1      22.232   3.019   3.325 -0.50 -0.00    -0.267 OA
BRANCH 105 110
ATOM    110  N10 UNL     1      19.431   0.407   6.593+84.39 -0.00    -0.116 N 
ATOM    111  O7  UNL     1      20.275  -0.408   6.195+99.99 -0.00    -0.532 OA
ATOM    112  O8  UNL     1      18.402   0.102   7.212+10.35 -0.00    -0.532 OA
ENDBRANCH 105 110
ENDBRANCH   5  95
TORSDOF 30
TER
