USER    Run = 1
USER    DPF = ligand_38_receptor.dpf
USER  
USER    Estimated Free Energy of Binding    = +509.38 kcal/mol  [=(1)+(2)+(3)-(4)]
USER    
USER    (1) Final Intermolecular Energy     = +508.18 kcal/mol
USER        vdW + Hbond + desolv Energy     = +508.18 kcal/mol
USER        Electrostatic Energy            =   +0.00 kcal/mol
USER    (2) Final Total Internal Energy     =  +44.92 kcal/mol
USER    (3) Torsional Free Energy           =   +1.19 kcal/mol
USER    (4) Unbound System's Energy  [=(2)] =  +44.92 kcal/mol
USER    
USER    
USER    NEWDPF move ligand_38.pdbqt
USER    NEWDPF about 0.000000 0.000000 0.000000
USER    NEWDPF tran0 19.300229 8.716437 3.763307
USER    NEWDPF quaternion0 -0.513112 -0.001909 -0.039569 -0.857407
USER    NEWDPF axisangle0 -0.997033 -0.003710 -0.076886 -61.946597
USER    NEWDPF quat0 -0.997033 -0.003710 -0.076886 -61.946597
USER    NEWDPF dihe0 155.40 59.87 -60.16 -95.09 -160.92 180.00 -148.31 -149.46 60.33 127.86 175.52 164.78 179.64 -139.91 81.94 -16.15 -122.03 130.28 76.42 10.87 -180.00 -180.00 -180.00 -33.64 152.39 -12.98 36.78 -38.04 180.00 -180.00 -180.00 38.96 
USER  keepresnum = 1 
USER  
REMARK  32 active torsions:
REMARK  status: ('A' for Active; 'I' for Inactive)
REMARK    1  A    between atoms: C3_3  and  N9_53 
REMARK    2  A    between atoms: C4_4  and  S1_79 
REMARK    3  A    between atoms: C5_5  and  N1_43 
REMARK    4  A    between atoms: C7_7  and  C8_8 
REMARK       I    between atoms: C7_7  and  N1_43 
REMARK    5  A    between atoms: C8_8  and  C9_9 
REMARK    6  A    between atoms: C8_8  and  N5_48 
REMARK    7  A    between atoms: C9_9  and  C10_10 
REMARK    8  A    between atoms: C10_10  and  C11_11 
REMARK    9  A    between atoms: C11_11  and  N2_44 
REMARK       I    between atoms: C12_12  and  N2_44 
REMARK       I    between atoms: C12_12  and  N3_46 
REMARK       I    between atoms: C12_12  and  N4_47 
REMARK   10  A    between atoms: C13_13  and  C14_14 
REMARK   11  A    between atoms: C13_13  and  S1_79 
REMARK   12  A    between atoms: C14_14  and  N6_49 
REMARK       I    between atoms: C15_15  and  N6_49 
REMARK       I    between atoms: C15_15  and  N7_51 
REMARK       I    between atoms: C15_15  and  N8_52 
REMARK   13  A    between atoms: C16_16  and  C17_17 
REMARK       I    between atoms: C16_16  and  N9_53 
REMARK   14  A    between atoms: C19_19  and  C27_27 
REMARK   15  A    between atoms: C20_20  and  O4_76 
REMARK   16  A    between atoms: C22_22  and  O3_75 
REMARK   17  A    between atoms: C23_23  and  N10_54 
REMARK   18  A    between atoms: C23_23  and  O3_75 
REMARK       I    between atoms: C24_24  and  N10_54 
REMARK       I    between atoms: C24_24  and  N11_56 
REMARK       I    between atoms: C24_24  and  N12_57 
REMARK   19  A    between atoms: C25_25  and  N13_58 
REMARK   20  A    between atoms: C25_25  and  O4_76 
REMARK       I    between atoms: C26_26  and  N14_60 
REMARK       I    between atoms: C26_26  and  N15_61 
REMARK       I    between atoms: C27_27  and  N16_62 
REMARK   21  A    between atoms: C28_28  and  N16_62 
REMARK   22  A    between atoms: C29_29  and  S2_80 
REMARK   23  A    between atoms: C30_30  and  N17_63 
REMARK   24  A    between atoms: C34_34  and  C35_35 
REMARK       I    between atoms: C34_34  and  N17_63 
REMARK   25  A    between atoms: C35_35  and  C36_36 
REMARK   26  A    between atoms: C35_35  and  N21_68 
REMARK   27  A    between atoms: C36_36  and  C37_37 
REMARK   28  A    between atoms: C37_37  and  C38_38 
REMARK   29  A    between atoms: C38_38  and  N18_64 
REMARK       I    between atoms: C39_39  and  N19_66 
REMARK       I    between atoms: C39_39  and  N20_67 
REMARK   30  A    between atoms: C40_40  and  C41_41 
REMARK   31  A    between atoms: C40_40  and  S2_80 
REMARK   32  A    between atoms: C41_41  and  N22_69 
REMARK       I    between atoms: C42_42  and  N23_71 
REMARK       I    between atoms: C42_42  and  N24_72 
USER                              x       y       z     vdW  Elec       q    Type
USER                           _______ _______ _______ _____ _____    ______ ____
ROOT
ATOM      1  C17 UNL     1      18.768   8.726   3.279 -0.41 +0.00    +0.066 A 
ATOM      2  C18 UNL     1      20.152   8.632   3.036 +0.52 +0.00    +0.040 A 
ATOM      3  C19 UNL     1      21.073   8.846   4.067 +3.36 +0.00    +0.066 A 
ATOM      4  C20 UNL     1      20.644   9.141   5.361+72.30 +0.00    +0.089 A 
ATOM      5  C21 UNL     1      19.274   9.168   5.620+84.27 +0.00    +0.075 A 
ATOM      6  C22 UNL     1      18.337   9.040   4.581 +0.88 +0.00    +0.089 A 
ENDROOT
BRANCH   1   7
ATOM      7  C16 UNL     1      17.867   8.480   2.099 -0.09 +0.00    +0.259 C 
ATOM      8  N9  UNL     1      18.472   8.199   0.893+21.77 -0.00    -0.322 N 
ATOM      9  H46 UNL     1      19.490   8.187   0.881+28.46 +0.00    +0.169 HD
ATOM     10  O2  UNL     1      16.656   8.582   2.277 -0.36 -0.00    -0.267 OA
BRANCH   8  11
ATOM     11  C3  UNL     1      17.867   7.916  -0.360+49.96 +0.00    +0.054 A 
ATOM     12  C2  UNL     1      18.611   7.766  -1.532+49.39 +0.00    +0.031 A 
ATOM     13  C1  UNL     1      17.975   7.522  -2.748 +0.24 +0.00    +0.005 A 
ATOM     14  C6  UNL     1      16.586   7.416  -2.812 +0.35 +0.00    +0.031 A 
ATOM     15  C5  UNL     1      15.805   7.548  -1.661+16.81 +0.00    +0.053 A 
ATOM     16  C4  UNL     1      16.454   7.800  -0.423 -0.20 +0.00    +0.054 A 
BRANCH  15  17
ATOM     17  N1  UNL     1      14.396   7.385  -1.691+39.79 -0.00    -0.324 N 
ATOM     18  C7  UNL     1      13.645   6.645  -2.587+10.00 +0.00    +0.255 C 
ATOM     19  O1  UNL     1      14.068   6.133  -3.621 +1.48 -0.00    -0.271 OA
ATOM     20  H35 UNL     1      13.868   7.875  -0.960 +0.01 +0.00    +0.169 HD
BRANCH  18  21
ATOM     21  C8  UNL     1      12.148   6.539  -2.179 -0.08 +0.00    +0.309 C 
BRANCH  21  22
ATOM     22  C9  UNL     1      11.942   6.723  -0.665 -0.39 +0.00    +0.047 C 
BRANCH  22  23
ATOM     23  C10 UNL     1      11.625   5.398   0.040 -0.10 +0.00    +0.022 C 
BRANCH  23  24
ATOM     24  C11 UNL     1      10.119   5.206   0.211 -0.14 +0.00    +0.121 C 
BRANCH  24  25
ATOM     25  N2  UNL     1       9.816   5.236   1.639 +0.01 -0.00    -0.372 N 
ATOM     26  C12 UNL     1       8.893   6.018   2.048 -0.20 +0.00    +0.121 C 
ATOM     27  N3  UNL     1       8.115   6.882   1.361 -0.16 -0.00    -0.279 NA
ATOM     28  N4  UNL     1       8.570   6.048   3.359 -0.10 -0.00    -0.279 NA
ATOM     29  H36 UNL     1       7.933   7.731   1.883 +0.06 +0.00    +0.126 HD
ATOM     30  H37 UNL     1       8.453   7.094   0.431 +0.07 +0.00    +0.126 HD
ATOM     31  H38 UNL     1       7.569   5.980   3.501 +0.06 +0.00    +0.126 HD
ATOM     32  H39 UNL     1       9.042   5.286   3.836 +0.07 +0.00    +0.126 HD
ATOM     33  H2  UNL     1      10.330   4.647   2.294 -0.49 +0.00    +0.161 HD
ENDBRANCH  24  25
ENDBRANCH  23  24
ENDBRANCH  22  23
ENDBRANCH  21  22
BRANCH  21  34
ATOM     34  N5  UNL     1      11.616   5.216  -2.604 +0.78 +0.00    +0.092 N 
ATOM     35  H40 UNL     1      10.593   5.271  -2.578 +0.16 +0.00    +0.313 HD
ATOM     36  H41 UNL     1      11.835   5.068  -3.590 +0.20 +0.00    +0.313 HD
ENDBRANCH  21  34
ENDBRANCH  18  21
ENDBRANCH  15  17
BRANCH  16  37
ATOM     37  S1  UNL     1      15.478   8.052   1.078 +2.62 -0.00    -0.124 SA
BRANCH  37  38
ATOM     38  C13 UNL     1      15.126   9.849   0.933+18.65 +0.00    +0.099 C 
BRANCH  38  39
ATOM     39  C14 UNL     1      16.206  10.757   1.529 -0.47 +0.00    +0.132 C 
BRANCH  39  40
ATOM     40  N6  UNL     1      17.297  10.950   0.576 -0.19 -0.00    -0.366 N 
ATOM     41  C15 UNL     1      18.264  11.741   0.834 -0.54 +0.00    +0.143 C 
ATOM     42  N7  UNL     1      19.309  11.780  -0.019 -0.38 -0.00    -0.274 NA
ATOM     43  N8  UNL     1      18.460  12.550   1.893 -0.37 -0.00    -0.376 N 
ATOM     44  H42 UNL     1      19.521  12.700  -0.378 +0.10 +0.00    +0.127 HD
ATOM     45  H43 UNL     1      19.135  11.139  -0.801 +0.10 +0.00    +0.127 HD
ATOM     46  H44 UNL     1      17.655  12.820   2.439 +0.12 +0.00    +0.158 HD
ATOM     47  H45 UNL     1      19.164  13.267   1.798 +0.06 +0.00    +0.158 HD
ATOM     48  H6  UNL     1      17.285  10.444  -0.310 +0.12 +0.00    +0.162 HD
ENDBRANCH  39  40
ENDBRANCH  38  39
ENDBRANCH  37  38
ENDBRANCH  16  37
ENDBRANCH   8  11
ENDBRANCH   1   7
BRANCH   6  49
ATOM     49  O3  UNL     1      16.995   9.209   4.820 -0.01 -0.00    -0.331 OA
BRANCH  49  50
ATOM     50  C23 UNL     1      16.308   8.073   5.408+14.12 +0.00    +0.300 C 
BRANCH  50  51
ATOM     51  N10 UNL     1      14.855   8.035   5.328 +0.42 -0.00    -0.350 N 
ATOM     52  C24 UNL     1      14.252   8.601   4.359 -0.30 +0.00    +0.123 C 
ATOM     53  N11 UNL     1      12.924   8.402   4.203 -0.20 -0.00    -0.279 NA
ATOM     54  N12 UNL     1      14.733   9.385   3.370 +0.01 -0.00    -0.279 NA
ATOM     55  H47 UNL     1      12.647   7.577   4.750 +0.09 +0.00    +0.126 HD
ATOM     56  H48 UNL     1      12.667   8.228   3.238 -0.04 +0.00    +0.126 HD
ATOM     57  H49 UNL     1      14.064  10.097   3.097 -0.16 +0.00    +0.126 HD
ATOM     58  H50 UNL     1      15.630   9.809   3.570 +0.06 +0.00    +0.126 HD
ATOM     59  H10 UNL     1      14.319   7.553   6.049 +0.13 +0.00    +0.163 HD
ENDBRANCH  50  51
ENDBRANCH  49  50
ENDBRANCH   6  49
BRANCH   3  60
ATOM     60  C27 UNL     1      22.511   8.795   3.747 +0.94 +0.00    +0.259 C 
ATOM     61  N16 UNL     1      22.846   7.768   2.883 +0.65 -0.00    -0.322 N 
ATOM     62  H55 UNL     1      22.095   7.445   2.286 +0.27 +0.00    +0.169 HD
ATOM     63  O5  UNL     1      23.244   9.673   4.184 -0.49 -0.00    -0.267 OA
BRANCH  61  64
ATOM     64  C28 UNL     1      24.163   7.498   2.445 +0.62 +0.00    +0.054 A 
ATOM     65  C29 UNL     1      24.537   7.270   1.100 -0.39 +0.00    +0.054 A 
ATOM     66  C30 UNL     1      25.893   6.973   0.794 -0.35 +0.00    +0.053 A 
ATOM     67  C31 UNL     1      26.842   6.931   1.816 +0.32 +0.00    +0.031 A 
ATOM     68  C32 UNL     1      26.476   7.221   3.129 +0.71 +0.00    +0.005 A 
ATOM     69  C33 UNL     1      25.151   7.516   3.439 +0.52 +0.00    +0.031 A 
BRANCH  65  70
ATOM     70  S2  UNL     1      23.391   7.522  -0.294 -0.62 -0.00    -0.124 SA
BRANCH  70  71
ATOM     71  C40 UNL     1      23.063   5.773  -0.729 +0.81 +0.00    +0.099 C 
BRANCH  71  72
ATOM     72  C41 UNL     1      23.412   5.454  -2.187+22.98 +0.00    +0.132 C 
BRANCH  72  73
ATOM     73  N22 UNL     1      24.720   4.808  -2.259 +0.09 -0.00    -0.371 N 
ATOM     74  C42 UNL     1      25.187   4.197  -1.240 -0.43 +0.00    +0.121 C 
ATOM     75  N23 UNL     1      24.679   4.072   0.004 -0.55 -0.00    -0.279 NA
ATOM     76  N24 UNL     1      26.377   3.569  -1.324 -0.59 -0.00    -0.279 NA
ATOM     77  H63 UNL     1      23.960   4.749   0.229 +0.08 +0.00    +0.126 HD
ATOM     78  H64 UNL     1      25.407   4.082   0.711 +0.06 +0.00    +0.126 HD
ATOM     79  H65 UNL     1      26.366   2.643  -0.914 +2.13 +0.00    +0.126 HD
ATOM     80  H66 UNL     1      26.690   3.513  -2.292 +0.06 +0.00    +0.126 HD
ATOM     81  H22 UNL     1      25.261   4.846  -3.123 +0.12 +0.00    +0.161 HD
ENDBRANCH  72  73
ENDBRANCH  71  72
ENDBRANCH  70  71
ENDBRANCH  65  70
BRANCH  66  82
ATOM     82  N17 UNL     1      26.227   6.746  -0.560 -0.16 -0.00    -0.324 N 
ATOM     83  C34 UNL     1      27.266   7.256  -1.306 -0.06 +0.00    +0.255 C 
ATOM     84  O6  UNL     1      28.143   8.014  -0.894 -0.18 -0.00    -0.271 OA
ATOM     85  H56 UNL     1      25.497   6.270  -1.079 +0.11 +0.00    +0.169 HD
BRANCH  83  86
ATOM     86  C35 UNL     1      27.275   6.755  -2.773+15.53 +0.00    +0.309 C 
BRANCH  86  87
ATOM     87  C36 UNL     1      28.419   5.759  -3.016 +1.73 +0.00    +0.047 C 
BRANCH  87  88
ATOM     88  C37 UNL     1      28.868   4.958  -1.784 -0.20 +0.00    +0.022 C 
BRANCH  88  89
ATOM     89  C38 UNL     1      30.197   5.459  -1.216 -0.08 +0.00    +0.121 C 
BRANCH  89  90
ATOM     90  N18 UNL     1      30.017   6.026   0.117 -0.03 -0.00    -0.372 N 
ATOM     91  C39 UNL     1      30.757   5.642   1.084 -0.21 +0.00    +0.121 C 
ATOM     92  N19 UNL     1      31.765   4.744   1.118 -0.08 -0.00    -0.279 NA
ATOM     93  N20 UNL     1      30.590   6.188   2.308 -0.13 -0.00    -0.279 NA
ATOM     94  H57 UNL     1      31.815   4.133   0.314 +0.05 +0.00    +0.126 HD
ATOM     95  H58 UNL     1      31.772   4.210   1.979 +0.05 +0.00    +0.126 HD
ATOM     96  H59 UNL     1      31.471   6.490   2.708 -0.17 +0.00    +0.126 HD
ATOM     97  H60 UNL     1      29.951   6.975   2.236 +0.03 +0.00    +0.126 HD
ATOM     98  H18 UNL     1      29.298   6.733   0.275 +0.08 +0.00    +0.161 HD
ENDBRANCH  89  90
ENDBRANCH  88  89
ENDBRANCH  87  88
ENDBRANCH  86  87
BRANCH  86  99
ATOM     99  N21 UNL     1      25.964   6.212  -3.192+24.84 +0.00    +0.092 N 
ATOM    100  H61 UNL     1      25.381   5.979  -2.393 +0.22 +0.00    +0.313 HD
ATOM    101  H62 UNL     1      25.473   6.920  -3.748 +5.56 +0.00    +0.313 HD
ENDBRANCH  86  99
ENDBRANCH  83  86
ENDBRANCH  66  82
ENDBRANCH  61  64
ENDBRANCH   3  60
BRANCH   4 102
ATOM    102  O4  UNL     1      21.580   9.366   6.336 +2.52 -0.00    -0.331 OA
BRANCH 102 103
ATOM    103  C25 UNL     1      21.205  10.385   7.289+19.78 +0.00    +0.300 C 
BRANCH 103 104
ATOM    104  N13 UNL     1      22.032  10.575   8.485 -0.31 -0.00    -0.350 N 
ATOM    105  C26 UNL     1      22.080  11.757   8.980 -0.39 +0.00    +0.123 C 
ATOM    106  N14 UNL     1      22.806  11.980  10.098 -0.59 -0.00    -0.279 NA
ATOM    107  N15 UNL     1      21.516  12.903   8.532 +0.92 -0.00    -0.279 NA
ATOM    108  H51 UNL     1      23.016  11.132  10.610 +0.03 +0.00    +0.126 HD
ATOM    109  H52 UNL     1      22.461  12.718  10.696 -0.00 +0.00    +0.126 HD
ATOM    110  H53 UNL     1      20.844  12.770   7.781 -0.06 +0.00    +0.126 HD
ATOM    111  H54 UNL     1      20.975  13.390   9.246 +0.06 +0.00    +0.126 HD
ATOM    112  H13 UNL     1      22.547   9.801   8.905 +0.14 +0.00    +0.163 HD
ENDBRANCH 103 104
ENDBRANCH 102 103
ENDBRANCH   4 102
TORSDOF 32
TER
