USER    Run = 1
USER    DPF = ligand_252_receptor.dpf
USER  
USER    Estimated Free Energy of Binding    =  +85.99 kcal/mol  [=(1)+(2)+(3)-(4)]
USER    
USER    (1) Final Intermolecular Energy     =  +84.80 kcal/mol
USER        vdW + Hbond + desolv Energy     =  +84.80 kcal/mol
USER        Electrostatic Energy            =   +0.00 kcal/mol
USER    (2) Final Total Internal Energy     =   -1.37 kcal/mol
USER    (3) Torsional Free Energy           =   +1.19 kcal/mol
USER    (4) Unbound System's Energy  [=(2)] =   -1.37 kcal/mol
USER    
USER    
USER    NEWDPF move ligand_252.pdbqt
USER    NEWDPF about 0.000000 0.000000 0.000000
USER    NEWDPF tran0 18.574441 9.409394 0.993790
USER    NEWDPF quaternion0 0.137828 0.235066 0.089787 0.957959
USER    NEWDPF axisangle0 0.480398 0.819316 0.312951 33.345465
USER    NEWDPF quat0 0.480398 0.819316 0.312951 33.345465
USER    NEWDPF dihe0 -89.64 -91.18 -93.88 60.55 -8.15 -175.59 47.73 155.55 -180.00 -6.58 -24.80 -147.77 174.27 8.93 68.50 10.40 -167.91 84.61 
USER  keepresnum = 1 
USER  
REMARK  18 active torsions:
REMARK  status: ('A' for Active; 'I' for Inactive)
REMARK    1  A    between atoms: C3_3  and  N4_53 
REMARK    2  A    between atoms: C5_5  and  C6_6 
REMARK       I    between atoms: C6_6  and  N2_51 
REMARK    3  A    between atoms: C7_7  and  C8_8 
REMARK    4  A    between atoms: C7_7  and  N2_51 
REMARK    5  A    between atoms: C8_8  and  C9_9 
REMARK    6  A    between atoms: C9_9  and  N3_52 
REMARK    7  A    between atoms: C12_12  and  C13_13 
REMARK       I    between atoms: C12_12  and  N4_53 
REMARK    8  A    between atoms: C15_15  and  N6_55 
REMARK    9  A    between atoms: C18_18  and  C19_19 
REMARK       I    between atoms: C18_18  and  N6_55 
REMARK   10  A    between atoms: C30_30  and  C32_32 
REMARK       I    between atoms: C32_32  and  N11_60 
REMARK   11  A    between atoms: C33_33  and  N11_60 
REMARK   12  A    between atoms: C35_35  and  C37_37 
REMARK       I    between atoms: C37_37  and  N13_62 
REMARK   13  A    between atoms: C38_38  and  N13_62 
REMARK   14  A    between atoms: C40_40  and  C42_42 
REMARK       I    between atoms: C42_42  and  N15_64 
REMARK   15  A    between atoms: C43_43  and  C44_44 
REMARK   16  A    between atoms: C43_43  and  N15_64 
REMARK   17  A    between atoms: C44_44  and  C45_45 
REMARK   18  A    between atoms: C45_45  and  N16_65 
USER                              x       y       z     vdW  Elec       q    Type
USER                           _______ _______ _______ _____ _____    ______ ____
ROOT
ATOM      1  C19 UNL     1      15.947   9.538   0.602 -0.16 +0.00    +0.105 A 
ATOM      2  C20 UNL     1      16.352  10.871   0.705 -0.40 +0.00    +0.061 A 
ATOM      3  C21 UNL     1      17.306  10.943   1.726 -0.49 +0.00    +0.038 A 
ATOM      4  C22 UNL     1      17.518   9.682   2.219 -0.44 +0.00    +0.047 A 
ATOM      5  C23 UNL     1      16.597   7.397   1.773 +4.88 +0.00    +0.156 C 
ATOM      6  C24 UNL     1      18.536   9.363   3.272 -0.37 +0.00    +0.156 C 
ATOM      7  C25 UNL     1      18.532  11.759   3.575 +5.02 +0.00    +0.193 C 
ATOM      8  C26 UNL     1      19.178  12.408   1.341 -0.65 +0.00    +0.156 C 
ATOM      9  C27 UNL     1      20.387  11.577   1.650 -0.30 +0.00    +0.047 A 
ATOM     10  C28 UNL     1      20.456  10.701   2.702 -0.01 +0.00    +0.038 A 
ATOM     11  C29 UNL     1      21.686  10.036   2.649 -0.32 +0.00    +0.061 A 
ATOM     12  C30 UNL     1      22.397  10.549   1.562 +6.59 +0.00    +0.105 A 
ATOM     13  C31 UNL     1      21.900  12.265  -0.223 +2.63 +0.00    +0.156 C 
ATOM     14  N7  UNL     1      16.690   8.824   1.544 -0.23 -0.00    -0.348 N 
ATOM     15  N8  UNL     1      19.401  10.549   3.557 +4.12 -0.00    -0.263 NA
ATOM     16  N9  UNL     1      18.021  12.008   2.198 -0.36 -0.00    -0.263 NA
ATOM     17  N10 UNL     1      21.565  11.493   0.956 +5.13 -0.00    -0.348 N 
ENDROOT
BRANCH   1  18
ATOM     18  C18 UNL     1      14.971   8.933  -0.306 +5.59 +0.00    +0.273 C 
ATOM     19  N6  UNL     1      14.890   7.556  -0.202 +0.00 -0.00    -0.320 N 
ATOM     20  H61 UNL     1      15.531   7.087   0.421 -0.33 +0.00    +0.169 HD
ATOM     21  O3  UNL     1      14.312   9.608  -1.092+20.84 -0.00    -0.266 OA
BRANCH  19  22
ATOM     22  C15 UNL     1      14.036   6.732  -0.912 +0.71 +0.00    +0.053 A 
ATOM     23  C14 UNL     1      12.978   5.982  -0.344 -0.12 +0.00    +0.066 A 
ATOM     24  C13 UNL     1      12.358   5.256  -1.352 +4.02 +0.00    +0.105 A 
ATOM     25  N5  UNL     1      12.972   5.630  -2.530 +4.57 -0.00    -0.354 N 
ATOM     26  C16 UNL     1      14.014   6.484  -2.262 +9.13 +0.00    +0.120 A 
ATOM     27  C17 UNL     1      12.554   5.276  -3.870 +6.07 +0.00    +0.156 C 
BRANCH  24  28
ATOM     28  C12 UNL     1      11.241   4.340  -1.195 +0.60 +0.00    +0.273 C 
ATOM     29  N4  UNL     1      10.300   4.792  -0.290 -0.07 -0.00    -0.320 N 
ATOM     30  H60 UNL     1      10.399   5.734   0.060 +0.08 +0.00    +0.169 HD
ATOM     31  O2  UNL     1      11.158   3.309  -1.854 +1.49 -0.00    -0.266 OA
BRANCH  29  32
ATOM     32  C3  UNL     1       9.166   4.113   0.110 -0.10 +0.00    +0.053 A 
ATOM     33  C2  UNL     1       8.522   3.082  -0.527 -0.07 +0.00    +0.120 A 
ATOM     34  N1  UNL     1       7.459   2.687   0.247 -0.00 -0.00    -0.354 N 
ATOM     35  C1  UNL     1       6.644   1.527  -0.051 -0.13 +0.00    +0.156 C 
ATOM     36  C5  UNL     1       7.363   3.498   1.362 -0.09 +0.00    +0.104 A 
ATOM     37  C4  UNL     1       8.453   4.356   1.307 -0.11 +0.00    +0.066 A 
BRANCH  36  38
ATOM     38  C6  UNL     1       6.372   3.445   2.418 -0.08 +0.00    +0.268 C 
ATOM     39  N2  UNL     1       6.877   3.658   3.684 -0.07 -0.00    -0.356 N 
ATOM     40  H59 UNL     1       7.869   3.498   3.792 +0.07 +0.00    +0.162 HD
ATOM     41  O1  UNL     1       5.193   3.176   2.215 -0.06 -0.00    -0.266 OA
BRANCH  39  42
ATOM     42  C7  UNL     1       6.045   3.463   4.854 -0.10 +0.00    +0.125 C 
BRANCH  42  43
ATOM     43  C8  UNL     1       5.786   4.772   5.595 -0.33 +0.00    +0.050 C 
BRANCH  43  44
ATOM     44  C9  UNL     1       5.035   5.785   4.719 -0.05 +0.00    +0.273 C 
BRANCH  44  45
ATOM     45  N3  UNL     1       3.572   5.713   4.888 -0.14 +0.00    +0.080 N 
ATOM     46  C10 UNL     1       3.175   6.436   6.101 -0.13 +0.00    +0.309 C 
ATOM     47  C11 UNL     1       2.855   6.265   3.736 -0.10 +0.00    +0.309 C 
ENDBRANCH  44  45
ENDBRANCH  43  44
ENDBRANCH  42  43
ENDBRANCH  39  42
ENDBRANCH  36  38
ENDBRANCH  29  32
ENDBRANCH  24  28
ENDBRANCH  19  22
ENDBRANCH   1  18
BRANCH  12  48
ATOM     48  C32 UNL     1      23.732  10.197   1.077 +0.65 +0.00    +0.273 C 
ATOM     49  N11 UNL     1      23.820   8.908   0.580 -0.20 -0.00    -0.320 N 
ATOM     50  H62 UNL     1      23.004   8.320   0.650 +0.13 +0.00    +0.169 HD
ATOM     51  O4  UNL     1      24.672  10.984   1.140 +2.14 -0.00    -0.266 OA
BRANCH  49  52
ATOM     52  C33 UNL     1      24.945   8.320   0.033 -0.22 +0.00    +0.053 A 
ATOM     53  C34 UNL     1      26.226   8.808  -0.012 +1.56 +0.00    +0.120 A 
ATOM     54  N12 UNL     1      27.016   7.898  -0.668 +0.00 -0.00    -0.354 N 
ATOM     55  C35 UNL     1      26.270   6.793  -1.040 -0.28 +0.00    +0.105 A 
ATOM     56  C49 UNL     1      28.433   8.088  -0.905 +0.09 +0.00    +0.156 C 
ATOM     57  C36 UNL     1      24.970   7.060  -0.617 -0.40 +0.00    +0.066 A 
BRANCH  55  58
ATOM     58  C37 UNL     1      26.808   5.637  -1.754 -0.16 +0.00    +0.273 C 
ATOM     59  N13 UNL     1      25.919   4.581  -1.851 -0.23 -0.00    -0.320 N 
ATOM     60  H63 UNL     1      25.036   4.660  -1.375 +0.10 +0.00    +0.169 HD
ATOM     61  O5  UNL     1      27.953   5.626  -2.197 -0.19 -0.00    -0.266 OA
BRANCH  59  62
ATOM     62  C38 UNL     1      26.149   3.379  -2.496 -0.33 +0.00    +0.053 A 
ATOM     63  C39 UNL     1      25.240   2.548  -3.100 +7.65 +0.00    +0.120 A 
ATOM     64  N14 UNL     1      25.911   1.458  -3.597 -0.10 -0.00    -0.354 N 
ATOM     65  C40 UNL     1      27.267   1.569  -3.339 -0.17 +0.00    +0.104 A 
ATOM     66  C48 UNL     1      25.265   0.368  -4.300 -0.20 +0.00    +0.156 C 
ATOM     67  C41 UNL     1      27.418   2.764  -2.641 -0.26 +0.00    +0.066 A 
BRANCH  65  68
ATOM     68  C42 UNL     1      28.261   0.583  -3.733 +0.14 +0.00    +0.268 C 
ATOM     69  N15 UNL     1      29.560   1.048  -3.763 -0.04 -0.00    -0.356 N 
ATOM     70  H64 UNL     1      29.716   2.041  -3.685 +0.05 +0.00    +0.162 HD
ATOM     71  O6  UNL     1      27.984  -0.574  -4.038 -0.12 -0.00    -0.266 OA
BRANCH  69  72
ATOM     72  C43 UNL     1      30.653   0.222  -4.232 -0.08 +0.00    +0.125 C 
BRANCH  72  73
ATOM     73  C44 UNL     1      31.723   0.038  -3.157 -0.13 +0.00    +0.050 C 
BRANCH  73  74
ATOM     74  C45 UNL     1      31.277   0.668  -1.833 -0.07 +0.00    +0.273 C 
BRANCH  74  75
ATOM     75  N16 UNL     1      32.075   1.849  -1.459 -0.14 +0.00    +0.080 N 
ATOM     76  C46 UNL     1      32.001   2.132  -0.024 -0.11 +0.00    +0.309 C 
ATOM     77  C47 UNL     1      31.616   3.021  -2.213 -0.00 +0.00    +0.309 C 
ENDBRANCH  74  75
ENDBRANCH  73  74
ENDBRANCH  72  73
ENDBRANCH  69  72
ENDBRANCH  65  68
ENDBRANCH  59  62
ENDBRANCH  55  58
ENDBRANCH  49  52
ENDBRANCH  12  48
TORSDOF 18
TER
