REMARK  12 active torsions:
REMARK  status: ('A' for Active; 'I' for Inactive)
REMARK    1  A    between atoms: C1_1  and  N1_29 
REMARK    2  A    between atoms: C1_1  and  O5_44 
REMARK    3  A    between atoms: C3_3  and  N1_29 
REMARK    4  A    between atoms: C5_5  and  C7_7 
REMARK       I    between atoms: C7_7  and  N3_31 
REMARK    5  A    between atoms: C8_8  and  N3_31 
REMARK    6  A    between atoms: C10_10  and  C11_11 
REMARK       I    between atoms: C11_11  and  N6_35 
REMARK    7  A    between atoms: C12_12  and  N6_35 
REMARK    8  A    between atoms: C14_14  and  C16_16 
REMARK       I    between atoms: C16_16  and  N8_37 
REMARK    9  A    between atoms: C17_17  and  N8_37 
REMARK   10  A    between atoms: C19_19  and  C21_21 
REMARK       I    between atoms: C21_21  and  N10_39 
REMARK   11  A    between atoms: C22_22  and  C23_23 
REMARK   12  A    between atoms: C22_22  and  N10_39 
ROOT
HETATM    1  C11 UNL     1       1.667  -2.739   1.293  1.00  0.00     0.290 C 
HETATM    2  N6  UNL     1       0.657  -1.912   0.692  1.00  0.00    -0.319 N 
HETATM    3  O2  UNL     1       1.356  -3.851   1.797  1.00  0.00    -0.264 OA
HETATM    4  H32 UNL     1       0.959  -1.136   0.061  1.00  0.00     0.169 HD
ENDROOT
BRANCH   1   5
HETATM    5  C10 UNL     1       3.080  -2.298   1.288  1.00  0.00     0.178 A 
HETATM    6  N4  UNL     1       4.126  -3.008   1.781  1.00  0.00    -0.339 N 
HETATM    7  C9  UNL     1       5.215  -2.248   1.570  1.00  0.00     0.140 A 
HETATM    8  C27 UNL     1       4.120  -4.333   2.395  1.00  0.00     0.157 C 
HETATM    9  C8  UNL     1       4.797  -1.083   0.961  1.00  0.00     0.125 A 
HETATM   10  N5  UNL     1       3.463  -1.109   0.771  1.00  0.00    -0.323 N 
ATOM     11  H5  UNL     1       2.877  -0.396   0.337  1.00  0.00     0.169 HD
BRANCH   9  12
HETATM   12  N3  UNL     1       5.628  -0.005   0.511  1.00  0.00    -0.306 N 
HETATM   13  C7  UNL     1       6.987   0.187   0.931  1.00  0.00     0.274 C 
HETATM   14  O1  UNL     1       7.374  -0.269   2.041  1.00  0.00    -0.266 OA
HETATM   15  H31 UNL     1       5.193   0.714  -0.109  1.00  0.00     0.170 HD
BRANCH  13  16
HETATM   16  C5  UNL     1       7.926   0.988   0.120  1.00  0.00     0.105 A 
HETATM   17  C6  UNL     1       8.964   1.736   0.652  1.00  0.00     0.066 A 
HETATM   18  C3  UNL     1       9.589   2.332  -0.428  1.00  0.00     0.051 A 
HETATM   19  C4  UNL     1       8.915   1.943  -1.566  1.00  0.00     0.120 A 
HETATM   20  N2  UNL     1       7.917   1.102  -1.232  1.00  0.00    -0.354 N 
HETATM   21  C28 UNL     1       7.018   0.456  -2.186  1.00  0.00     0.156 C 
BRANCH  18  22
HETATM   22  N1  UNL     1      10.670   3.274  -0.402  1.00  0.00    -0.340 N 
HETATM   23  H30 UNL     1      10.781   3.911  -1.222  1.00  0.00     0.167 HD
BRANCH  22  24
HETATM   24  C1  UNL     1      11.776   3.340   0.658  1.00  0.00     0.111 C 
HETATM   25  C2  UNL     1      11.971   2.198   1.752  1.00  0.00     0.097 C 
BRANCH  24  26
HETATM   26  O5  UNL     1      12.797   4.379   0.546  1.00  0.00    -0.350 OA
HETATM   27  H35 UNL     1      13.479   3.997  -0.063  1.00  0.00     0.219 HD
ENDBRANCH  24  26
ENDBRANCH  22  24
ENDBRANCH  18  22
ENDBRANCH  13  16
ENDBRANCH   9  12
ENDBRANCH   1   5
BRANCH   2  28
HETATM   28  C12 UNL     1      -0.755  -2.114   0.854  1.00  0.00     0.053 A 
HETATM   29  C13 UNL     1      -1.394  -2.825   1.851  1.00  0.00     0.120 A 
HETATM   30  N7  UNL     1      -2.728  -2.717   1.690  1.00  0.00    -0.354 N 
HETATM   31  C14 UNL     1      -2.944  -1.929   0.606  1.00  0.00     0.105 A 
HETATM   32  C26 UNL     1      -3.728  -3.325   2.566  1.00  0.00     0.156 C 
HETATM   33  C15 UNL     1      -1.729  -1.532   0.068  1.00  0.00     0.066 A 
BRANCH  31  34
HETATM   34  C16 UNL     1      -4.270  -1.515   0.090  1.00  0.00     0.273 C 
HETATM   35  N8  UNL     1      -4.388  -0.909  -1.208  1.00  0.00    -0.320 N 
HETATM   36  H33 UNL     1      -3.619  -1.055  -1.899  1.00  0.00     0.169 HD
HETATM   37  O3  UNL     1      -5.303  -1.719   0.783  1.00  0.00    -0.266 OA
BRANCH  35  38
HETATM   38  C17 UNL     1      -5.538  -0.171  -1.647  1.00  0.00     0.053 A 
HETATM   39  C18 UNL     1      -5.800   0.175  -2.954  1.00  0.00     0.120 A 
HETATM   40  N9  UNL     1      -6.924   0.917  -3.004  1.00  0.00    -0.354 N 
HETATM   41  C19 UNL     1      -7.371   1.062  -1.730  1.00  0.00     0.104 A 
HETATM   42  C25 UNL     1      -7.511   1.465  -4.225  1.00  0.00     0.156 C 
HETATM   43  C20 UNL     1      -6.522   0.396  -0.857  1.00  0.00     0.066 A 
BRANCH  41  44
HETATM   44  C21 UNL     1      -8.562   1.844  -1.323  1.00  0.00     0.268 C 
HETATM   45  N10 UNL     1      -9.140   1.671  -0.018  1.00  0.00    -0.356 N 
HETATM   46  H34 UNL     1      -8.801   0.898   0.597  1.00  0.00     0.162 HD
HETATM   47  O4  UNL     1      -9.074   2.668  -2.128  1.00  0.00    -0.266 OA
BRANCH  45  48
HETATM   48  C22 UNL     1     -10.305   2.430   0.440  1.00  0.00     0.122 C 
BRANCH  48  49
HETATM   49  C23 UNL     1     -11.574   1.574   0.374  1.00  0.00     0.015 C 
HETATM   50  C24 UNL     1     -11.968   1.234  -1.062  1.00  0.00     0.006 C 
ENDBRANCH  48  49
ENDBRANCH  45  48
ENDBRANCH  41  44
ENDBRANCH  35  38
ENDBRANCH  31  34
ENDBRANCH   2  28
TORSDOF 12
