REMARK  0 active torsions:
REMARK  status: ('A' for Active; 'I' for Inactive)
REMARK       I    between atoms: C2_2  and  C3_3 
REMARK       I    between atoms: C2_2  and  O17_75 
REMARK       I    between atoms: C3_3  and  C4_4 
REMARK       I    between atoms: C3_3  and  N12_87 
REMARK       I    between atoms: C4_4  and  N1_76 
REMARK       I    between atoms: C5_5  and  C7_7 
REMARK       I    between atoms: C5_5  and  N1_76 
REMARK       I    between atoms: C7_7  and  N2_77 
REMARK       I    between atoms: C8_8  and  C9_9 
REMARK       I    between atoms: C8_8  and  C12_12 
REMARK       I    between atoms: C8_8  and  N2_77 
REMARK       I    between atoms: C12_12  and  N3_78 
REMARK       I    between atoms: C13_13  and  C14_14 
REMARK       I    between atoms: C13_13  and  C17_17 
REMARK       I    between atoms: C13_13  and  N3_78 
REMARK       I    between atoms: C17_17  and  N4_79 
REMARK       I    between atoms: C18_18  and  C19_19 
REMARK       I    between atoms: C18_18  and  C23_23 
REMARK       I    between atoms: C18_18  and  N4_79 
REMARK       I    between atoms: C19_19  and  C20_20 
REMARK       I    between atoms: C20_20  and  C21_21 
REMARK       I    between atoms: C21_21  and  C22_22 
REMARK       I    between atoms: C22_22  and  N5_80 
REMARK       I    between atoms: C23_23  and  N6_81 
REMARK       I    between atoms: C24_24  and  C25_25 
REMARK       I    between atoms: C24_24  and  C29_29 
REMARK       I    between atoms: C24_24  and  N6_81 
REMARK       I    between atoms: C25_25  and  C26_26 
REMARK       I    between atoms: C26_26  and  C27_27 
REMARK       I    between atoms: C27_27  and  C28_28 
REMARK       I    between atoms: C28_28  and  N7_82 
REMARK       I    between atoms: C29_29  and  N8_83 
REMARK       I    between atoms: C30_30  and  C31_31 
REMARK       I    between atoms: C30_30  and  C32_32 
REMARK       I    between atoms: C30_30  and  N8_83 
REMARK       I    between atoms: C31_31  and  O7_65 
REMARK       I    between atoms: C32_32  and  N9_84 
REMARK       I    between atoms: C33_33  and  C34_34 
REMARK       I    between atoms: C33_33  and  C35_35 
REMARK       I    between atoms: C33_33  and  N9_84 
REMARK       I    between atoms: C34_34  and  O9_67 
REMARK       I    between atoms: C35_35  and  N10_85 
REMARK       I    between atoms: C36_36  and  C38_38 
REMARK       I    between atoms: C36_36  and  N10_85 
REMARK       I    between atoms: C38_38  and  N11_86 
REMARK       I    between atoms: C39_39  and  C40_40 
REMARK       I    between atoms: C39_39  and  C43_43 
REMARK       I    between atoms: C39_39  and  N11_86 
REMARK       I    between atoms: C43_43  and  O13_71 
REMARK       I    between atoms: C44_44  and  C45_45 
REMARK       I    between atoms: C44_44  and  N12_87 
REMARK       I    between atoms: C45_45  and  C46_46 
REMARK       I    between atoms: C45_45  and  N13_88 
REMARK       I    between atoms: C46_46  and  C47_47 
REMARK       I    between atoms: C50_50  and  O15_73 
REMARK       I    between atoms: C53_53  and  C54_54 
REMARK       I    between atoms: C53_53  and  N13_88 
REMARK       I    between atoms: C54_54  and  C55_55 
REMARK       I    between atoms: C54_54  and  N16_92 
REMARK       I    between atoms: C55_55  and  C56_56 
ROOT
HETATM    1  C1  UNL     1      -4.220  -0.249   1.851  1.00  0.00     0.042 C 
HETATM    2  C2  UNL     1      -4.355  -0.756   0.421  1.00  0.00     0.146 C 
HETATM    3  C3  UNL     1      -4.986   0.297  -0.511  1.00  0.00     0.205 C 
HETATM    4  C4  UNL     1      -5.079  -0.257  -1.947  1.00  0.00     0.243 C 
HETATM    5  C5  UNL     1      -3.832  -0.977  -3.959  1.00  0.00     0.172 C 
HETATM    6  C6  UNL     1      -2.805  -0.307  -4.859  1.00  0.00     0.042 C 
HETATM    7  C7  UNL     1      -3.456  -2.445  -3.663  1.00  0.00     0.240 C 
HETATM    8  C8  UNL     1      -4.107  -4.309  -2.089  1.00  0.00     0.180 C 
HETATM    9  C9  UNL     1      -4.080  -5.654  -2.853  1.00  0.00     0.009 C 
HETATM   10  C10 UNL     1      -3.024  -5.825  -3.942  1.00  0.00     0.012 C 
HETATM   11  C11 UNL     1      -3.981  -6.825  -1.866  1.00  0.00     0.012 C 
HETATM   12  C12 UNL     1      -2.968  -4.035  -1.067  1.00  0.00     0.241 C 
HETATM   13  C13 UNL     1      -0.568  -3.427  -0.834  1.00  0.00     0.180 C 
HETATM   14  C14 UNL     1       0.731  -4.029  -1.430  1.00  0.00     0.009 C 
HETATM   15  C15 UNL     1       1.169  -3.360  -2.737  1.00  0.00     0.012 C 
HETATM   16  C16 UNL     1       1.897  -4.059  -0.440  1.00  0.00     0.012 C 
HETATM   17  C17 UNL     1      -0.609  -1.868  -0.809  1.00  0.00     0.241 C 
HETATM   18  C18 UNL     1       0.509   0.161   0.108  1.00  0.00     0.176 C 
HETATM   19  C19 UNL     1      -0.457   0.864   1.072  1.00  0.00     0.035 C 
HETATM   20  C20 UNL     1      -0.592   0.256   2.475  1.00  0.00     0.004 C 
HETATM   21  C21 UNL     1       0.610   0.415   3.409  1.00  0.00     0.030 C 
HETATM   22  C22 UNL     1       1.028   1.857   3.709  1.00  0.00     0.267 C 
HETATM   23  C23 UNL     1       2.007   0.417   0.383  1.00  0.00     0.241 C 
HETATM   24  C24 UNL     1       3.821   2.133   0.320  1.00  0.00     0.176 C 
HETATM   25  C25 UNL     1       3.980   3.482  -0.401  1.00  0.00     0.035 C 
HETATM   26  C26 UNL     1       5.436   3.782  -0.775  1.00  0.00     0.004 C 
HETATM   27  C27 UNL     1       5.602   5.080  -1.571  1.00  0.00     0.030 C 
HETATM   28  C28 UNL     1       5.308   6.333  -0.746  1.00  0.00     0.267 C 
HETATM   29  C29 UNL     1       4.329   2.192   1.784  1.00  0.00     0.241 C 
HETATM   30  C30 UNL     1       4.952   0.786   3.749  1.00  0.00     0.200 C 
HETATM   31  C31 UNL     1       4.381  -0.445   4.464  1.00  0.00     0.199 C 
HETATM   32  C32 UNL     1       6.470   0.608   3.524  1.00  0.00     0.243 C 
HETATM   33  C33 UNL     1       8.436   1.759   2.470  1.00  0.00     0.200 C 
HETATM   34  C34 UNL     1       9.539   1.041   3.261  1.00  0.00     0.199 C 
HETATM   35  C35 UNL     1       8.274   1.306   0.996  1.00  0.00     0.243 C 
HETATM   36  C36 UNL     1       9.427   0.609  -1.080  1.00  0.00     0.172 C 
HETATM   37  C37 UNL     1       9.188   1.759  -2.053  1.00  0.00     0.042 C 
HETATM   38  C38 UNL     1      10.783  -0.066  -1.365  1.00  0.00     0.240 C 
HETATM   39  C39 UNL     1      12.112  -1.309  -3.037  1.00  0.00     0.185 C 
HETATM   40  C40 UNL     1      11.965  -2.654  -3.780  1.00  0.00     0.010 C 
HETATM   41  C41 UNL     1      11.564  -3.769  -2.810  1.00  0.00     0.012 C 
HETATM   42  C42 UNL     1      10.978  -2.603  -4.951  1.00  0.00     0.012 C 
HETATM   43  C43 UNL     1      12.726  -0.239  -3.946  1.00  0.00     0.163 C 
HETATM   44  C44 UNL     1      -6.907   1.856  -0.290  1.00  0.00     0.241 C 
HETATM   45  C45 UNL     1      -8.439   1.890  -0.082  1.00  0.00     0.180 C 
HETATM   46  C46 UNL     1      -8.898   3.310   0.298  1.00  0.00     0.073 C 
HETATM   47  C47 UNL     1     -10.376   3.396   0.595  1.00  0.00    -0.056 A 
HETATM   48  C48 UNL     1     -10.805   3.578   1.916  1.00  0.00     0.010 A 
HETATM   49  C49 UNL     1     -12.161   3.532   2.226  1.00  0.00     0.037 A 
HETATM   50  C50 UNL     1     -13.084   3.296   1.215  1.00  0.00     0.065 A 
HETATM   51  C51 UNL     1     -12.687   3.189  -0.111  1.00  0.00     0.037 A 
HETATM   52  C52 UNL     1     -11.328   3.237  -0.423  1.00  0.00     0.010 A 
HETATM   53  C53 UNL     1      -8.678   0.787   2.150  1.00  0.00     0.251 C 
HETATM   54  C54 UNL     1      -9.127  -0.487   2.923  1.00  0.00     0.314 C 
HETATM   55  C55 UNL     1     -10.526  -1.048   2.606  1.00  0.00     0.103 C 
HETATM   56  C56 UNL     1     -11.689  -0.263   3.110  1.00  0.00     0.028 A 
HETATM   57  C57 UNL     1     -12.841   0.186   2.503  1.00  0.00     0.114 A 
HETATM   58  C58 UNL     1     -13.025   0.752   4.553  1.00  0.00     0.180 A 
HETATM   59  O1  UNL     1      -6.122  -0.720  -2.416  1.00  0.00    -0.271 OA
HETATM   60  O2  UNL     1      -2.393  -2.951  -4.016  1.00  0.00    -0.271 OA
HETATM   61  O3  UNL     1      -3.195  -3.872   0.134  1.00  0.00    -0.271 OA
HETATM   62  O4  UNL     1      -1.383  -1.191  -1.490  1.00  0.00    -0.271 OA
HETATM   63  O5  UNL     1       2.792  -0.492   0.658  1.00  0.00    -0.271 OA
HETATM   64  O6  UNL     1       4.796   3.202   2.310  1.00  0.00    -0.271 OA
HETATM   65  O7  UNL     1       4.880  -0.563   5.794  1.00  0.00    -0.398 OA
HETATM   66  O8  UNL     1       7.053  -0.460   3.702  1.00  0.00    -0.271 OA
HETATM   67  O9  UNL     1       9.559  -0.366   3.052  1.00  0.00    -0.398 OA
HETATM   68  O10 UNL     1       7.171   1.250   0.446  1.00  0.00    -0.271 OA
HETATM   69  O11 UNL     1      11.742   0.045  -0.602  1.00  0.00    -0.271 OA
HETATM   70  O12 UNL     1      12.128   0.691  -4.469  1.00  0.00    -0.648 OA
HETATM   71  O13 UNL     1      14.042  -0.422  -4.171  1.00  0.00    -0.775 OA
HETATM   72  O14 UNL     1      -6.265   2.809  -0.725  1.00  0.00    -0.271 OA
HETATM   73  O15 UNL     1     -14.394   3.080   1.527  1.00  0.00    -0.361 OA
HETATM   74  O16 UNL     1      -8.049   1.680   2.721  1.00  0.00    -0.271 OA
HETATM   75  O17 UNL     1      -5.154  -1.948   0.454  1.00  0.00    -0.393 OA
HETATM   76  N1  UNL     1      -3.901  -0.283  -2.667  1.00  0.00    -0.346 N 
HETATM   77  N2  UNL     1      -4.381  -3.109  -2.881  1.00  0.00    -0.346 N 
HETATM   78  N3  UNL     1      -1.709  -3.922  -1.605  1.00  0.00    -0.346 N 
HETATM   79  N4  UNL     1       0.290  -1.280   0.050  1.00  0.00    -0.346 N 
HETATM   80  N5  UNL     1      -0.072   2.642   4.250  1.00  0.00     0.078 N 
HETATM   81  N6  UNL     1       2.410   1.727   0.280  1.00  0.00    -0.346 N 
HETATM   82  N7  UNL     1       5.541   7.528  -1.549  1.00  0.00     0.078 N 
HETATM   83  N8  UNL     1       4.306   0.984   2.448  1.00  0.00    -0.344 N 
HETATM   84  N9  UNL     1       7.116   1.756   3.113  1.00  0.00    -0.344 N 
HETATM   85  N10 UNL     1       9.440   1.085   0.301  1.00  0.00    -0.346 N 
HETATM   86  N11 UNL     1      10.833  -0.801  -2.532  1.00  0.00    -0.345 N 
HETATM   87  N12 UNL     1      -6.342   0.618  -0.083  1.00  0.00    -0.344 N 
HETATM   88  N13 UNL     1      -8.904   0.795   0.793  1.00  0.00    -0.346 N 
HETATM   89  N14 UNL     1     -13.652   0.843   3.401  1.00  0.00    -0.360 N 
ATOM     90  H14 UNL     1     -14.544   1.300   3.213  1.00  0.00     0.166 HD
HETATM   91  N15 UNL     1     -11.840   0.087   4.429  1.00  0.00    -0.355 N 
HETATM   92  N16 UNL     1      -8.928  -0.257   4.388  1.00  0.00     0.092 N 
HETATM   93  H74 UNL     1       5.798  -0.891   5.718  1.00  0.00     0.209 HD
HETATM   94  H75 UNL     1       8.683  -0.700   3.353  1.00  0.00     0.209 HD
HETATM   95  H76 UNL     1      14.300   0.333  -4.740  1.00  0.00     0.167 HD
HETATM   96  H77 UNL     1     -14.384   2.527   2.339  1.00  0.00     0.217 HD
HETATM   97  H78 UNL     1      -4.546  -2.676   0.711  1.00  0.00     0.210 HD
HETATM   98  H79 UNL     1      -3.023  -0.262  -2.145  1.00  0.00     0.163 HD
HETATM   99  H80 UNL     1      -5.205  -2.573  -2.611  1.00  0.00     0.163 HD
HETATM  100  H81 UNL     1      -1.697  -3.692  -2.602  1.00  0.00     0.163 HD
HETATM  101  H82 UNL     1       0.920  -1.851   0.603  1.00  0.00     0.163 HD
HETATM  102  H83 UNL     1       0.269   3.566   4.515  1.00  0.00     0.312 HD
HETATM  103  H84 UNL     1      -0.409   2.213   5.113  1.00  0.00     0.312 HD
HETATM  104  H85 UNL     1       1.714   2.458   0.183  1.00  0.00     0.163 HD
HETATM  105  H86 UNL     1       5.387   8.356  -0.975  1.00  0.00     0.312 HD
HETATM  106  H87 UNL     1       6.518   7.562  -1.838  1.00  0.00     0.312 HD
HETATM  107  H88 UNL     1       4.127   0.161   1.868  1.00  0.00     0.163 HD
HETATM  108  H89 UNL     1       6.495   2.512   2.819  1.00  0.00     0.163 HD
HETATM  109  H90 UNL     1      10.274   0.830   0.827  1.00  0.00     0.163 HD
HETATM  110  H91 UNL     1      10.138  -0.580  -3.236  1.00  0.00     0.163 HD
HETATM  111  H92 UNL     1      -6.973  -0.171  -0.005  1.00  0.00     0.163 HD
HETATM  112  H93 UNL     1      -9.707   0.286   0.450  1.00  0.00     0.163 HD
HETATM  113  H94 UNL     1     -11.170  -0.110   5.165  1.00  0.00     0.166 HD
HETATM  114  H95 UNL     1      -7.921  -0.342   4.558  1.00  0.00     0.313 HD
HETATM  115  H96 UNL     1      -9.064   0.754   4.528  1.00  0.00     0.313 HD
ENDROOT
TORSDOF 49
