REMARK  0 active torsions:
REMARK  status: ('A' for Active; 'I' for Inactive)
REMARK       I    between atoms: C2_2  and  C3_3 
REMARK       I    between atoms: C3_3  and  C5_5 
REMARK       I    between atoms: C5_5  and  C6_6 
REMARK       I    between atoms: C5_5  and  N3_86 
REMARK       I    between atoms: C6_6  and  C7_7 
REMARK       I    between atoms: C6_6  and  O5_73 
REMARK       I    between atoms: C7_7  and  C8_8 
REMARK       I    between atoms: C8_8  and  N1_84 
REMARK       I    between atoms: C12_12  and  C13_13 
REMARK       I    between atoms: C13_13  and  C14_14 
REMARK       I    between atoms: C13_13  and  O4_72 
REMARK       I    between atoms: C14_14  and  C16_16 
REMARK       I    between atoms: C16_16  and  N2_85 
REMARK       I    between atoms: C17_17  and  C19_19 
REMARK       I    between atoms: C17_17  and  N2_85 
REMARK       I    between atoms: C19_19  and  C20_20 
REMARK       I    between atoms: C19_19  and  O3_71 
REMARK       I    between atoms: C29_29  and  C30_30 
REMARK       I    between atoms: C29_29  and  N3_86 
REMARK       I    between atoms: C30_30  and  C31_31 
REMARK       I    between atoms: C30_30  and  N4_87 
REMARK       I    between atoms: C34_34  and  C35_35 
REMARK       I    between atoms: C34_34  and  N4_87 
REMARK       I    between atoms: C35_35  and  C36_36 
REMARK       I    between atoms: C35_35  and  N5_88 
REMARK       I    between atoms: C40_40  and  O9_77 
REMARK       I    between atoms: C40_40  and  N5_88 
REMARK       I    between atoms: C41_41  and  C42_42 
REMARK       I    between atoms: C41_41  and  O9_77 
REMARK       I    between atoms: C45_45  and  N6_89 
REMARK       I    between atoms: C48_48  and  C49_49 
REMARK       I    between atoms: C48_48  and  N6_89 
REMARK       I    between atoms: C49_49  and  C50_50 
REMARK       I    between atoms: C49_49  and  N9_92 
REMARK       I    between atoms: C50_50  and  C51_51 
REMARK       I    between atoms: C51_51  and  C52_52 
REMARK       I    between atoms: C52_52  and  N7_90 
REMARK       I    between atoms: C53_53  and  N7_90 
REMARK       I    between atoms: C53_53  and  N8_91 
REMARK       I    between atoms: C54_54  and  C55_55 
REMARK       I    between atoms: C54_54  and  N9_92 
REMARK       I    between atoms: C55_55  and  C56_56 
REMARK       I    between atoms: C55_55  and  N10_93 
REMARK       I    between atoms: C59_59  and  C60_60 
REMARK       I    between atoms: C59_59  and  N10_93 
REMARK       I    between atoms: C60_60  and  C61_61 
REMARK       I    between atoms: C61_61  and  C62_62 
REMARK       I    between atoms: C62_62  and  C63_63 
REMARK       I    between atoms: C63_63  and  C64_64 
REMARK       I    between atoms: C64_64  and  N11_94 
REMARK       I    between atoms: C67_67  and  S1_95 
ROOT
HETATM    1  C1  UNL     1      -6.268  -4.672   3.583  1.00  0.00     0.005 C 
HETATM    2  C2  UNL     1      -7.530  -4.269   2.830  1.00  0.00     0.002 C 
HETATM    3  C3  UNL     1      -8.015  -2.824   3.123  1.00  0.00     0.006 C 
HETATM    4  C4  UNL     1      -9.449  -2.703   2.593  1.00  0.00     0.012 C 
HETATM    5  C5  UNL     1      -7.016  -1.742   2.586  1.00  0.00     0.119 C 
HETATM    6  C6  UNL     1      -7.069  -1.473   1.038  1.00  0.00     0.152 C 
HETATM    7  C7  UNL     1      -8.112  -0.454   0.573  1.00  0.00     0.137 C 
HETATM    8  C8  UNL     1      -8.339  -0.641  -0.913  1.00  0.00     0.222 C 
HETATM    9  C9  UNL     1      -7.809  -0.020  -3.213  1.00  0.00     0.126 C 
HETATM   10  C10 UNL     1      -7.229   1.207  -3.885  1.00  0.00     0.022 C 
HETATM   11  C11 UNL     1      -6.340   1.803  -2.803  1.00  0.00     0.029 C 
HETATM   12  C12 UNL     1      -7.087   1.533  -1.492  1.00  0.00     0.117 C 
HETATM   13  C13 UNL     1      -8.029   2.684  -1.004  1.00  0.00     0.156 C 
HETATM   14  C14 UNL     1      -7.343   3.799  -0.184  1.00  0.00     0.105 C 
HETATM   15  C15 UNL     1      -6.702   3.290   1.107  1.00  0.00     0.022 C 
HETATM   16  C16 UNL     1      -6.343   4.630  -0.980  1.00  0.00     0.224 C 
HETATM   17  C17 UNL     1      -6.123   6.625  -2.453  1.00  0.00     0.113 C 
HETATM   18  C18 UNL     1      -6.924   7.921  -2.564  1.00  0.00     0.035 C 
HETATM   19  C19 UNL     1      -5.513   6.170  -3.815  1.00  0.00     0.173 C 
HETATM   20  C20 UNL     1      -6.505   6.066  -4.957  1.00  0.00    -0.028 A 
HETATM   21  C21 UNL     1      -6.512   7.035  -5.975  1.00  0.00     0.010 A 
HETATM   22  C22 UNL     1      -7.437   6.968  -7.019  1.00  0.00     0.001 A 
HETATM   23  C23 UNL     1      -8.367   5.932  -7.063  1.00  0.00     0.000 A 
HETATM   24  C24 UNL     1      -8.369   4.961  -6.065  1.00  0.00     0.001 A 
HETATM   25  C25 UNL     1      -7.444   5.029  -5.022  1.00  0.00     0.010 A 
HETATM   26  C26 UNL     1     -10.065   2.837  -2.248  1.00  0.00     0.202 C 
HETATM   27  C27 UNL     1      -4.953  -1.897   0.002  1.00  0.00     0.202 C 
HETATM   28  C28 UNL     1      -8.187   0.148   3.846  1.00  0.00     0.153 C 
HETATM   29  C29 UNL     1      -5.786   0.278   3.525  1.00  0.00     0.243 C 
HETATM   30  C30 UNL     1      -4.403  -0.428   3.460  1.00  0.00     0.180 C 
HETATM   31  C31 UNL     1      -4.153  -1.247   4.751  1.00  0.00     0.009 C 
HETATM   32  C32 UNL     1      -2.947  -2.180   4.606  1.00  0.00     0.012 C 
HETATM   33  C33 UNL     1      -3.981  -0.370   5.996  1.00  0.00     0.012 C 
HETATM   34  C34 UNL     1      -2.303   0.402   2.410  1.00  0.00     0.241 C 
HETATM   35  C35 UNL     1      -1.400   1.650   2.225  1.00  0.00     0.184 C 
HETATM   36  C36 UNL     1      -1.955   2.663   1.184  1.00  0.00     0.010 C 
HETATM   37  C37 UNL     1      -2.880   3.693   1.847  1.00  0.00     0.012 C 
HETATM   38  C38 UNL     1      -2.686   2.018   0.001  1.00  0.00     0.012 C 
HETATM   39  C39 UNL     1       0.413   0.819   0.647  1.00  0.00     0.156 C 
HETATM   40  C40 UNL     1       0.726   0.837   3.106  1.00  0.00     0.363 C 
HETATM   41  C41 UNL     1       2.682  -0.146   3.930  1.00  0.00     0.219 C 
HETATM   42  C42 UNL     1       3.990  -0.727   3.448  1.00  0.00    -0.034 A 
HETATM   43  C43 UNL     1       4.417  -1.986   3.885  1.00  0.00     0.011 A 
HETATM   44  C44 UNL     1       5.637  -2.520   3.451  1.00  0.00     0.030 A 
HETATM   45  C45 UNL     1       6.451  -1.803   2.574  1.00  0.00     0.034 A 
HETATM   46  C46 UNL     1       6.033  -0.538   2.149  1.00  0.00     0.030 A 
HETATM   47  C47 UNL     1       4.817  -0.002   2.583  1.00  0.00     0.011 A 
HETATM   48  C48 UNL     1       8.372  -3.407   2.463  1.00  0.00     0.245 C 
HETATM   49  C49 UNL     1       9.726  -3.596   1.733  1.00  0.00     0.177 C 
HETATM   50  C50 UNL     1      10.811  -2.718   2.375  1.00  0.00     0.036 C 
HETATM   51  C51 UNL     1      11.110  -3.025   3.846  1.00  0.00     0.022 C 
HETATM   52  C52 UNL     1      11.656  -4.430   4.079  1.00  0.00     0.124 C 
HETATM   53  C53 UNL     1      12.805  -5.638   5.854  1.00  0.00     0.291 C 
HETATM   54  C54 UNL     1       9.142  -4.176  -0.606  1.00  0.00     0.241 C 
HETATM   55  C55 UNL     1       8.904  -3.564  -2.005  1.00  0.00     0.180 C 
HETATM   56  C56 UNL     1       9.112  -4.601  -3.137  1.00  0.00     0.009 C 
HETATM   57  C57 UNL     1       9.378  -3.895  -4.472  1.00  0.00     0.012 C 
HETATM   58  C58 UNL     1       7.956  -5.593  -3.318  1.00  0.00     0.012 C 
HETATM   59  C59 UNL     1       7.314  -1.744  -1.427  1.00  0.00     0.218 C 
HETATM   60  C60 UNL     1       5.877  -1.293  -1.620  1.00  0.00     0.103 C 
HETATM   61  C61 UNL     1       5.675   0.215  -1.484  1.00  0.00     0.009 C 
HETATM   62  C62 UNL     1       5.789   1.004  -2.795  1.00  0.00     0.002 C 
HETATM   63  C63 UNL     1       7.209   1.170  -3.342  1.00  0.00     0.020 C 
HETATM   64  C64 UNL     1       7.567   0.150  -4.426  1.00  0.00     0.135 C 
HETATM   65  C65 UNL     1      10.048   0.056  -4.534  1.00  0.00     0.228 C 
HETATM   66  C66 UNL     1      11.156   0.662  -5.343  1.00  0.00     0.128 C 
HETATM   67  C67 UNL     1      10.443   1.342  -6.502  1.00  0.00     0.145 C 
HETATM   68  C68 UNL     1       8.983   1.284  -6.120  1.00  0.00     0.240 C 
HETATM   69  O1  UNL     1      -8.939  -1.645  -1.307  1.00  0.00    -0.273 OA
HETATM   70  O2  UNL     1      -5.126   4.475  -0.920  1.00  0.00    -0.273 OA
HETATM   71  O3  UNL     1      -4.802   4.934  -3.702  1.00  0.00    -0.389 OA
HETATM   72  O4  UNL     1      -8.736   3.323  -2.084  1.00  0.00    -0.388 OA
HETATM   73  O5  UNL     1      -5.796  -0.930   0.623  1.00  0.00    -0.388 OA
HETATM   74  O6  UNL     1      -5.836   1.489   3.782  1.00  0.00    -0.271 OA
HETATM   75  O7  UNL     1      -2.094  -0.670   1.841  1.00  0.00    -0.271 OA
HETATM   76  O8  UNL     1       0.332   0.980   4.258  1.00  0.00    -0.238 OA
HETATM   77  O9  UNL     1       1.927   0.284   2.794  1.00  0.00    -0.299 OA
HETATM   78  O10 UNL     1       8.078  -4.127   3.417  1.00  0.00    -0.271 OA
HETATM   79  O11 UNL     1      13.470  -6.337   5.107  1.00  0.00    -0.254 OA
HETATM   80  O12 UNL     1       8.861  -5.332  -0.310  1.00  0.00    -0.271 OA
HETATM   81  O13 UNL     1       8.143  -1.130  -0.761  1.00  0.00    -0.274 OA
HETATM   82  O14 UNL     1      10.228  -0.652  -3.555  1.00  0.00    -0.273 OA
HETATM   83  O15 UNL     1       8.077   1.867  -6.697  1.00  0.00    -0.272 OA
HETATM   84  N1  UNL     1      -7.839   0.293  -1.793  1.00  0.00    -0.345 N 
HETATM   85  N2  UNL     1      -6.919   5.607  -1.761  1.00  0.00    -0.354 N 
HETATM   86  N3  UNL     1      -6.951  -0.498   3.419  1.00  0.00    -0.347 N 
HETATM   87  N4  UNL     1      -3.387   0.596   3.235  1.00  0.00    -0.346 N 
HETATM   88  N5  UNL     1       0.000   1.229   1.984  1.00  0.00    -0.319 N 
HETATM   89  N6  UNL     1       7.675  -2.276   2.066  1.00  0.00    -0.325 N 
HETATM   90  N7  UNL     1      11.954  -4.638   5.482  1.00  0.00    -0.348 N 
HETATM   91  N8  UNL     1      12.856  -5.781   7.203  1.00  0.00    -0.254 NA
HETATM   92  N9  UNL     1       9.613  -3.257   0.315  1.00  0.00    -0.346 N 
HETATM   93  N10 UNL     1       7.573  -2.954  -2.033  1.00  0.00    -0.347 N 
HETATM   94  N11 UNL     1       8.848   0.456  -5.041  1.00  0.00    -0.287 N 
HETATM   95  S1  UNL     1      10.712   0.474  -8.082  1.00  0.00    -0.167 SA
HETATM   96  H98 UNL     1      -4.605   4.795  -2.753  1.00  0.00     0.210 HD
HETATM   97  H99 UNL     1      -7.865   5.426  -2.087  1.00  0.00     0.163 HD
HETATM   98  HA0 UNL     1      -3.578   1.509   3.635  1.00  0.00     0.163 HD
HETATM   99  HA1 UNL     1       8.095  -1.717   1.329  1.00  0.00     0.169 HD
HETATM  100  HA2 UNL     1      11.173  -4.535   6.115  1.00  0.00     0.163 HD
HETATM  101  HA3 UNL     1      12.831  -4.921   7.731  1.00  0.00     0.128 HD
HETATM  102  HA4 UNL     1      13.579  -6.427   7.495  1.00  0.00     0.128 HD
HETATM  103  HA5 UNL     1       9.555  -2.278   0.033  1.00  0.00     0.163 HD
HETATM  104  HA6 UNL     1       6.786  -3.584  -2.131  1.00  0.00     0.163 HD
HETATM  105  HA7 UNL     1      10.028  -0.641  -7.784  1.00  0.00     0.102 HD
ENDROOT
TORSDOF 41
