REMARK  0 active torsions:
REMARK  status: ('A' for Active; 'I' for Inactive)
REMARK       I    between atoms: C2_2  and  C3_3 
REMARK       I    between atoms: C2_2  and  O16_62 
REMARK       I    between atoms: C3_3  and  C4_4 
REMARK       I    between atoms: C3_3  and  N11_74 
REMARK       I    between atoms: C4_4  and  N1_63 
REMARK       I    between atoms: C5_5  and  C6_6 
REMARK       I    between atoms: C5_5  and  C7_7 
REMARK       I    between atoms: C5_5  and  N1_63 
REMARK       I    between atoms: C6_6  and  O2_48 
REMARK       I    between atoms: C7_7  and  N2_64 
REMARK       I    between atoms: C8_8  and  C9_9 
REMARK       I    between atoms: C8_8  and  N2_64 
REMARK       I    between atoms: C9_9  and  C10_10 
REMARK       I    between atoms: C9_9  and  N4_66 
REMARK       I    between atoms: C10_10  and  C11_11 
REMARK       I    between atoms: C11_11  and  C12_12 
REMARK       I    between atoms: C12_12  and  N3_65 
REMARK       I    between atoms: C13_13  and  N3_65 
REMARK       I    between atoms: C15_15  and  N4_66 
REMARK       I    between atoms: C20_20  and  C21_21 
REMARK       I    between atoms: C20_20  and  N4_66 
REMARK       I    between atoms: C21_21  and  N6_68 
REMARK       I    between atoms: C23_23  and  C24_24 
REMARK       I    between atoms: C23_23  and  N6_68 
REMARK       I    between atoms: C27_27  and  C28_28 
REMARK       I    between atoms: C28_28  and  C29_29 
REMARK       I    between atoms: C28_28  and  N9_72 
REMARK       I    between atoms: C29_29  and  C30_30 
REMARK       I    between atoms: C33_33  and  O11_57 
REMARK       I    between atoms: C36_36  and  C37_37 
REMARK       I    between atoms: C36_36  and  N9_72 
REMARK       I    between atoms: C37_37  and  C38_38 
REMARK       I    between atoms: C38_38  and  C39_39 
REMARK       I    between atoms: C39_39  and  C40_40 
REMARK       I    between atoms: C39_39  and  N10_73 
REMARK       I    between atoms: C40_40  and  O14_60 
REMARK       I    between atoms: C41_41  and  C42_42 
REMARK       I    between atoms: C41_41  and  N11_74 
REMARK       I    between atoms: C42_42  and  C43_43 
REMARK       I    between atoms: C42_42  and  N13_76 
REMARK       I    between atoms: C43_43  and  C44_44 
REMARK       I    between atoms: C44_44  and  C45_45 
REMARK       I    between atoms: C45_45  and  C46_46 
REMARK       I    between atoms: C46_46  and  N12_75 
REMARK       I    between atoms: O6_52  and  N3_65 
REMARK       I    between atoms: O8_54  and  N5_67 
ROOT
HETATM    1  C1  UNL     1       4.988  -3.458   3.020  1.00  0.00     0.042 C 
HETATM    2  C2  UNL     1       5.174  -4.494   1.916  1.00  0.00     0.146 C 
HETATM    3  C3  UNL     1       6.057  -4.006   0.746  1.00  0.00     0.205 C 
HETATM    4  C4  UNL     1       5.509  -2.725   0.083  1.00  0.00     0.243 C 
HETATM    5  C5  UNL     1       3.581  -1.724  -1.135  1.00  0.00     0.200 C 
HETATM    6  C6  UNL     1       3.159  -0.603  -0.172  1.00  0.00     0.199 C 
HETATM    7  C7  UNL     1       2.386  -2.332  -1.901  1.00  0.00     0.249 C 
HETATM    8  C8  UNL     1       0.188  -1.495  -2.164  1.00  0.00     0.247 C 
HETATM    9  C9  UNL     1      -0.684  -0.230  -2.454  1.00  0.00     0.180 C 
HETATM   10  C10 UNL     1       0.077   1.098  -2.621  1.00  0.00     0.036 C 
HETATM   11  C11 UNL     1       0.612   1.292  -4.046  1.00  0.00     0.020 C 
HETATM   12  C12 UNL     1       1.713   2.349  -4.107  1.00  0.00     0.130 C 
HETATM   13  C13 UNL     1       3.917   2.908  -3.061  1.00  0.00     0.218 C 
HETATM   14  C14 UNL     1       3.573   4.368  -2.950  1.00  0.00     0.113 C 
HETATM   15  C15 UNL     1      -1.415  -0.172   0.004  1.00  0.00     0.182 C 
HETATM   16  C16 UNL     1      -1.029   1.163   0.667  1.00  0.00     0.037 C 
HETATM   17  C17 UNL     1      -0.621   0.988   2.136  1.00  0.00     0.025 C 
HETATM   18  C18 UNL     1      -1.235  -0.245   2.794  1.00  0.00     0.159 C 
HETATM   19  C19 UNL     1      -2.548  -0.872   0.811  1.00  0.00     0.266 C 
HETATM   20  C20 UNL     1      -2.948   0.623  -1.734  1.00  0.00     0.243 C 
HETATM   21  C21 UNL     1      -3.425   0.714  -3.204  1.00  0.00     0.172 C 
HETATM   22  C22 UNL     1      -4.039  -0.612  -3.631  1.00  0.00     0.042 C 
HETATM   23  C23 UNL     1      -4.010   3.096  -3.384  1.00  0.00     0.241 C 
HETATM   24  C24 UNL     1      -5.118   4.145  -3.109  1.00  0.00     0.176 C 
HETATM   25  C25 UNL     1      -4.558   5.524  -2.806  1.00  0.00     0.054 C 
HETATM   26  C26 UNL     1      -3.805   5.502  -1.482  1.00  0.00     0.123 C 
HETATM   27  C27 UNL     1      -5.424   3.923  -0.705  1.00  0.00     0.097 C 
HETATM   28  C28 UNL     1      -5.981   3.019   0.444  1.00  0.00     0.155 C 
HETATM   29  C29 UNL     1      -6.009   3.805   1.776  1.00  0.00     0.071 C 
HETATM   30  C30 UNL     1      -6.425   2.952   2.959  1.00  0.00    -0.056 A 
HETATM   31  C31 UNL     1      -7.596   3.244   3.673  1.00  0.00     0.010 A 
HETATM   32  C32 UNL     1      -8.000   2.424   4.728  1.00  0.00     0.037 A 
HETATM   33  C33 UNL     1      -7.235   1.317   5.076  1.00  0.00     0.065 A 
HETATM   34  C34 UNL     1      -6.061   1.023   4.394  1.00  0.00     0.037 A 
HETATM   35  C35 UNL     1      -5.655   1.843   3.340  1.00  0.00     0.010 A 
HETATM   36  C36 UNL     1      -7.430   1.344  -0.691  1.00  0.00     0.218 C 
HETATM   37  C37 UNL     1      -8.659   0.489  -0.463  1.00  0.00     0.105 C 
HETATM   38  C38 UNL     1      -8.716  -0.199   0.906  1.00  0.00     0.056 C 
HETATM   39  C39 UNL     1      -8.031  -1.574   0.947  1.00  0.00     0.315 C 
HETATM   40  C40 UNL     1      -6.500  -1.457   0.961  1.00  0.00     0.173 C 
HETATM   41  C41 UNL     1       8.338  -4.715   1.440  1.00  0.00     0.251 C 
HETATM   42  C42 UNL     1       9.782  -4.215   1.686  1.00  0.00     0.308 C 
HETATM   43  C43 UNL     1      10.414  -3.757   0.362  1.00  0.00     0.045 C 
HETATM   44  C44 UNL     1      11.839  -3.199   0.478  1.00  0.00     0.004 C 
HETATM   45  C45 UNL     1      12.005  -1.994   1.412  1.00  0.00     0.030 C 
HETATM   46  C46 UNL     1      11.109  -0.790   1.114  1.00  0.00     0.267 C 
HETATM   47  O1  UNL     1       6.185  -1.699  -0.018  1.00  0.00    -0.271 OA
HETATM   48  O2  UNL     1       2.131  -1.033   0.722  1.00  0.00    -0.398 OA
HETATM   49  O3  UNL     1       2.299  -3.550  -2.070  1.00  0.00    -0.271 OA
HETATM   50  O4  UNL     1      -0.349  -2.519  -1.740  1.00  0.00    -0.271 OA
HETATM   51  O5  UNL     1       5.073   2.490  -2.981  1.00  0.00    -0.278 OA
HETATM   52  O6  UNL     1       3.330   0.702  -3.502  1.00  0.00    -0.306 OA
HETATM   53  O7  UNL     1      -3.398  -1.612   0.308  1.00  0.00    -0.269 OA
HETATM   54  O8  UNL     1      -3.299  -1.405   2.994  1.00  0.00    -0.285 OA
HETATM   55  O9  UNL     1      -3.649   1.088  -0.829  1.00  0.00    -0.271 OA
HETATM   56  O10 UNL     1      -2.871   3.394  -3.746  1.00  0.00    -0.271 OA
HETATM   57  O11 UNL     1      -7.674   0.533   6.100  1.00  0.00    -0.361 OA
HETATM   58  O12 UNL     1      -6.672   1.160  -1.641  1.00  0.00    -0.274 OA
HETATM   59  O13 UNL     1      -5.811  -1.240   1.950  1.00  0.00    -0.648 OA
HETATM   60  O14 UNL     1      -5.956  -1.622  -0.258  1.00  0.00    -0.775 OA
HETATM   61  O15 UNL     1       8.016  -5.898   1.525  1.00  0.00    -0.271 OA
HETATM   62  O16 UNL     1       3.880  -4.874   1.429  1.00  0.00    -0.393 OA
HETATM   63  N1  UNL     1       4.232  -2.810  -0.403  1.00  0.00    -0.344 N 
HETATM   64  N2  UNL     1       1.529  -1.428  -2.487  1.00  0.00    -0.294 N 
HETATM   65  N3  UNL     1       2.855   2.027  -3.247  1.00  0.00    -0.133 NA
HETATM   66  N4  UNL     1      -1.760  -0.050  -1.439  1.00  0.00    -0.323 N 
HETATM   67  N5  UNL     1      -2.496  -0.584   2.170  1.00  0.00    -0.227 N 
HETATM   68  N6  UNL     1      -4.423   1.777  -3.274  1.00  0.00    -0.346 N 
HETATM   69  N7  UNL     1      -4.450   4.722  -0.422  1.00  0.00    -0.378 N 
ATOM     70  H7  UNL     1      -4.129   4.811   0.542  1.00  0.00     0.160 HD
HETATM   71  N8  UNL     1      -5.946   3.779  -1.971  1.00  0.00    -0.365 N 
HETATM   72  N9  UNL     1      -7.300   2.414   0.165  1.00  0.00    -0.349 N 
HETATM   73  N10 UNL     1      -8.452  -2.291   2.175  1.00  0.00     0.093 N 
HETATM   74  N11 UNL     1       7.437  -3.723   1.142  1.00  0.00    -0.344 N 
HETATM   75  N12 UNL     1      11.347  -0.234  -0.211  1.00  0.00     0.078 N 
HETATM   76  N13 UNL     1      10.577  -5.290   2.309  1.00  0.00     0.092 N 
HETATM   77  H56 UNL     1       2.463  -1.846   1.153  1.00  0.00     0.209 HD
HETATM   78  H57 UNL     1       4.308   0.843  -3.546  1.00  0.00     0.237 HD
HETATM   79  H58 UNL     1      -4.152  -1.433   2.498  1.00  0.00     0.245 HD
HETATM   80  H59 UNL     1      -7.016  -0.167   6.250  1.00  0.00     0.217 HD
HETATM   81  H60 UNL     1      -4.971  -1.591  -0.116  1.00  0.00     0.167 HD
HETATM   82  H61 UNL     1       3.481  -5.458   2.101  1.00  0.00     0.210 HD
HETATM   83  H62 UNL     1       3.737  -3.705  -0.331  1.00  0.00     0.163 HD
HETATM   84  H63 UNL     1       1.926  -0.509  -2.639  1.00  0.00     0.171 HD
HETATM   85  H64 UNL     1      -5.212   1.617  -2.644  1.00  0.00     0.163 HD
HETATM   86  H65 UNL     1      -6.505   2.938  -2.102  1.00  0.00     0.161 HD
HETATM   87  H66 UNL     1      -7.938   2.429   0.950  1.00  0.00     0.163 HD
HETATM   88  H67 UNL     1      -9.461  -2.229   2.290  1.00  0.00     0.314 HD
HETATM   89  H68 UNL     1      -8.037  -1.818   2.981  1.00  0.00     0.314 HD
HETATM   90  H69 UNL     1       7.764  -2.778   0.957  1.00  0.00     0.163 HD
HETATM   91  H70 UNL     1      10.730   0.563  -0.362  1.00  0.00     0.312 HD
HETATM   92  H71 UNL     1      11.109  -0.916  -0.929  1.00  0.00     0.312 HD
HETATM   93  H72 UNL     1      10.069  -5.622   3.132  1.00  0.00     0.313 HD
HETATM   94  H73 UNL     1      10.555  -6.096   1.679  1.00  0.00     0.313 HD
ENDROOT
TORSDOF 38
