REMARK  17 active torsions:
REMARK  status: ('A' for Active; 'I' for Inactive)
REMARK    1  A    between atoms: C4_4  and  C34_34 
REMARK    2  A    between atoms: C6_6  and  C7_7 
REMARK    3  A    between atoms: C6_6  and  N2_60 
REMARK       I    between atoms: C7_7  and  N3_61 
REMARK    4  A    between atoms: C8_8  and  N3_61 
REMARK    5  A    between atoms: C13_13  and  C14_14 
REMARK       I    between atoms: C14_14  and  N5_63 
REMARK    6  A    between atoms: C15_15  and  N5_63 
REMARK    7  A    between atoms: C21_21  and  C22_22 
REMARK       I    between atoms: C21_21  and  N4_62 
REMARK    8  A    between atoms: C22_22  and  C23_23 
REMARK    9  A    between atoms: C22_22  and  N6_64 
REMARK   10  A    between atoms: C28_28  and  C29_29 
REMARK       I    between atoms: C28_28  and  N6_64 
REMARK   11  A    between atoms: C29_29  and  N7_65 
REMARK   12  A    between atoms: C34_34  and  N8_66 
REMARK   13  A    between atoms: C40_40  and  C41_41 
REMARK   14  A    between atoms: C40_40  and  N1_59 
REMARK       I    between atoms: C41_41  and  N9_67 
REMARK   15  A    between atoms: C43_43  and  C58_58 
REMARK   16  A    between atoms: C47_47  and  C50_50 
REMARK   17  A    between atoms: C50_50  and  C51_51 
REMARK       I    between atoms: C58_58  and  N10_68 
ROOT
HETATM    1  C7  UNL     1      -1.456  -1.554  -0.176  1.00  0.00     0.250 C 
HETATM    2  N3  UNL     1      -0.173  -1.336   0.285  1.00  0.00    -0.326 N 
HETATM    3  O1  UNL     1      -1.816  -1.628  -1.348  1.00  0.00    -0.271 OA
HETATM    4  H66 UNL     1      -0.119  -1.244   1.299  1.00  0.00     0.169 HD
ENDROOT
BRANCH   1   5
HETATM    5  C6  UNL     1      -2.452  -1.782   0.967  1.00  0.00     0.375 C 
BRANCH   5   6
HETATM    6  N2  UNL     1      -2.101  -1.001   2.184  1.00  0.00     0.105 N 
HETATM    7  C2  UNL     1      -2.435   0.448   2.046  1.00  0.00     0.247 C 
HETATM    8  C1  UNL     1      -1.169   1.274   2.300  1.00  0.00     0.045 C 
HETATM    9  C3  UNL     1      -3.557   0.958   3.006  1.00  0.00     0.308 C 
HETATM   10  N1  UNL     1      -4.754   0.097   3.079  1.00  0.00     0.107 N 
HETATM   11  C4  UNL     1      -4.364  -1.318   3.368  1.00  0.00     0.279 C 
HETATM   12  C5  UNL     1      -2.818  -1.566   3.354  1.00  0.00     0.311 C 
BRANCH  10  13
HETATM   13  C40 UNL     1      -5.567   0.252   1.847  1.00  0.00     0.375 C 
BRANCH  13  14
HETATM   14  C41 UNL     1      -6.902  -0.506   1.884  1.00  0.00     0.253 C 
HETATM   15  N9  UNL     1      -7.405  -0.988   0.687  1.00  0.00    -0.314 N 
HETATM   16  C42 UNL     1      -8.461  -2.015   0.698  1.00  0.00     0.156 C 
HETATM   17  C45 UNL     1      -7.136  -0.641  -0.649  1.00  0.00     0.045 A 
HETATM   18  C43 UNL     1      -8.562  -2.578  -0.735  1.00  0.00     0.083 C 
HETATM   19  C44 UNL     1      -7.778  -1.538  -1.509  1.00  0.00    -0.012 A 
HETATM   20  C57 UNL     1     -10.024  -2.646  -1.188  1.00  0.00     0.032 C 
HETATM   21  C49 UNL     1      -7.647  -1.433  -2.887  1.00  0.00     0.011 A 
HETATM   22  C48 UNL     1      -6.879  -0.391  -3.407  1.00  0.00     0.008 A 
HETATM   23  C47 UNL     1      -6.253   0.545  -2.558  1.00  0.00    -0.052 A 
HETATM   24  C46 UNL     1      -6.412   0.422  -1.165  1.00  0.00     0.037 A 
HETATM   25  O7  UNL     1      -7.492  -0.739   2.944  1.00  0.00    -0.271 OA
BRANCH  18  26
HETATM   26  C58 UNL     1      -7.912  -3.968  -0.794  1.00  0.00     0.230 C 
HETATM   27  N10 UNL     1      -6.573  -4.046  -0.524  1.00  0.00    -0.369 N 
HETATM   28  H70 UNL     1      -6.153  -4.955  -0.678  1.00  0.00     0.159 HD
HETATM   29  H71 UNL     1      -5.974  -3.243  -0.671  1.00  0.00     0.159 HD
HETATM   30  O8  UNL     1      -8.535  -5.000  -1.028  1.00  0.00    -0.272 OA
ENDBRANCH  18  26
BRANCH  23  31
HETATM   31  C50 UNL     1      -5.505   1.711  -3.175  1.00  0.00     0.077 C 
BRANCH  31  32
HETATM   32  C51 UNL     1      -4.287   2.189  -2.413  1.00  0.00    -0.054 A 
HETATM   33  C52 UNL     1      -4.312   3.415  -1.728  1.00  0.00     0.010 A 
HETATM   34  C53 UNL     1      -3.188   3.857  -1.029  1.00  0.00     0.043 A 
HETATM   35  C54 UNL     1      -2.038   3.077  -1.017  1.00  0.00     0.116 A 
HETATM   36  C55 UNL     1      -1.992   1.861  -1.686  1.00  0.00     0.043 A 
HETATM   37  F3  UNL     1      -0.962   3.502  -0.342  1.00  0.00    -0.206 F 
HETATM   38  C56 UNL     1      -3.117   1.413  -2.380  1.00  0.00     0.010 A 
ENDBRANCH  31  32
ENDBRANCH  23  31
ENDBRANCH  13  14
ENDBRANCH  10  13
BRANCH  11  39
HETATM   39  C34 UNL     1      -4.939  -1.723   4.762  1.00  0.00     0.310 C 
BRANCH  39  40
HETATM   40  N8  UNL     1      -4.549  -3.067   5.246  1.00  0.00     0.099 N 
HETATM   41  C35 UNL     1      -4.441  -3.029   6.731  1.00  0.00     0.299 C 
HETATM   42  C36 UNL     1      -4.601  -4.407   7.382  1.00  0.00     0.198 C 
HETATM   43  O6  UNL     1      -5.904  -4.961   7.159  1.00  0.00    -0.387 OA
HETATM   44  C37 UNL     1      -6.479  -4.555   5.906  1.00  0.00     0.203 C 
HETATM   45  C38 UNL     1      -5.415  -4.210   4.834  1.00  0.00     0.242 C 
HETATM   46  C39 UNL     1      -6.065  -4.133   3.453  1.00  0.00     0.045 C 
ENDBRANCH  39  40
ENDBRANCH  11  39
ENDBRANCH   5   6
ENDBRANCH   1   5
BRANCH   2  47
HETATM   47  C8  UNL     1       0.995  -1.090  -0.454  1.00  0.00     0.035 A 
HETATM   48  C9  UNL     1       2.147  -0.768   0.275  1.00  0.00     0.039 A 
HETATM   49  C10 UNL     1       3.321  -0.483  -0.409  1.00  0.00    -0.016 A 
HETATM   50  C11 UNL     1       3.366  -0.528  -1.804  1.00  0.00    -0.031 A 
HETATM   51  C13 UNL     1       4.665  -0.094   0.150  1.00  0.00     0.214 A 
HETATM   52  C12 UNL     1       4.731  -0.184  -2.299  1.00  0.00     0.166 A 
HETATM   53  C32 UNL     1       2.243  -0.858  -2.540  1.00  0.00     0.012 A 
HETATM   54  N4  UNL     1       5.496   0.059  -1.071  1.00  0.00    -0.329 N 
HETATM   55  C21 UNL     1       6.873   0.085  -0.975  1.00  0.00     0.244 C 
HETATM   56  O3  UNL     1       7.416   0.159   0.130  1.00  0.00    -0.271 OA
HETATM   57  C33 UNL     1       1.054  -1.140  -1.857  1.00  0.00     0.030 A 
BRANCH  55  58
HETATM   58  C22 UNL     1       7.688   0.230  -2.280  1.00  0.00     0.181 C 
BRANCH  58  59
HETATM   59  C23 UNL     1       9.164  -0.192  -2.099  1.00  0.00     0.021 C 
HETATM   60  C24 UNL     1       9.996   0.094  -3.363  1.00  0.00     0.033 C 
HETATM   61  C25 UNL     1      11.410  -0.457  -3.227  1.00  0.00     0.168 C 
HETATM   62  O4  UNL     1      11.382  -1.852  -2.941  1.00  0.00    -0.391 OA
HETATM   63  C26 UNL     1      10.733  -2.132  -1.703  1.00  0.00     0.168 C 
HETATM   64  C27 UNL     1       9.276  -1.689  -1.754  1.00  0.00     0.033 C 
ENDBRANCH  58  59
BRANCH  58  65
HETATM   65  N6  UNL     1       7.592   1.651  -2.626  1.00  0.00    -0.346 N 
HETATM   66  C28 UNL     1       7.059   2.082  -3.821  1.00  0.00     0.251 C 
HETATM   67  O5  UNL     1       6.630   1.305  -4.672  1.00  0.00    -0.271 OA
HETATM   68  H68 UNL     1       7.904   2.333  -1.941  1.00  0.00     0.163 HD
BRANCH  66  69
HETATM   69  C29 UNL     1       7.018   3.613  -3.992  1.00  0.00     0.307 C 
HETATM   70  C30 UNL     1       5.601   4.091  -3.682  1.00  0.00     0.053 C 
BRANCH  69  71
HETATM   71  N7  UNL     1       7.364   3.992  -5.376  1.00  0.00     0.092 N 
HETATM   72  C31 UNL     1       8.777   3.781  -5.664  1.00  0.00     0.307 C 
HETATM   73  H69 UNL     1       6.812   3.403  -6.007  1.00  0.00     0.316 HD
ENDBRANCH  69  71
ENDBRANCH  66  69
ENDBRANCH  58  65
ENDBRANCH  55  58
BRANCH  51  74
HETATM   74  C14 UNL     1       4.558   1.187   1.027  1.00  0.00     0.250 C 
HETATM   75  N5  UNL     1       5.071   2.316   0.415  1.00  0.00    -0.320 N 
HETATM   76  H67 UNL     1       5.657   2.129  -0.389  1.00  0.00     0.169 HD
HETATM   77  O2  UNL     1       4.034   1.146   2.137  1.00  0.00    -0.270 OA
BRANCH  75  78
HETATM   78  C15 UNL     1       5.118   3.635   0.909  1.00  0.00     0.112 A 
HETATM   79  C16 UNL     1       6.069   4.483   0.324  1.00  0.00     0.146 A 
HETATM   80  C17 UNL     1       6.222   5.810   0.724  1.00  0.00     0.045 A 
HETATM   81  F2  UNL     1       6.874   4.004  -0.641  1.00  0.00    -0.204 F 
HETATM   82  C18 UNL     1       5.403   6.321   1.727  1.00  0.00     0.006 A 
HETATM   83  C19 UNL     1       4.435   5.502   2.308  1.00  0.00     0.045 A 
HETATM   84  C20 UNL     1       4.291   4.173   1.897  1.00  0.00     0.146 A 
HETATM   85  F1  UNL     1       3.283   3.476   2.436  1.00  0.00    -0.204 F 
ENDBRANCH  75  78
ENDBRANCH  51  74
ENDBRANCH   2  47
TORSDOF 17
