REMARK  0 active torsions:
REMARK  status: ('A' for Active; 'I' for Inactive)
REMARK       I    between atoms: C2_2  and  C3_3 
REMARK       I    between atoms: C3_3  and  C5_5 
REMARK       I    between atoms: C5_5  and  C6_6 
REMARK       I    between atoms: C5_5  and  N5_90 
REMARK       I    between atoms: C6_6  and  N1_86 
REMARK       I    between atoms: C7_7  and  C8_8 
REMARK       I    between atoms: C7_7  and  C10_10 
REMARK       I    between atoms: C7_7  and  N1_86 
REMARK       I    between atoms: C8_8  and  O2_69 
REMARK       I    between atoms: C10_10  and  N2_87 
REMARK       I    between atoms: C11_11  and  C13_13 
REMARK       I    between atoms: C11_11  and  N2_87 
REMARK       I    between atoms: C13_13  and  N3_88 
REMARK       I    between atoms: C14_14  and  C15_15 
REMARK       I    between atoms: C14_14  and  C22_22 
REMARK       I    between atoms: C14_14  and  N3_88 
REMARK       I    between atoms: C15_15  and  C16_16 
REMARK       I    between atoms: C19_19  and  O5_72 
REMARK       I    between atoms: C22_22  and  N4_89 
REMARK       I    between atoms: C23_23  and  C24_24 
REMARK       I    between atoms: C23_23  and  C25_25 
REMARK       I    between atoms: C23_23  and  N4_89 
REMARK       I    between atoms: C24_24  and  O7_74 
REMARK       I    between atoms: C25_25  and  O9_76 
REMARK       I    between atoms: C26_26  and  C27_27 
REMARK       I    between atoms: C26_26  and  N5_90 
REMARK       I    between atoms: C31_31  and  C32_32 
REMARK       I    between atoms: C31_31  and  N6_91 
REMARK       I    between atoms: C32_32  and  N7_92 
REMARK       I    between atoms: C34_34  and  C35_35 
REMARK       I    between atoms: C34_34  and  N7_92 
REMARK       I    between atoms: C35_35  and  C36_36 
REMARK       I    between atoms: C35_35  and  N8_93 
REMARK       I    between atoms: C36_36  and  C37_37 
REMARK       I    between atoms: C40_40  and  C41_41 
REMARK       I    between atoms: C40_40  and  N8_93 
REMARK       I    between atoms: C41_41  and  C42_42 
REMARK       I    between atoms: C41_41  and  N9_94 
REMARK       I    between atoms: C42_42  and  C43_43 
REMARK       I    between atoms: C46_46  and  C47_47 
REMARK       I    between atoms: C46_46  and  N9_94 
REMARK       I    between atoms: C47_47  and  C48_48 
REMARK       I    between atoms: C47_47  and  N13_99 
REMARK       I    between atoms: C48_48  and  C49_49 
REMARK       I    between atoms: C49_49  and  C50_50 
REMARK       I    between atoms: C50_50  and  N10_95 
REMARK       I    between atoms: C51_51  and  N11_97 
REMARK       I    between atoms: C51_51  and  N12_98 
REMARK       I    between atoms: C52_52  and  C53_53 
REMARK       I    between atoms: C52_52  and  N13_99 
REMARK       I    between atoms: C53_53  and  C54_54 
REMARK       I    between atoms: C53_53  and  N14_100 
REMARK       I    between atoms: C54_54  and  C55_55 
REMARK       I    between atoms: C58_58  and  C59_59 
REMARK       I    between atoms: C58_58  and  N14_100 
REMARK       I    between atoms: C59_59  and  N15_101 
REMARK       I    between atoms: C60_60  and  C61_61 
REMARK       I    between atoms: C60_60  and  N15_101 
REMARK       I    between atoms: C61_61  and  C62_62 
REMARK       I    between atoms: C61_61  and  N19_106 
REMARK       I    between atoms: C62_62  and  C63_63 
REMARK       I    between atoms: C63_63  and  C64_64 
REMARK       I    between atoms: C64_64  and  N16_102 
REMARK       I    between atoms: C65_65  and  N17_104 
REMARK       I    between atoms: C65_65  and  N18_105 
REMARK       I    between atoms: C66_66  and  C67_67 
REMARK       I    between atoms: C66_66  and  N19_106 
REMARK       I    between atoms: C67_67  and  N20_107 
ROOT
HETATM    1  C1  UNL     1      -5.032   1.469  -2.204  1.00  0.00     0.005 C 
HETATM    2  C2  UNL     1      -4.040   2.615  -2.293  1.00  0.00     0.002 C 
HETATM    3  C3  UNL     1      -3.015   2.546  -3.446  1.00  0.00     0.013 C 
HETATM    4  C4  UNL     1      -3.680   2.736  -4.812  1.00  0.00     0.012 C 
HETATM    5  C5  UNL     1      -2.062   1.325  -3.365  1.00  0.00     0.180 C 
HETATM    6  C6  UNL     1      -2.375   0.182  -4.368  1.00  0.00     0.241 C 
HETATM    7  C7  UNL     1      -3.553  -1.979  -4.720  1.00  0.00     0.205 C 
HETATM    8  C8  UNL     1      -4.161  -1.708  -6.122  1.00  0.00     0.146 C 
HETATM    9  C9  UNL     1      -5.555  -1.089  -6.106  1.00  0.00     0.042 C 
HETATM   10  C10 UNL     1      -4.475  -2.908  -3.897  1.00  0.00     0.243 C 
HETATM   11  C11 UNL     1      -6.527  -2.947  -2.489  1.00  0.00     0.172 C 
HETATM   12  C12 UNL     1      -7.617  -1.956  -2.099  1.00  0.00     0.042 C 
HETATM   13  C13 UNL     1      -6.010  -3.698  -1.246  1.00  0.00     0.240 C 
HETATM   14  C14 UNL     1      -4.810  -5.760  -0.492  1.00  0.00     0.180 C 
HETATM   15  C15 UNL     1      -4.980  -7.240  -0.875  1.00  0.00     0.073 C 
HETATM   16  C16 UNL     1      -4.772  -8.247   0.235  1.00  0.00    -0.056 A 
HETATM   17  C17 UNL     1      -5.438  -8.136   1.465  1.00  0.00     0.010 A 
HETATM   18  C18 UNL     1      -5.246  -9.091   2.467  1.00  0.00     0.037 A 
HETATM   19  C19 UNL     1      -4.402 -10.171   2.234  1.00  0.00     0.065 A 
HETATM   20  C20 UNL     1      -3.753 -10.314   1.016  1.00  0.00     0.037 A 
HETATM   21  C21 UNL     1      -3.941  -9.357   0.017  1.00  0.00     0.010 A 
HETATM   22  C22 UNL     1      -3.319  -5.383  -0.280  1.00  0.00     0.241 C 
HETATM   23  C23 UNL     1      -1.729  -3.471  -0.081  1.00  0.00     0.206 C 
HETATM   24  C24 UNL     1      -1.523  -3.249   1.420  1.00  0.00     0.200 C 
HETATM   25  C25 UNL     1      -1.551  -2.165  -0.846  1.00  0.00     0.165 C 
HETATM   26  C26 UNL     1       0.410   1.165  -3.096  1.00  0.00     0.241 C 
HETATM   27  C27 UNL     1       1.761   1.703  -3.638  1.00  0.00     0.179 C 
HETATM   28  C28 UNL     1       2.953   1.199  -2.825  1.00  0.00     0.037 C 
HETATM   29  C29 UNL     1       3.070   2.238  -1.716  1.00  0.00     0.022 C 
HETATM   30  C30 UNL     1       2.748   3.543  -2.426  1.00  0.00     0.127 C 
HETATM   31  C31 UNL     1       1.222   4.013  -4.392  1.00  0.00     0.243 C 
HETATM   32  C32 UNL     1       1.256   5.519  -4.061  1.00  0.00     0.172 C 
HETATM   33  C33 UNL     1       0.854   6.356  -5.271  1.00  0.00     0.042 C 
HETATM   34  C34 UNL     1       0.416   6.824  -2.120  1.00  0.00     0.241 C 
HETATM   35  C35 UNL     1      -0.590   6.822  -0.948  1.00  0.00     0.177 C 
HETATM   36  C36 UNL     1      -2.045   6.712  -1.443  1.00  0.00     0.038 C 
HETATM   37  C37 UNL     1      -3.103   7.277  -0.472  1.00  0.00    -0.020 C 
HETATM   38  C38 UNL     1      -4.477   7.264  -1.151  1.00  0.00     0.009 C 
HETATM   39  C39 UNL     1      -3.182   6.510   0.847  1.00  0.00     0.009 C 
HETATM   40  C40 UNL     1      -0.260   4.475  -0.088  1.00  0.00     0.241 C 
HETATM   41  C41 UNL     1       0.215   3.640   1.126  1.00  0.00     0.177 C 
HETATM   42  C42 UNL     1      -0.689   3.879   2.350  1.00  0.00     0.038 C 
HETATM   43  C43 UNL     1      -0.460   2.895   3.516  1.00  0.00    -0.020 C 
HETATM   44  C44 UNL     1      -0.910   1.474   3.168  1.00  0.00     0.009 C 
HETATM   45  C45 UNL     1      -1.213   3.380   4.758  1.00  0.00     0.009 C 
HETATM   46  C46 UNL     1       2.218   4.910   1.955  1.00  0.00     0.241 C 
HETATM   47  C47 UNL     1       3.682   4.757   2.443  1.00  0.00     0.176 C 
HETATM   48  C48 UNL     1       3.908   5.561   3.734  1.00  0.00     0.036 C 
HETATM   49  C49 UNL     1       3.103   5.039   4.930  1.00  0.00     0.022 C 
HETATM   50  C50 UNL     1       3.302   5.918   6.163  1.00  0.00     0.121 C 
HETATM   51  C51 UNL     1       3.013   4.608   8.122  1.00  0.00     0.121 C 
HETATM   52  C52 UNL     1       4.977   2.739   1.740  1.00  0.00     0.241 C 
HETATM   53  C53 UNL     1       5.245   1.249   2.096  1.00  0.00     0.177 C 
HETATM   54  C54 UNL     1       6.723   0.848   1.919  1.00  0.00     0.038 C 
HETATM   55  C55 UNL     1       7.394   0.985   0.534  1.00  0.00    -0.020 C 
HETATM   56  C56 UNL     1       8.852   0.517   0.635  1.00  0.00     0.009 C 
HETATM   57  C57 UNL     1       6.697   0.212  -0.584  1.00  0.00     0.009 C 
HETATM   58  C58 UNL     1       2.987   0.340   1.678  1.00  0.00     0.236 C 
HETATM   59  C59 UNL     1       2.193  -0.788   1.013  1.00  0.00     0.225 C 
HETATM   60  C60 UNL     1       3.350  -2.830   1.710  1.00  0.00     0.240 C 
HETATM   61  C61 UNL     1       4.011  -4.142   1.231  1.00  0.00     0.176 C 
HETATM   62  C62 UNL     1       2.971  -5.262   1.116  1.00  0.00     0.036 C 
HETATM   63  C63 UNL     1       2.145  -5.170  -0.173  1.00  0.00     0.022 C 
HETATM   64  C64 UNL     1       1.014  -6.196  -0.219  1.00  0.00     0.121 C 
HETATM   65  C65 UNL     1       0.726  -8.510  -0.231  1.00  0.00     0.121 C 
HETATM   66  C66 UNL     1       6.190  -3.748   2.300  1.00  0.00     0.246 C 
HETATM   67  C67 UNL     1       7.007  -4.045   3.561  1.00  0.00     0.368 C 
HETATM   68  O1  UNL     1      -1.872   0.136  -5.490  1.00  0.00    -0.271 OA
HETATM   69  O2  UNL     1      -4.216  -2.921  -6.880  1.00  0.00    -0.393 OA
HETATM   70  O3  UNL     1      -4.450  -4.136  -3.961  1.00  0.00    -0.271 OA
HETATM   71  O4  UNL     1      -6.001  -3.219  -0.115  1.00  0.00    -0.271 OA
HETATM   72  O5  UNL     1      -4.187 -11.125   3.184  1.00  0.00    -0.361 OA
HETATM   73  O6  UNL     1      -2.448  -6.175   0.080  1.00  0.00    -0.271 OA
HETATM   74  O7  UNL     1      -1.217  -4.468   2.098  1.00  0.00    -0.398 OA
HETATM   75  O8  UNL     1      -2.436  -1.514  -1.387  1.00  0.00    -0.648 OA
HETATM   76  O9  UNL     1      -0.257  -1.788  -0.895  1.00  0.00    -0.775 OA
HETATM   77  O10 UNL     1       0.318   0.232  -2.295  1.00  0.00    -0.271 OA
HETATM   78  O11 UNL     1       0.579   3.563  -5.345  1.00  0.00    -0.271 OA
HETATM   79  O12 UNL     1       1.241   7.721  -2.279  1.00  0.00    -0.271 OA
HETATM   80  O13 UNL     1      -0.690   3.936  -1.109  1.00  0.00    -0.271 OA
HETATM   81  O14 UNL     1       1.630   5.991   1.978  1.00  0.00    -0.271 OA
HETATM   82  O15 UNL     1       5.419   3.298   0.741  1.00  0.00    -0.271 OA
HETATM   83  O16 UNL     1       2.437   1.253   2.296  1.00  0.00    -0.272 OA
HETATM   84  O17 UNL     1       3.172  -2.557   2.897  1.00  0.00    -0.271 OA
HETATM   85  O18 UNL     1       6.541  -2.935   1.449  1.00  0.00    -0.272 OA
HETATM   86  N1  UNL     1      -3.287  -0.758  -3.928  1.00  0.00    -0.344 N 
HETATM   87  N2  UNL     1      -5.415  -2.250  -3.127  1.00  0.00    -0.346 N 
HETATM   88  N3  UNL     1      -5.429  -4.916  -1.526  1.00  0.00    -0.346 N 
HETATM   89  N4  UNL     1      -3.048  -4.035  -0.361  1.00  0.00    -0.343 N 
HETATM   90  N5  UNL     1      -0.698   1.758  -3.652  1.00  0.00    -0.346 N 
HETATM   91  N6  UNL     1       1.834   3.161  -3.495  1.00  0.00    -0.337 N 
HETATM   92  N7  UNL     1       0.329   5.735  -2.955  1.00  0.00    -0.346 N 
HETATM   93  N8  UNL     1      -0.198   5.837   0.057  1.00  0.00    -0.346 N 
HETATM   94  N9  UNL     1       1.646   3.783   1.412  1.00  0.00    -0.346 N 
HETATM   95  N10 UNL     1       2.495   5.395   7.260  1.00  0.00    -0.372 N 
ATOM     96  H10 UNL     1       1.513   5.659   7.339  1.00  0.00     0.161 HD
HETATM   97  N11 UNL     1       4.261   4.100   8.207  1.00  0.00    -0.279 NA
HETATM   98  N12 UNL     1       2.264   4.158   9.151  1.00  0.00    -0.279 NA
HETATM   99  N13 UNL     1       4.116   3.370   2.620  1.00  0.00    -0.346 N 
HETATM  100  N14 UNL     1       4.335   0.352   1.392  1.00  0.00    -0.346 N 
HETATM  101  N15 UNL     1       2.996  -1.956   0.700  1.00  0.00    -0.351 N 
HETATM  102  N16 UNL     1       1.567  -7.544  -0.236  1.00  0.00    -0.372 N 
ATOM    103  H16 UNL     1       2.573  -7.710  -0.251  1.00  0.00     0.161 HD
HETATM  104  N17 UNL     1      -0.626  -8.500  -0.245  1.00  0.00    -0.279 NA
HETATM  105  N18 UNL     1       1.174  -9.784  -0.234  1.00  0.00    -0.279 NA
HETATM  106  N19 UNL     1       5.024  -4.482   2.218  1.00  0.00    -0.346 N 
HETATM  107  N20 UNL     1       6.116  -4.421   4.677  1.00  0.00     0.087 N 
HETATM  108  H89 UNL     1      -4.398  -2.679  -7.805  1.00  0.00     0.210 HD
HETATM  109  H90 UNL     1      -4.682 -10.882   3.984  1.00  0.00     0.217 HD
HETATM  110  H91 UNL     1      -1.716  -5.193   1.669  1.00  0.00     0.209 HD
HETATM  111  H92 UNL     1      -0.193  -0.972  -1.464  1.00  0.00     0.167 HD
HETATM  112  H93 UNL     1      -3.209  -0.931  -2.921  1.00  0.00     0.163 HD
HETATM  113  H94 UNL     1      -5.425  -1.237  -3.163  1.00  0.00     0.163 HD
HETATM  114  H95 UNL     1      -5.088  -5.026  -2.487  1.00  0.00     0.163 HD
HETATM  115  H96 UNL     1      -3.839  -3.395  -0.377  1.00  0.00     0.163 HD
HETATM  116  H97 UNL     1      -0.544   2.262  -4.529  1.00  0.00     0.163 HD
HETATM  117  H98 UNL     1      -0.198   4.931  -2.604  1.00  0.00     0.163 HD
HETATM  118  H99 UNL     1       0.398   6.178   0.816  1.00  0.00     0.163 HD
HETATM  119  HA0 UNL     1       2.129   2.910   1.619  1.00  0.00     0.163 HD
HETATM  120  HA1 UNL     1       4.795   4.163   7.351  1.00  0.00     0.126 HD
HETATM  121  HA2 UNL     1       4.259   3.150   8.562  1.00  0.00     0.126 HD
HETATM  122  HA3 UNL     1       2.737   4.265  10.040  1.00  0.00     0.126 HD
HETATM  123  HA4 UNL     1       1.379   4.658   9.165  1.00  0.00     0.126 HD
HETATM  124  HA5 UNL     1       3.519   2.759   3.175  1.00  0.00     0.163 HD
HETATM  125  HA6 UNL     1       4.703  -0.561   1.136  1.00  0.00     0.163 HD
HETATM  126  HA7 UNL     1       2.974  -2.302  -0.252  1.00  0.00     0.163 HD
HETATM  127  HA8 UNL     1      -1.019  -9.182   0.395  1.00  0.00     0.126 HD
HETATM  128  HA9 UNL     1      -1.069  -7.596  -0.073  1.00  0.00     0.126 HD
HETATM  129  HB0 UNL     1       2.173  -9.794  -0.410  1.00  0.00     0.126 HD
HETATM  130  HB1 UNL     1       0.681 -10.357  -0.907  1.00  0.00     0.126 HD
HETATM  131  HB2 UNL     1       4.719  -4.844   3.121  1.00  0.00     0.163 HD
HETATM  132  HB3 UNL     1       6.687  -4.588   5.505  1.00  0.00     0.313 HD
HETATM  133  HB4 UNL     1       5.524  -3.618   4.905  1.00  0.00     0.313 HD
ENDROOT
TORSDOF 51
