REMARK  14 active torsions:
REMARK  status: ('A' for Active; 'I' for Inactive)
REMARK    1  A    between atoms: C2_2  and  C3_3 
REMARK    2  A    between atoms: C3_3  and  C4_4 
REMARK    3  A    between atoms: C3_3  and  C8_8 
REMARK    4  A    between atoms: C4_4  and  C5_5 
REMARK    5  A    between atoms: C5_5  and  N1_44 
REMARK       I    between atoms: C8_8  and  N2_45 
REMARK    6  A    between atoms: C13_13  and  C14_14 
REMARK       I    between atoms: C13_13  and  N3_46 
REMARK    7  A    between atoms: C17_17  and  N4_47 
REMARK    8  A    between atoms: C20_20  and  C21_21 
REMARK       I    between atoms: C20_20  and  N4_47 
REMARK    9  A    between atoms: C23_23  and  C25_25 
REMARK   10  A    between atoms: C28_28  and  C31_31 
REMARK   11  A    between atoms: C35_35  and  C36_36 
REMARK   12  A    between atoms: C35_35  and  N7_51 
REMARK       I    between atoms: C36_36  and  N9_54 
REMARK   13  A    between atoms: C37_37  and  N9_54 
REMARK   14  A    between atoms: C42_42  and  O5_59 
ROOT
HETATM    1  C21 UNL     1      -0.005   1.433   1.338  1.00  0.00     0.177 A 
HETATM    2  C22 UNL     1      -1.407   2.315   2.700  1.00  0.00     0.120 A 
HETATM    3  C23 UNL     1      -2.183   1.595   1.811  1.00  0.00     0.064 A 
HETATM    4  C24 UNL     1      -1.550   0.304  -0.276  1.00  0.00     0.158 C 
HETATM    5  N5  UNL     1      -0.074   2.213   2.407  1.00  0.00    -0.345 N 
ATOM      6  H5  UNL     1       0.703   2.646   2.906  1.00  0.00     0.167 HD
HETATM    7  N6  UNL     1      -1.268   1.069   0.918  1.00  0.00    -0.331 N 
ENDROOT
BRANCH   1   8
HETATM    8  C20 UNL     1       1.272   1.052   0.743  1.00  0.00     0.290 C 
HETATM    9  N4  UNL     1       2.332   1.619   1.430  1.00  0.00    -0.320 N 
HETATM   10  H54 UNL     1       2.030   2.184   2.224  1.00  0.00     0.169 HD
HETATM   11  O3  UNL     1       1.374   0.317  -0.233  1.00  0.00    -0.264 OA
BRANCH   9  12
HETATM   12  C17 UNL     1       3.709   1.498   1.183  1.00  0.00     0.036 A 
HETATM   13  C16 UNL     1       4.250   0.764   0.124  1.00  0.00     0.054 A 
HETATM   14  C15 UNL     1       5.637   0.686  -0.053  1.00  0.00     0.051 A 
HETATM   15  C14 UNL     1       6.490   1.347   0.831  1.00  0.00     0.054 A 
HETATM   16 CL1  UNL     1       6.229  -0.198  -1.411  1.00  0.00    -0.083 Cl
HETATM   17  C19 UNL     1       5.958   2.088   1.893  1.00  0.00     0.021 A 
HETATM   18  C18 UNL     1       4.573   2.161   2.063  1.00  0.00     0.030 A 
BRANCH  15  19
HETATM   19  C13 UNL     1       7.963   1.269   0.711  1.00  0.00     0.255 C 
HETATM   20  N3  UNL     1       8.641   2.475   0.507  1.00  0.00    -0.345 N 
HETATM   21  C10 UNL     1      10.105   2.472   0.597  1.00  0.00     0.146 C 
HETATM   22  C11 UNL     1       8.138   3.423  -0.502  1.00  0.00     0.146 C 
HETATM   23  C9  UNL     1      10.775   2.643  -0.784  1.00  0.00     0.145 C 
HETATM   24  N2  UNL     1       9.879   2.231  -1.871  1.00  0.00    -0.349 N 
HETATM   25  C8  UNL     1      10.068   1.221  -2.793  1.00  0.00     0.224 C 
HETATM   26  C12 UNL     1       8.601   2.978  -1.911  1.00  0.00     0.145 C 
HETATM   27  O1  UNL     1       9.224   0.990  -3.665  1.00  0.00    -0.273 OA
HETATM   28  O2  UNL     1       8.518   0.179   0.859  1.00  0.00    -0.267 OA
BRANCH  25  29
HETATM   29  C3  UNL     1      11.270   0.271  -2.715  1.00  0.00     0.079 C 
BRANCH  29  30
HETATM   30  C2  UNL     1      12.623   0.976  -2.897  1.00  0.00     0.010 C 
HETATM   31  C1  UNL     1      13.587   0.151  -3.744  1.00  0.00     0.006 C 
ENDBRANCH  29  30
BRANCH  29  32
HETATM   32  C4  UNL     1      11.191  -0.615  -1.459  1.00  0.00     0.041 C 
BRANCH  32  33
HETATM   33  C5  UNL     1      10.021  -1.604  -1.528  1.00  0.00     0.234 C 
BRANCH  33  34
HETATM   34  N1  UNL     1       9.605  -2.071  -0.152  1.00  0.00    -0.079 N 
HETATM   35  C6  UNL     1      10.703  -2.609   0.709  1.00  0.00     0.269 C 
HETATM   36  C7  UNL     1       8.459  -3.042  -0.229  1.00  0.00     0.269 C 
HETATM   37  H53 UNL     1       9.216  -1.227   0.329  1.00  0.00     0.278 HD
ENDBRANCH  33  34
ENDBRANCH  32  33
ENDBRANCH  29  32
ENDBRANCH  25  29
ENDBRANCH  15  19
ENDBRANCH   9  12
ENDBRANCH   1   8
BRANCH   3  38
HETATM   38  C25 UNL     1      -3.633   1.409   1.785  1.00  0.00     0.034 A 
HETATM   39  C26 UNL     1      -4.211   0.135   1.759  1.00  0.00     0.168 A 
HETATM   40  C27 UNL     1      -5.595  -0.027   1.752  1.00  0.00     0.167 A 
HETATM   41  F2  UNL     1      -3.429  -0.957   1.736  1.00  0.00    -0.202 F 
HETATM   42  C28 UNL     1      -6.444   1.082   1.778  1.00  0.00     0.019 A 
HETATM   43  F1  UNL     1      -6.096  -1.272   1.703  1.00  0.00    -0.202 F 
HETATM   44  C29 UNL     1      -5.871   2.362   1.813  1.00  0.00     0.016 A 
HETATM   45  C30 UNL     1      -4.480   2.524   1.821  1.00  0.00     0.018 A 
BRANCH  42  46
HETATM   46  C31 UNL     1      -7.887   0.927   1.765  1.00  0.00     0.018 A 
HETATM   47  C32 UNL     1      -8.727   1.654   0.947  1.00  0.00     0.125 A 
HETATM   48  N7  UNL     1      -9.991   1.212   1.206  1.00  0.00    -0.294 N 
HETATM   49  N8  UNL     1     -10.039   0.251   2.150  1.00  0.00    -0.302 N 
HETATM   50  C33 UNL     1      -8.757   0.071   2.499  1.00  0.00     0.034 A 
ATOM     51  H8  UNL     1     -10.862  -0.229   2.515  1.00  0.00     0.186 HD
HETATM   52  C34 UNL     1      -8.418  -0.925   3.547  1.00  0.00     0.070 C 
BRANCH  48  53
HETATM   53  C35 UNL     1     -11.218   1.659   0.576  1.00  0.00     0.250 C 
BRANCH  53  54
HETATM   54  C36 UNL     1     -11.667   0.688  -0.490  1.00  0.00     0.237 C 
HETATM   55  N9  UNL     1     -11.953  -0.578  -0.027  1.00  0.00    -0.352 N 
HETATM   56  H55 UNL     1     -11.628  -0.810   0.911  1.00  0.00     0.163 HD
HETATM   57  O4  UNL     1     -11.796   1.028  -1.664  1.00  0.00    -0.272 OA
BRANCH  55  58
HETATM   58  C37 UNL     1     -12.364  -1.671  -0.908  1.00  0.00     0.113 C 
HETATM   59  C38 UNL     1     -11.151  -2.221  -1.670  1.00  0.00     0.028 C 
HETATM   60  C39 UNL     1     -11.528  -3.398  -2.563  1.00  0.00     0.002 C 
HETATM   61  C40 UNL     1     -12.218  -4.501  -1.771  1.00  0.00     0.003 C 
HETATM   62  C41 UNL     1     -13.430  -3.971  -1.012  1.00  0.00     0.034 C 
HETATM   63  C42 UNL     1     -13.070  -2.791  -0.102  1.00  0.00     0.143 C 
BRANCH  63  64
HETATM   64  O5  UNL     1     -14.262  -2.242   0.482  1.00  0.00    -0.389 OA
HETATM   65  C43 UNL     1     -14.735  -2.975   1.604  1.00  0.00     0.202 C 
ENDBRANCH  63  64
ENDBRANCH  55  58
ENDBRANCH  53  54
ENDBRANCH  48  53
ENDBRANCH  42  46
ENDBRANCH   3  38
TORSDOF 14
