REMARK  0 active torsions:
REMARK  status: ('A' for Active; 'I' for Inactive)
REMARK       I    between atoms: C2_2  and  N1_51 
REMARK       I    between atoms: C3_3  and  C4_4 
REMARK       I    between atoms: C3_3  and  N1_51 
REMARK       I    between atoms: C4_4  and  N2_52 
REMARK       I    between atoms: C5_5  and  C6_6 
REMARK       I    between atoms: C5_5  and  N2_52 
REMARK       I    between atoms: C6_6  and  N3_53 
REMARK       I    between atoms: C7_7  and  C8_8 
REMARK       I    between atoms: C7_7  and  C47_47 
REMARK       I    between atoms: C7_7  and  N3_53 
REMARK       I    between atoms: C8_8  and  N4_54 
REMARK       I    between atoms: C9_9  and  C10_10 
REMARK       I    between atoms: C9_9  and  C43_43 
REMARK       I    between atoms: C9_9  and  N4_54 
REMARK       I    between atoms: C10_10  and  N5_55 
REMARK       I    between atoms: C11_11  and  C12_12 
REMARK       I    between atoms: C11_11  and  C34_34 
REMARK       I    between atoms: C11_11  and  N5_55 
REMARK       I    between atoms: C12_12  and  N6_56 
REMARK       I    between atoms: C13_13  and  C14_14 
REMARK       I    between atoms: C13_13  and  N6_56 
REMARK       I    between atoms: C14_14  and  N7_57 
REMARK       I    between atoms: C15_15  and  C16_16 
REMARK       I    between atoms: C15_15  and  C31_31 
REMARK       I    between atoms: C15_15  and  N7_57 
REMARK       I    between atoms: C16_16  and  N8_58 
REMARK       I    between atoms: C17_17  and  C18_18 
REMARK       I    between atoms: C17_17  and  C28_28 
REMARK       I    between atoms: C17_17  and  N8_58 
REMARK       I    between atoms: C18_18  and  N9_59 
REMARK       I    between atoms: C19_19  and  C20_20 
REMARK       I    between atoms: C19_19  and  C25_25 
REMARK       I    between atoms: C19_19  and  N9_59 
REMARK       I    between atoms: C20_20  and  N10_60 
REMARK       I    between atoms: C21_21  and  C22_22 
REMARK       I    between atoms: C21_21  and  C23_23 
REMARK       I    between atoms: C21_21  and  N10_60 
REMARK       I    between atoms: C22_22  and  O2_65 
REMARK       I    between atoms: C23_23  and  C24_24 
REMARK       I    between atoms: C24_24  and  N11_61 
REMARK       I    between atoms: C25_25  and  C26_26 
REMARK       I    between atoms: C26_26  and  C27_27 
REMARK       I    between atoms: C27_27  and  N12_62 
REMARK       I    between atoms: C28_28  and  C29_29 
REMARK       I    between atoms: C29_29  and  S1_78 
REMARK       I    between atoms: C31_31  and  C32_32 
REMARK       I    between atoms: C32_32  and  S2_79 
REMARK       I    between atoms: C34_34  and  C35_35 
REMARK       I    between atoms: C43_43  and  C44_44 
REMARK       I    between atoms: C47_47  and  C48_48 
ROOT
HETATM    1  C1  UNL     1      -9.351   3.167   1.315  1.00  0.00     0.117 C 
HETATM    2  C2  UNL     1      -8.854   3.142  -0.103  1.00  0.00     0.213 C 
HETATM    3  C3  UNL     1      -9.254   2.221  -2.345  1.00  0.00     0.225 C 
HETATM    4  C4  UNL     1      -7.965   1.432  -2.571  1.00  0.00     0.235 C 
HETATM    5  C5  UNL     1      -5.507   1.623  -2.613  1.00  0.00     0.225 C 
HETATM    6  C6  UNL     1      -4.908   1.403  -1.216  1.00  0.00     0.236 C 
HETATM    7  C7  UNL     1      -4.921   2.174   1.147  1.00  0.00     0.180 C 
HETATM    8  C8  UNL     1      -5.829   1.062   1.735  1.00  0.00     0.241 C 
HETATM    9  C9  UNL     1      -5.862  -1.447   2.112  1.00  0.00     0.180 C 
HETATM   10  C10 UNL     1      -4.813  -2.533   1.772  1.00  0.00     0.241 C 
HETATM   11  C11 UNL     1      -2.811  -2.789   0.365  1.00  0.00     0.181 C 
HETATM   12  C12 UNL     1      -1.931  -1.709   1.061  1.00  0.00     0.241 C 
HETATM   13  C13 UNL     1       0.314  -1.179   1.978  1.00  0.00     0.225 C 
HETATM   14  C14 UNL     1       1.031  -0.111   1.138  1.00  0.00     0.236 C 
HETATM   15  C15 UNL     1       1.082   1.000  -1.103  1.00  0.00     0.177 C 
HETATM   16  C16 UNL     1       2.394   0.368  -1.651  1.00  0.00     0.241 C 
HETATM   17  C17 UNL     1       4.673   0.733  -2.501  1.00  0.00     0.177 C 
HETATM   18  C18 UNL     1       5.474   0.834  -1.191  1.00  0.00     0.241 C 
HETATM   19  C19 UNL     1       7.217  -0.247   0.212  1.00  0.00     0.177 C 
HETATM   20  C20 UNL     1       8.639  -0.673  -0.208  1.00  0.00     0.241 C 
HETATM   21  C21 UNL     1      10.909  -1.186   0.618  1.00  0.00     0.191 C 
HETATM   22  C22 UNL     1      10.846  -2.652   1.070  1.00  0.00     0.164 C 
HETATM   23  C23 UNL     1      11.995  -0.391   1.344  1.00  0.00     0.138 C 
HETATM   24  C24 UNL     1      11.829  -0.414   2.844  1.00  0.00     0.217 C 
HETATM   25  C25 UNL     1       6.618  -1.264   1.198  1.00  0.00     0.044 C 
HETATM   26  C26 UNL     1       5.296  -0.808   1.819  1.00  0.00     0.105 C 
HETATM   27  C27 UNL     1       5.468   0.408   2.704  1.00  0.00     0.215 C 
HETATM   28  C28 UNL     1       5.310   1.594  -3.598  1.00  0.00     0.045 C 
HETATM   29  C29 UNL     1       6.727   1.191  -4.013  1.00  0.00     0.076 C 
HETATM   30  C30 UNL     1       8.587  -0.622  -4.924  1.00  0.00     0.089 C 
HETATM   31  C31 UNL     1       1.175   2.459  -0.628  1.00  0.00     0.045 C 
HETATM   32  C32 UNL     1      -0.152   2.973  -0.067  1.00  0.00     0.076 C 
HETATM   33  C33 UNL     1      -0.351   5.413  -1.375  1.00  0.00     0.089 C 
HETATM   34  C34 UNL     1      -2.522  -2.945  -1.136  1.00  0.00     0.075 C 
HETATM   35  C35 UNL     1      -1.131  -3.385  -1.466  1.00  0.00    -0.028 A 
HETATM   36  C36 UNL     1      -0.489  -4.611  -1.096  1.00  0.00    -0.002 A 
HETATM   37  C37 UNL     1       0.843  -4.521  -1.505  1.00  0.00     0.042 A 
HETATM   38  C38 UNL     1       1.782  -5.527  -1.254  1.00  0.00     0.030 A 
HETATM   39  C39 UNL     1       1.346  -6.666  -0.573  1.00  0.00     0.002 A 
HETATM   40  C40 UNL     1       0.022  -6.790  -0.158  1.00  0.00     0.001 A 
HETATM   41  C41 UNL     1      -0.903  -5.771  -0.410  1.00  0.00     0.014 A 
HETATM   42  C42 UNL     1      -0.204  -2.648  -2.174  1.00  0.00     0.096 A 
HETATM   43  C43 UNL     1      -7.258  -1.754   1.511  1.00  0.00     0.013 C 
HETATM   44  C44 UNL     1      -7.838  -3.045   2.129  1.00  0.00     0.002 C 
HETATM   45  C45 UNL     1      -9.304  -3.277   1.787  1.00  0.00     0.005 C 
HETATM   46  C46 UNL     1      -7.263  -1.814  -0.021  1.00  0.00     0.012 C 
HETATM   47  C47 UNL     1      -5.068   3.515   1.904  1.00  0.00     0.013 C 
HETATM   48  C48 UNL     1      -4.070   4.597   1.427  1.00  0.00     0.002 C 
HETATM   49  C49 UNL     1      -4.273   5.097   0.005  1.00  0.00     0.005 C 
HETATM   50  C50 UNL     1      -4.842   3.313   3.413  1.00  0.00     0.012 C 
HETATM   51  N1  UNL     1      -9.561   2.303  -0.931  1.00  0.00    -0.353 N 
HETATM   52  N2  UNL     1      -6.831   2.219  -2.598  1.00  0.00    -0.351 N 
HETATM   53  N3  UNL     1      -5.352   2.281  -0.247  1.00  0.00    -0.346 N 
HETATM   54  N4  UNL     1      -5.255  -0.184   1.659  1.00  0.00    -0.346 N 
HETATM   55  N5  UNL     1      -4.191  -2.338   0.547  1.00  0.00    -0.346 N 
HETATM   56  N6  UNL     1      -0.604  -2.029   1.233  1.00  0.00    -0.351 N 
HETATM   57  N7  UNL     1       0.504   0.093  -0.115  1.00  0.00    -0.346 N 
HETATM   58  N8  UNL     1       3.332   1.238  -2.172  1.00  0.00    -0.346 N 
HETATM   59  N9  UNL     1       6.402  -0.155  -0.997  1.00  0.00    -0.346 N 
HETATM   60  N10 UNL     1       9.593  -0.564   0.782  1.00  0.00    -0.344 N 
HETATM   61  N11 UNL     1      12.837   0.190   3.537  1.00  0.00    -0.370 N 
HETATM   62  N12 UNL     1       4.301   1.005   3.075  1.00  0.00    -0.370 N 
HETATM   63  N13 UNL     1       0.993  -3.312  -2.143  1.00  0.00    -0.365 N 
HETATM   64  O1  UNL     1       9.841  -3.324   1.245  1.00  0.00    -0.648 OA
HETATM   65  O2  UNL     1      12.063  -3.221   1.205  1.00  0.00    -0.775 OA
HETATM   66  O3  UNL     1      10.874  -0.913   3.425  1.00  0.00    -0.274 OA
HETATM   67  O4  UNL     1       8.901  -1.069  -1.344  1.00  0.00    -0.271 OA
HETATM   68  O5  UNL     1       6.553   0.813   3.109  1.00  0.00    -0.274 OA
HETATM   69  O6  UNL     1       5.286   1.752  -0.393  1.00  0.00    -0.271 OA
HETATM   70  O7  UNL     1       2.544  -0.856  -1.715  1.00  0.00    -0.271 OA
HETATM   71  O8  UNL     1       1.970   0.543   1.588  1.00  0.00    -0.272 OA
HETATM   72  O9  UNL     1      -2.391  -0.631   1.451  1.00  0.00    -0.271 OA
HETATM   73  O10 UNL     1      -4.579  -3.496   2.495  1.00  0.00    -0.271 OA
HETATM   74  O11 UNL     1      -6.986   1.261   2.092  1.00  0.00    -0.271 OA
HETATM   75  O12 UNL     1      -4.007   0.587  -1.022  1.00  0.00    -0.272 OA
HETATM   76  O13 UNL     1      -7.945   0.207  -2.641  1.00  0.00    -0.272 OA
HETATM   77  O14 UNL     1      -7.910   3.822  -0.501  1.00  0.00    -0.274 OA
HETATM   78  S1  UNL     1       6.800  -0.512  -4.651  1.00  0.00    -0.173 SA
HETATM   79  S2  UNL     1      -0.076   4.762   0.290  1.00  0.00    -0.173 SA
HETATM   80  H62 UNL     1     -10.073   1.535  -0.511  1.00  0.00     0.162 HD
HETATM   81  H63 UNL     1      -6.928   3.173  -2.254  1.00  0.00     0.163 HD
HETATM   82  H64 UNL     1      -6.256   2.723  -0.398  1.00  0.00     0.163 HD
HETATM   83  H65 UNL     1      -4.232  -0.181   1.601  1.00  0.00     0.163 HD
HETATM   84  H66 UNL     1      -4.403  -1.443   0.105  1.00  0.00     0.163 HD
HETATM   85  H67 UNL     1      -0.262  -2.937   0.931  1.00  0.00     0.163 HD
HETATM   86  H68 UNL     1      -0.075  -0.664  -0.460  1.00  0.00     0.163 HD
HETATM   87  H69 UNL     1       3.364   2.151  -1.729  1.00  0.00     0.163 HD
HETATM   88  H70 UNL     1       6.611  -0.818  -1.740  1.00  0.00     0.163 HD
HETATM   89  H71 UNL     1       9.260  -0.491   1.743  1.00  0.00     0.163 HD
HETATM   90  H72 UNL     1      12.720   0.269   4.540  1.00  0.00     0.159 HD
HETATM   91  H73 UNL     1      13.524   0.782   3.092  1.00  0.00     0.159 HD
HETATM   92  H74 UNL     1       4.388   1.894   3.548  1.00  0.00     0.159 HD
HETATM   93  H75 UNL     1       3.468   0.895   2.492  1.00  0.00     0.159 HD
HETATM   94  H76 UNL     1       1.869  -2.941  -2.494  1.00  0.00     0.165 HD
HETATM   95  H77 UNL     1      11.850  -4.136   1.489  1.00  0.00     0.167 HD
ENDROOT
TORSDOF 38
