REMARK  0 active torsions:
REMARK  status: ('A' for Active; 'I' for Inactive)
REMARK       I    between atoms: C2_2  and  C3_3 
REMARK       I    between atoms: C2_2  and  N6_91 
REMARK       I    between atoms: C3_3  and  N1_86 
REMARK       I    between atoms: C4_4  and  C5_5 
REMARK       I    between atoms: C4_4  and  C8_8 
REMARK       I    between atoms: C4_4  and  N1_86 
REMARK       I    between atoms: C8_8  and  N2_87 
REMARK       I    between atoms: C9_9  and  C10_10 
REMARK       I    between atoms: C9_9  and  C13_13 
REMARK       I    between atoms: C9_9  and  N2_87 
REMARK       I    between atoms: C13_13  and  N3_88 
REMARK       I    between atoms: C14_14  and  C15_15 
REMARK       I    between atoms: C14_14  and  C18_18 
REMARK       I    between atoms: C14_14  and  N3_88 
REMARK       I    between atoms: C18_18  and  N4_89 
REMARK       I    between atoms: C19_19  and  C21_21 
REMARK       I    between atoms: C19_19  and  N4_89 
REMARK       I    between atoms: C21_21  and  N5_90 
REMARK       I    between atoms: C22_22  and  C23_23 
REMARK       I    between atoms: C22_22  and  C30_30 
REMARK       I    between atoms: C22_22  and  N5_90 
REMARK       I    between atoms: C23_23  and  C24_24 
REMARK       I    between atoms: C24_24  and  C25_25 
REMARK       I    between atoms: C25_25  and  O7_68 
REMARK       I    between atoms: C26_26  and  O7_68 
REMARK       I    between atoms: C30_30  and  O9_70 
REMARK       I    between atoms: C31_31  and  C32_32 
REMARK       I    between atoms: C31_31  and  N6_91 
REMARK       I    between atoms: C32_32  and  N7_92 
REMARK       I    between atoms: C34_34  and  C35_35 
REMARK       I    between atoms: C34_34  and  N7_92 
REMARK       I    between atoms: C39_39  and  C40_40 
REMARK       I    between atoms: C39_39  and  N8_93 
REMARK       I    between atoms: C40_40  and  C41_41 
REMARK       I    between atoms: C40_40  and  N9_94 
REMARK       I    between atoms: C44_44  and  C45_45 
REMARK       I    between atoms: C44_44  and  N9_94 
REMARK       I    between atoms: C45_45  and  C46_46 
REMARK       I    between atoms: C45_45  and  N11_96 
REMARK       I    between atoms: C46_46  and  O14_75 
REMARK       I    between atoms: C48_48  and  O14_75 
REMARK       I    between atoms: C49_49  and  N10_95 
REMARK       I    between atoms: C50_50  and  O18_79 
REMARK       I    between atoms: C51_51  and  O17_78 
REMARK       I    between atoms: C52_52  and  C53_53 
REMARK       I    between atoms: C53_53  and  O16_77 
REMARK       I    between atoms: C54_54  and  O18_79 
REMARK       I    between atoms: C55_55  and  O23_84 
REMARK       I    between atoms: C56_56  and  O22_83 
REMARK       I    between atoms: C57_57  and  O21_82 
REMARK       I    between atoms: C58_58  and  C59_59 
REMARK       I    between atoms: C59_59  and  O20_81 
REMARK       I    between atoms: C60_60  and  N10_95 
ROOT
HETATM    1  C1  UNL     1      -0.156   0.172  -0.434  1.00  0.00     0.042 C 
HETATM    2  C2  UNL     1      -1.380   0.801   0.215  1.00  0.00     0.172 C 
HETATM    3  C3  UNL     1      -1.021   2.201   0.748  1.00  0.00     0.240 C 
HETATM    4  C4  UNL     1       0.076   3.457   2.599  1.00  0.00     0.180 C 
HETATM    5  C5  UNL     1       0.160   3.337   4.140  1.00  0.00     0.009 C 
HETATM    6  C6  UNL     1       0.948   2.121   4.643  1.00  0.00     0.012 C 
HETATM    7  C7  UNL     1      -1.243   3.318   4.756  1.00  0.00     0.012 C 
HETATM    8  C8  UNL     1       1.421   3.893   1.963  1.00  0.00     0.241 C 
HETATM    9  C9  UNL     1       2.474   4.463  -0.214  1.00  0.00     0.180 C 
HETATM   10  C10 UNL     1       2.184   5.438  -1.376  1.00  0.00     0.009 C 
HETATM   11  C11 UNL     1       3.453   5.712  -2.194  1.00  0.00     0.012 C 
HETATM   12  C12 UNL     1       1.629   6.775  -0.866  1.00  0.00     0.012 C 
HETATM   13  C13 UNL     1       2.841   3.039  -0.712  1.00  0.00     0.241 C 
HETATM   14  C14 UNL     1       4.021   0.962  -0.046  1.00  0.00     0.180 C 
HETATM   15  C15 UNL     1       3.849  -0.036   1.122  1.00  0.00     0.009 C 
HETATM   16  C16 UNL     1       4.698   0.300   2.352  1.00  0.00     0.012 C 
HETATM   17  C17 UNL     1       4.100  -1.481   0.690  1.00  0.00     0.012 C 
HETATM   18  C18 UNL     1       5.497   1.268  -0.397  1.00  0.00     0.241 C 
HETATM   19  C19 UNL     1       7.498   0.429  -1.619  1.00  0.00     0.172 C 
HETATM   20  C20 UNL     1       7.978   1.796  -2.097  1.00  0.00     0.042 C 
HETATM   21  C21 UNL     1       8.284  -0.189  -0.435  1.00  0.00     0.240 C 
HETATM   22  C22 UNL     1      10.456  -0.325   0.766  1.00  0.00     0.182 C 
HETATM   23  C23 UNL     1      11.017  -1.715   0.430  1.00  0.00     0.046 C 
HETATM   24  C24 UNL     1      11.882  -2.335   1.531  1.00  0.00     0.113 C 
HETATM   25  C25 UNL     1      13.345  -1.967   1.410  1.00  0.00     0.259 C 
HETATM   26  C26 UNL     1      15.410  -2.064   2.711  1.00  0.00     0.060 C 
HETATM   27  C27 UNL     1      16.246  -2.826   1.678  1.00  0.00     0.045 C 
HETATM   28  C28 UNL     1      15.696  -0.558   2.682  1.00  0.00     0.045 C 
HETATM   29  C29 UNL     1      15.749  -2.601   4.110  1.00  0.00     0.045 C 
HETATM   30  C30 UNL     1      11.552   0.713   1.035  1.00  0.00     0.163 C 
HETATM   31  C31 UNL     1      -3.768   1.010  -0.316  1.00  0.00     0.240 C 
HETATM   32  C32 UNL     1      -4.761   1.548  -1.365  1.00  0.00     0.172 C 
HETATM   33  C33 UNL     1      -6.158   0.985  -1.120  1.00  0.00     0.042 C 
HETATM   34  C34 UNL     1      -4.815   1.981  -3.795  1.00  0.00     0.241 C 
HETATM   35  C35 UNL     1      -4.438   1.416  -5.186  1.00  0.00     0.179 C 
HETATM   36  C36 UNL     1      -5.093   2.214  -6.314  1.00  0.00     0.037 C 
HETATM   37  C37 UNL     1      -6.478   1.581  -6.415  1.00  0.00     0.022 C 
HETATM   38  C38 UNL     1      -6.202   0.102  -6.175  1.00  0.00     0.127 C 
HETATM   39  C39 UNL     1      -4.337  -1.054  -4.891  1.00  0.00     0.243 C 
HETATM   40  C40 UNL     1      -4.878  -2.450  -5.296  1.00  0.00     0.180 C 
HETATM   41  C41 UNL     1      -4.443  -2.830  -6.735  1.00  0.00     0.009 C 
HETATM   42  C42 UNL     1      -5.186  -4.079  -7.218  1.00  0.00     0.012 C 
HETATM   43  C43 UNL     1      -2.930  -3.033  -6.887  1.00  0.00     0.012 C 
HETATM   44  C44 UNL     1      -5.067  -3.667  -3.126  1.00  0.00     0.254 C 
HETATM   45  C45 UNL     1      -4.362  -4.728  -2.242  1.00  0.00     0.337 C 
HETATM   46  C46 UNL     1      -3.672  -4.078  -1.019  1.00  0.00     0.163 C 
HETATM   47  C47 UNL     1      -2.507  -3.163  -1.395  1.00  0.00     0.042 C 
HETATM   48  C48 UNL     1      -5.446  -3.992   0.610  1.00  0.00     0.286 C 
HETATM   49  C49 UNL     1      -6.596  -3.052   1.025  1.00  0.00     0.171 C 
HETATM   50  C50 UNL     1      -6.035  -1.833   1.798  1.00  0.00     0.183 C 
HETATM   51  C51 UNL     1      -4.609  -2.083   2.342  1.00  0.00     0.180 C 
HETATM   52  C52 UNL     1      -4.401  -3.555   2.750  1.00  0.00     0.179 C 
HETATM   53  C53 UNL     1      -5.140  -3.941   4.047  1.00  0.00     0.198 C 
HETATM   54  C54 UNL     1      -7.378  -0.199   2.920  1.00  0.00     0.292 C 
HETATM   55  C55 UNL     1      -8.311  -0.069   4.136  1.00  0.00     0.204 C 
HETATM   56  C56 UNL     1      -8.863   1.355   4.249  1.00  0.00     0.183 C 
HETATM   57  C57 UNL     1      -7.960   2.392   3.561  1.00  0.00     0.180 C 
HETATM   58  C58 UNL     1      -6.491   1.956   3.629  1.00  0.00     0.179 C 
HETATM   59  C59 UNL     1      -5.574   2.994   2.964  1.00  0.00     0.198 C 
HETATM   60  C60 UNL     1      -8.630  -2.098  -0.085  1.00  0.00     0.214 C 
HETATM   61  C61 UNL     1      -9.206  -1.706  -1.419  1.00  0.00     0.117 C 
HETATM   62  O1  UNL     1      -1.226   3.229   0.101  1.00  0.00    -0.271 OA
HETATM   63  O2  UNL     1       2.505   3.849   2.540  1.00  0.00    -0.271 OA
HETATM   64  O3  UNL     1       2.629   2.633  -1.852  1.00  0.00    -0.271 OA
HETATM   65  O4  UNL     1       6.111   2.207   0.109  1.00  0.00    -0.271 OA
HETATM   66  O5  UNL     1       7.773  -1.020   0.319  1.00  0.00    -0.271 OA
HETATM   67  O6  UNL     1      13.850  -1.447   0.425  1.00  0.00    -0.265 OA
HETATM   68  O7  UNL     1      13.994  -2.334   2.546  1.00  0.00    -0.311 OA
HETATM   69  O8  UNL     1      12.310   0.728   1.991  1.00  0.00    -0.648 OA
HETATM   70  O9  UNL     1      11.653   1.658   0.070  1.00  0.00    -0.775 OA
HETATM   71  O10 UNL     1      -4.085   0.775   0.849  1.00  0.00    -0.271 OA
HETATM   72  O11 UNL     1      -5.473   3.008  -3.644  1.00  0.00    -0.271 OA
HETATM   73  O12 UNL     1      -3.344  -0.934  -4.166  1.00  0.00    -0.271 OA
HETATM   74  O13 UNL     1      -6.094  -3.084  -2.781  1.00  0.00    -0.271 OA
HETATM   75  O14 UNL     1      -4.579  -3.270  -0.266  1.00  0.00    -0.352 OA
HETATM   76  O15 UNL     1      -4.730  -4.507   1.726  1.00  0.00    -0.349 OA
HETATM   77  O16 UNL     1      -4.733  -3.169   5.172  1.00  0.00    -0.398 OA
HETATM   78  O17 UNL     1      -4.282  -1.208   3.432  1.00  0.00    -0.390 OA
HETATM   79  O18 UNL     1      -6.905  -1.549   2.911  1.00  0.00    -0.348 OA
HETATM   80  O19 UNL     1      -6.259   0.690   2.981  1.00  0.00    -0.348 OA
HETATM   81  O20 UNL     1      -4.219   2.541   2.966  1.00  0.00    -0.398 OA
HETATM   82  O21 UNL     1      -8.167   3.678   4.146  1.00  0.00    -0.390 OA
HETATM   83  O22 UNL     1      -9.021   1.721   5.636  1.00  0.00    -0.390 OA
HETATM   84  O23 UNL     1      -7.589  -0.370   5.356  1.00  0.00    -0.388 OA
HETATM   85  O24 UNL     1      -9.230  -1.906   0.967  1.00  0.00    -0.274 OA
HETATM   86  N1  UNL     1      -0.369   2.213   1.960  1.00  0.00    -0.346 N 
HETATM   87  N2  UNL     1       1.305   4.293   0.645  1.00  0.00    -0.346 N 
HETATM   88  N3  UNL     1       3.377   2.232   0.275  1.00  0.00    -0.346 N 
HETATM   89  N4  UNL     1       6.069   0.398  -1.303  1.00  0.00    -0.346 N 
HETATM   90  N5  UNL     1       9.614   0.142  -0.342  1.00  0.00    -0.345 N 
HETATM   91  N6  UNL     1      -2.459   0.944  -0.754  1.00  0.00    -0.346 N 
HETATM   92  N7  UNL     1      -4.318   1.266  -2.726  1.00  0.00    -0.346 N 
HETATM   93  N8  UNL     1      -4.977   0.063  -5.383  1.00  0.00    -0.337 N 
HETATM   94  N9  UNL     1      -4.441  -3.457  -4.334  1.00  0.00    -0.346 N 
HETATM   95  N10 UNL     1      -7.376  -2.648  -0.161  1.00  0.00    -0.349 N 
HETATM   96  N11 UNL     1      -3.418  -5.540  -3.060  1.00  0.00     0.094 N 
HETATM   97  H88 UNL     1      12.418   2.200   0.363  1.00  0.00     0.167 HD
HETATM   98  H89 UNL     1      -4.523  -2.268   4.840  1.00  0.00     0.209 HD
HETATM   99  H90 UNL     1      -4.683  -0.337   3.209  1.00  0.00     0.210 HD
HETATM  100  H91 UNL     1      -4.197   1.773   2.355  1.00  0.00     0.209 HD
HETATM  101  H92 UNL     1      -8.525   3.499   5.043  1.00  0.00     0.210 HD
HETATM  102  H93 UNL     1      -8.505   1.045   6.132  1.00  0.00     0.210 HD
HETATM  103  H94 UNL     1      -7.047  -1.160   5.147  1.00  0.00     0.210 HD
HETATM  104  H95 UNL     1      -0.044   1.336   2.345  1.00  0.00     0.163 HD
HETATM  105  H96 UNL     1       0.409   4.108   0.189  1.00  0.00     0.163 HD
HETATM  106  H97 UNL     1       3.703   2.717   1.111  1.00  0.00     0.163 HD
HETATM  107  H98 UNL     1       5.612  -0.496  -1.427  1.00  0.00     0.163 HD
HETATM  108  H99 UNL     1       9.983   0.938  -0.854  1.00  0.00     0.163 HD
HETATM  109  HA0 UNL     1      -2.259   1.525  -1.563  1.00  0.00     0.163 HD
HETATM  110  HA1 UNL     1      -3.873   0.367  -2.921  1.00  0.00     0.163 HD
HETATM  111  HA2 UNL     1      -3.467  -3.754  -4.341  1.00  0.00     0.163 HD
HETATM  112  HA3 UNL     1      -6.890  -2.630  -1.062  1.00  0.00     0.163 HD
HETATM  113  HA4 UNL     1      -3.026  -6.278  -2.472  1.00  0.00     0.314 HD
HETATM  114  HA5 UNL     1      -3.958  -6.023  -3.782  1.00  0.00     0.314 HD
ENDROOT
TORSDOF 43
