REMARK  0 active torsions:
REMARK  status: ('A' for Active; 'I' for Inactive)
REMARK       I    between atoms: C2_2  and  C3_3 
REMARK       I    between atoms: C3_3  and  C5_5 
REMARK       I    between atoms: C5_5  and  C6_6 
REMARK       I    between atoms: C5_5  and  N11_79 
REMARK       I    between atoms: C6_6  and  N1_67 
REMARK       I    between atoms: C7_7  and  C8_8 
REMARK       I    between atoms: C7_7  and  C12_12 
REMARK       I    between atoms: C7_7  and  N1_67 
REMARK       I    between atoms: C8_8  and  C9_9 
REMARK       I    between atoms: C9_9  and  C10_10 
REMARK       I    between atoms: C10_10  and  C11_11 
REMARK       I    between atoms: C11_11  and  N2_68 
REMARK       I    between atoms: C12_12  and  N3_69 
REMARK       I    between atoms: C13_13  and  C14_14 
REMARK       I    between atoms: C13_13  and  C18_18 
REMARK       I    between atoms: C13_13  and  N3_69 
REMARK       I    between atoms: C14_14  and  C15_15 
REMARK       I    between atoms: C15_15  and  C16_16 
REMARK       I    between atoms: C16_16  and  N4_70 
REMARK       I    between atoms: C17_17  and  N5_72 
REMARK       I    between atoms: C17_17  and  N6_73 
REMARK       I    between atoms: C18_18  and  N7_74 
REMARK       I    between atoms: C19_19  and  C20_20 
REMARK       I    between atoms: C19_19  and  C24_24 
REMARK       I    between atoms: C19_19  and  N7_74 
REMARK       I    between atoms: C20_20  and  C21_21 
REMARK       I    between atoms: C21_21  and  C22_22 
REMARK       I    between atoms: C22_22  and  N8_75 
REMARK       I    between atoms: C23_23  and  N9_77 
REMARK       I    between atoms: C23_23  and  N10_78 
REMARK       I    between atoms: C24_24  and  O5_61 
REMARK       I    between atoms: C25_25  and  C26_26 
REMARK       I    between atoms: C25_25  and  N11_79 
REMARK       I    between atoms: C26_26  and  N12_80 
REMARK       I    between atoms: C28_28  and  C29_29 
REMARK       I    between atoms: C28_28  and  N12_80 
REMARK       I    between atoms: C29_29  and  C30_30 
REMARK       I    between atoms: C29_29  and  N13_81 
REMARK       I    between atoms: C30_30  and  C31_31 
REMARK       I    between atoms: C34_34  and  C35_35 
REMARK       I    between atoms: C34_34  and  N13_81 
REMARK       I    between atoms: C35_35  and  C36_36 
REMARK       I    between atoms: C35_35  and  N15_83 
REMARK       I    between atoms: C36_36  and  C37_37 
REMARK       I    between atoms: C45_45  and  C46_46 
REMARK       I    between atoms: C45_45  and  N15_83 
REMARK       I    between atoms: C46_46  and  C47_47 
REMARK       I    between atoms: C46_46  and  N16_84 
REMARK       I    between atoms: C47_47  and  C48_48 
REMARK       I    between atoms: C51_51  and  C52_52 
REMARK       I    between atoms: C51_51  and  N16_84 
REMARK       I    between atoms: C52_52  and  C53_53 
REMARK       I    between atoms: C52_52  and  N20_89 
REMARK       I    between atoms: C53_53  and  C54_54 
REMARK       I    between atoms: C54_54  and  C55_55 
REMARK       I    between atoms: C55_55  and  N17_85 
REMARK       I    between atoms: C56_56  and  N18_87 
REMARK       I    between atoms: C56_56  and  N19_88 
ROOT
HETATM    1  C1  UNL     1      -7.313   0.252  -3.884  1.00  0.00     0.005 C 
HETATM    2  C2  UNL     1      -6.046  -0.511  -3.517  1.00  0.00     0.002 C 
HETATM    3  C3  UNL     1      -5.985  -1.934  -4.111  1.00  0.00     0.013 C 
HETATM    4  C4  UNL     1      -7.164  -2.795  -3.641  1.00  0.00     0.012 C 
HETATM    5  C5  UNL     1      -4.636  -2.643  -3.837  1.00  0.00     0.180 C 
HETATM    6  C6  UNL     1      -4.252  -2.693  -2.332  1.00  0.00     0.241 C 
HETATM    7  C7  UNL     1      -4.334  -4.253  -0.332  1.00  0.00     0.176 C 
HETATM    8  C8  UNL     1      -3.054  -5.112  -0.414  1.00  0.00     0.035 C 
HETATM    9  C9  UNL     1      -1.780  -4.400  -0.873  1.00  0.00     0.004 C 
HETATM   10  C10 UNL     1      -0.561  -5.324  -1.016  1.00  0.00     0.030 C 
HETATM   11  C11 UNL     1       0.111  -5.719   0.301  1.00  0.00     0.267 C 
HETATM   12  C12 UNL     1      -4.322  -3.299   0.890  1.00  0.00     0.241 C 
HETATM   13  C13 UNL     1      -3.355  -1.223   1.865  1.00  0.00     0.176 C 
HETATM   14  C14 UNL     1      -2.040  -0.469   1.625  1.00  0.00     0.036 C 
HETATM   15  C15 UNL     1      -1.487   0.286   2.837  1.00  0.00     0.022 C 
HETATM   16  C16 UNL     1      -1.077  -0.635   3.987  1.00  0.00     0.121 C 
HETATM   17  C17 UNL     1       0.083  -0.427   6.021  1.00  0.00     0.121 C 
HETATM   18  C18 UNL     1      -4.531  -0.228   1.947  1.00  0.00     0.241 C 
HETATM   19  C19 UNL     1      -6.286   0.932   0.643  1.00  0.00     0.182 C 
HETATM   20  C20 UNL     1      -6.124   2.045  -0.395  1.00  0.00     0.038 C 
HETATM   21  C21 UNL     1      -5.067   3.072   0.028  1.00  0.00     0.022 C 
HETATM   22  C22 UNL     1      -4.931   4.213  -0.978  1.00  0.00     0.121 C 
HETATM   23  C23 UNL     1      -6.325   5.986  -0.248  1.00  0.00     0.121 C 
HETATM   24  C24 UNL     1      -7.489   0.051   0.282  1.00  0.00     0.163 C 
HETATM   25  C25 UNL     1      -2.390  -2.722  -4.844  1.00  0.00     0.240 C 
HETATM   26  C26 UNL     1      -1.179  -1.835  -5.215  1.00  0.00     0.172 C 
HETATM   27  C27 UNL     1      -0.044  -2.668  -5.794  1.00  0.00     0.042 C 
HETATM   28  C28 UNL     1      -1.325   0.011  -3.560  1.00  0.00     0.241 C 
HETATM   29  C29 UNL     1      -0.921   0.490  -2.134  1.00  0.00     0.177 C 
HETATM   30  C30 UNL     1      -1.316   1.972  -1.934  1.00  0.00     0.038 C 
HETATM   31  C31 UNL     1      -0.707   2.999  -2.917  1.00  0.00    -0.020 C 
HETATM   32  C32 UNL     1      -1.348   4.371  -2.682  1.00  0.00     0.009 C 
HETATM   33  C33 UNL     1       0.810   3.129  -2.804  1.00  0.00     0.009 C 
HETATM   34  C34 UNL     1       0.900  -1.019  -1.366  1.00  0.00     0.241 C 
HETATM   35  C35 UNL     1       2.162  -1.138  -0.485  1.00  0.00     0.181 C 
HETATM   36  C36 UNL     1       1.718  -1.535   0.935  1.00  0.00     0.075 C 
HETATM   37  C37 UNL     1       2.856  -1.827   1.864  1.00  0.00    -0.028 A 
HETATM   38  C38 UNL     1       3.178  -1.092   2.987  1.00  0.00     0.096 A 
HETATM   39  C39 UNL     1       4.698  -2.742   2.843  1.00  0.00     0.042 A 
HETATM   40  C40 UNL     1       5.776  -3.608   3.060  1.00  0.00     0.030 A 
HETATM   41  C41 UNL     1       5.948  -4.665   2.162  1.00  0.00     0.002 A 
HETATM   42  C42 UNL     1       5.073  -4.849   1.095  1.00  0.00     0.001 A 
HETATM   43  C43 UNL     1       3.998  -3.975   0.894  1.00  0.00     0.014 A 
HETATM   44  C44 UNL     1       3.807  -2.894   1.780  1.00  0.00    -0.002 A 
HETATM   45  C45 UNL     1       2.902   1.191   0.077  1.00  0.00     0.241 C 
HETATM   46  C46 UNL     1       4.166   2.068   0.251  1.00  0.00     0.177 C 
HETATM   47  C47 UNL     1       4.238   3.070  -0.910  1.00  0.00     0.038 C 
HETATM   48  C48 UNL     1       5.442   4.032  -0.865  1.00  0.00    -0.020 C 
HETATM   49  C49 UNL     1       5.431   4.916   0.382  1.00  0.00     0.009 C 
HETATM   50  C50 UNL     1       5.448   4.910  -2.119  1.00  0.00     0.009 C 
HETATM   51  C51 UNL     1       5.975   0.817   1.449  1.00  0.00     0.251 C 
HETATM   52  C52 UNL     1       7.202  -0.087   1.165  1.00  0.00     0.308 C 
HETATM   53  C53 UNL     1       8.149  -0.320   2.353  1.00  0.00     0.047 C 
HETATM   54  C54 UNL     1       8.438   0.833   3.320  1.00  0.00     0.022 C 
HETATM   55  C55 UNL     1       8.762   2.180   2.686  1.00  0.00     0.121 C 
HETATM   56  C56 UNL     1       7.897   3.782   4.188  1.00  0.00     0.121 C 
HETATM   57  O1  UNL     1      -3.553  -1.830  -1.798  1.00  0.00    -0.271 OA
HETATM   58  O2  UNL     1      -4.875  -3.603   1.946  1.00  0.00    -0.271 OA
HETATM   59  O3  UNL     1      -4.851   0.325   2.997  1.00  0.00    -0.271 OA
HETATM   60  O4  UNL     1      -8.656   0.405   0.224  1.00  0.00    -0.648 OA
HETATM   61  O5  UNL     1      -7.164  -1.224  -0.037  1.00  0.00    -0.775 OA
HETATM   62  O6  UNL     1      -2.342  -3.948  -4.771  1.00  0.00    -0.271 OA
HETATM   63  O7  UNL     1      -2.260   0.514  -4.189  1.00  0.00    -0.271 OA
HETATM   64  O8  UNL     1       0.273  -2.027  -1.700  1.00  0.00    -0.271 OA
HETATM   65  O9  UNL     1       1.764   1.601   0.297  1.00  0.00    -0.271 OA
HETATM   66  O10 UNL     1       5.584   1.135   2.567  1.00  0.00    -0.271 OA
HETATM   67  N1  UNL     1      -4.793  -3.750  -1.636  1.00  0.00    -0.346 N 
HETATM   68  N2  UNL     1      -0.649  -6.716   1.042  1.00  0.00     0.078 N 
HETATM   69  N3  UNL     1      -3.559  -2.167   0.765  1.00  0.00    -0.346 N 
HETATM   70  N4  UNL     1      -0.343   0.160   4.968  1.00  0.00    -0.372 N 
ATOM     71  H4  UNL     1      -0.175   1.155   4.817  1.00  0.00     0.161 HD
HETATM   72  N5  UNL     1      -0.026  -1.717   6.406  1.00  0.00    -0.279 NA
HETATM   73  N6  UNL     1       0.773   0.274   6.946  1.00  0.00    -0.279 NA
HETATM   74  N7  UNL     1      -5.067   0.125   0.724  1.00  0.00    -0.345 N 
HETATM   75  N8  UNL     1      -6.161   4.996  -1.038  1.00  0.00    -0.372 N 
ATOM     76  H8  UNL     1      -6.889   4.753  -1.710  1.00  0.00     0.161 HD
HETATM   77  N9  UNL     1      -7.451   6.727  -0.327  1.00  0.00    -0.279 NA
HETATM   78  N10 UNL     1      -5.525   6.471   0.727  1.00  0.00    -0.279 NA
HETATM   79  N11 UNL     1      -3.538  -2.004  -4.554  1.00  0.00    -0.346 N 
HETATM   80  N12 UNL     1      -0.720  -1.138  -4.014  1.00  0.00    -0.346 N 
HETATM   81  N13 UNL     1       0.455   0.241  -1.682  1.00  0.00    -0.346 N 
HETATM   82  N14 UNL     1       4.290  -1.642   3.560  1.00  0.00    -0.365 N 
HETATM   83  N15 UNL     1       3.130  -0.033  -0.518  1.00  0.00    -0.346 N 
HETATM   84  N16 UNL     1       5.356   1.219   0.283  1.00  0.00    -0.346 N 
HETATM   85  N17 UNL     1       8.934   3.186   3.731  1.00  0.00    -0.372 N 
ATOM     86  H17 UNL     1       9.862   3.409   4.090  1.00  0.00     0.161 HD
HETATM   87  N18 UNL     1       6.588   3.634   3.885  1.00  0.00    -0.279 NA
HETATM   88  N19 UNL     1       8.042   4.741   5.127  1.00  0.00    -0.279 NA
HETATM   89  N20 UNL     1       7.911   0.419  -0.040  1.00  0.00     0.092 N 
HETATM   90  H73 UNL     1      -8.037  -1.649  -0.171  1.00  0.00     0.167 HD
HETATM   91  H74 UNL     1      -5.227  -4.464  -2.208  1.00  0.00     0.163 HD
HETATM   92  H75 UNL     1      -0.722  -7.570   0.490  1.00  0.00     0.312 HD
HETATM   93  H76 UNL     1      -0.141  -6.966   1.889  1.00  0.00     0.312 HD
HETATM   94  H77 UNL     1      -3.265  -1.904  -0.177  1.00  0.00     0.163 HD
HETATM   95  H78 UNL     1      -0.716  -2.245   5.885  1.00  0.00     0.126 HD
HETATM   96  H79 UNL     1      -0.199  -1.799   7.401  1.00  0.00     0.126 HD
HETATM   97  H80 UNL     1       1.617  -0.204   7.234  1.00  0.00     0.126 HD
HETATM   98  H81 UNL     1       0.986   1.197   6.580  1.00  0.00     0.126 HD
HETATM   99  H82 UNL     1      -4.952  -0.573  -0.005  1.00  0.00     0.163 HD
HETATM  100  H83 UNL     1      -7.975   6.455  -1.154  1.00  0.00     0.126 HD
HETATM  101  H84 UNL     1      -7.252   7.719  -0.347  1.00  0.00     0.126 HD
HETATM  102  H85 UNL     1      -4.805   5.825   1.028  1.00  0.00     0.126 HD
HETATM  103  H86 UNL     1      -6.061   6.794   1.525  1.00  0.00     0.126 HD
HETATM  104  H87 UNL     1      -3.386  -1.009  -4.382  1.00  0.00     0.163 HD
HETATM  105  H88 UNL     1      -0.325  -1.725  -3.278  1.00  0.00     0.163 HD
HETATM  106  H89 UNL     1       0.834   0.956  -1.060  1.00  0.00     0.163 HD
HETATM  107  H90 UNL     1       4.754  -1.281   4.383  1.00  0.00     0.165 HD
HETATM  108  H91 UNL     1       4.095  -0.329  -0.416  1.00  0.00     0.163 HD
HETATM  109  H92 UNL     1       5.896   1.055  -0.567  1.00  0.00     0.163 HD
HETATM  110  H93 UNL     1       5.991   3.747   4.696  1.00  0.00     0.126 HD
HETATM  111  H94 UNL     1       6.341   2.765   3.410  1.00  0.00     0.126 HD
HETATM  112  H95 UNL     1       9.027   4.966   5.232  1.00  0.00     0.126 HD
HETATM  113  H96 UNL     1       7.511   5.574   4.905  1.00  0.00     0.126 HD
HETATM  114  H97 UNL     1       8.667  -0.230  -0.265  1.00  0.00     0.313 HD
HETATM  115  H98 UNL     1       8.379   1.298   0.186  1.00  0.00     0.313 HD
ENDROOT
TORSDOF 44
