REMARK  18 active torsions:
REMARK  status: ('A' for Active; 'I' for Inactive)
REMARK    1  A    between atoms: C2_2  and  O1_63 
REMARK    2  A    between atoms: C3_3  and  N2_74 
REMARK    3  A    between atoms: C5_5  and  C8_8 
REMARK       I    between atoms: C8_8  and  N1_73 
REMARK    4  A    between atoms: C9_9  and  N1_73 
REMARK    5  A    between atoms: C15_15  and  N3_76 
REMARK    6  A    between atoms: C16_16  and  O10_72 
REMARK    7  A    between atoms: C17_17  and  C25_25 
REMARK       I    between atoms: C25_25  and  N4_78 
REMARK    8  A    between atoms: C26_26  and  N4_78 
REMARK    9  A    between atoms: C28_28  and  S1_85 
REMARK   10  A    between atoms: C32_32  and  S1_85 
REMARK   11  A    between atoms: C36_36  and  N5_79 
REMARK   12  A    between atoms: C38_38  and  C39_39 
REMARK       I    between atoms: C38_38  and  N5_79 
REMARK   13  A    between atoms: C47_47  and  N6_80 
REMARK   14  A    between atoms: C48_48  and  O7_69 
REMARK   15  A    between atoms: C49_49  and  N7_82 
REMARK   16  A    between atoms: C50_50  and  O9_71 
REMARK   17  A    between atoms: C53_53  and  C55_55 
REMARK       I    between atoms: C55_55  and  N8_84 
REMARK   18  A    between atoms: C56_56  and  N8_84 
ROOT
HETATM    1  O4  UNL     1      -0.016  -3.276   4.947  1.00  0.00    -0.217 OA
HETATM    2  O5  UNL     1       2.471  -3.008   4.626  1.00  0.00    -0.217 OA
HETATM    3  S1  UNL     1       1.107  -2.670   4.257  1.00  0.00     0.206 S 
ENDROOT
BRANCH   3   4
HETATM    4  C28 UNL     1       0.906  -3.048   2.531  1.00  0.00     0.066 A 
HETATM    5  C27 UNL     1      -0.254  -2.618   1.875  1.00  0.00     0.053 A 
HETATM    6  C26 UNL     1      -0.416  -2.878   0.514  1.00  0.00     0.036 A 
HETATM    7  C31 UNL     1       0.594  -3.571  -0.170  1.00  0.00     0.029 A 
HETATM    8  C30 UNL     1       1.746  -4.004   0.493  1.00  0.00     0.004 A 
HETATM    9  C29 UNL     1       1.906  -3.743   1.851  1.00  0.00     0.024 A 
BRANCH   6  10
HETATM   10  N4  UNL     1      -1.538  -2.469  -0.238  1.00  0.00    -0.323 N 
HETATM   11  C25 UNL     1      -2.679  -1.847   0.234  1.00  0.00     0.259 C 
HETATM   12  O3  UNL     1      -2.960  -1.620   1.407  1.00  0.00    -0.267 OA
HETATM   13  H44 UNL     1      -1.527  -2.736  -1.214  1.00  0.00     0.169 HD
BRANCH  11  14
HETATM   14  C17 UNL     1      -3.689  -1.473  -0.795  1.00  0.00     0.068 A 
HETATM   15  C16 UNL     1      -5.052  -1.501  -0.474  1.00  0.00     0.110 A 
HETATM   16  C15 UNL     1      -6.025  -1.198  -1.445  1.00  0.00     0.093 A 
HETATM   17  C24 UNL     1      -5.620  -0.788  -2.746  1.00  0.00     0.005 A 
HETATM   18  C19 UNL     1      -4.238  -0.721  -3.050  1.00  0.00    -0.022 A 
HETATM   19  C23 UNL     1      -6.536  -0.429  -3.761  1.00  0.00     0.014 A 
HETATM   20  C18 UNL     1      -3.290  -1.065  -2.074  1.00  0.00     0.032 A 
HETATM   21  C20 UNL     1      -3.821  -0.305  -4.326  1.00  0.00     0.012 A 
HETATM   22  C21 UNL     1      -4.749   0.042  -5.307  1.00  0.00     0.001 A 
HETATM   23  C22 UNL     1      -6.107  -0.021  -5.025  1.00  0.00     0.001 A 
BRANCH  15  24
HETATM   24  O10 UNL     1      -5.486  -1.821   0.794  1.00  0.00    -0.357 OA
HETATM   25  H42 UNL     1      -4.714  -1.806   1.402  1.00  0.00     0.217 HD
ENDBRANCH  15  24
BRANCH  16  26
HETATM   26  N3  UNL     1      -7.393  -1.253  -1.088  1.00  0.00    -0.297 N 
HETATM   27  N2  UNL     1      -7.891  -2.333  -1.479  1.00  0.00    -0.297 N 
ATOM     28  H2  UNL     1      -7.383  -3.028  -2.026  1.00  0.00     0.187 HD
ATOM     29  H3  UNL     1      -7.898  -0.522  -0.587  1.00  0.00     0.187 HD
BRANCH  27  30
HETATM   30  C3  UNL     1      -9.240  -2.479  -1.076  1.00  0.00     0.082 A 
HETATM   31  C2  UNL     1      -9.722  -3.762  -0.735  1.00  0.00     0.096 A 
HETATM   32  C7  UNL     1     -11.062  -3.929  -0.365  1.00  0.00     0.040 A 
HETATM   33  C6  UNL     1     -11.924  -2.830  -0.321  1.00  0.00     0.020 A 
HETATM   34  C5  UNL     1     -11.455  -1.555  -0.645  1.00  0.00     0.034 A 
HETATM   35  C4  UNL     1     -10.126  -1.386  -1.044  1.00  0.00     0.051 A 
BRANCH  31  36
HETATM   36  O1  UNL     1      -8.810  -4.786  -0.815  1.00  0.00    -0.354 OA
HETATM   37  C1  UNL     1      -9.208  -6.061  -0.330  1.00  0.00     0.210 C 
ENDBRANCH  31  36
BRANCH  34  38
HETATM   38  C8  UNL     1     -12.402  -0.407  -0.586  1.00  0.00     0.256 C 
HETATM   39  O2  UNL     1     -13.570  -0.609  -0.895  1.00  0.00    -0.267 OA
HETATM   40  N1  UNL     1     -11.846   0.779  -0.142  1.00  0.00    -0.323 N 
HETATM   41  H43 UNL     1     -10.893   0.744   0.198  1.00  0.00     0.169 HD
BRANCH  40  42
HETATM   42  C9  UNL     1     -12.484   2.032  -0.023  1.00  0.00     0.035 A 
HETATM   43  C10 UNL     1     -13.796   2.281  -0.427  1.00  0.00     0.029 A 
HETATM   44  C11 UNL     1     -14.353   3.556  -0.279  1.00  0.00     0.002 A 
HETATM   45  C12 UNL     1     -13.602   4.592   0.271  1.00  0.00     0.000 A 
HETATM   46  C13 UNL     1     -12.291   4.354   0.674  1.00  0.00     0.002 A 
HETATM   47  C14 UNL     1     -11.735   3.081   0.527  1.00  0.00     0.029 A 
ENDBRANCH  40  42
ENDBRANCH  34  38
ENDBRANCH  27  30
ENDBRANCH  16  26
ENDBRANCH  11  14
ENDBRANCH   6  10
ENDBRANCH   3   4
BRANCH   3  48
HETATM   48  C32 UNL     1       0.976  -0.905   4.413  1.00  0.00     0.066 A 
HETATM   49  C33 UNL     1      -0.117  -0.337   5.066  1.00  0.00     0.024 A 
HETATM   50  C34 UNL     1      -0.198   1.049   5.164  1.00  0.00     0.004 A 
HETATM   51  C35 UNL     1       0.808   1.857   4.617  1.00  0.00     0.029 A 
HETATM   52  C36 UNL     1       1.907   1.288   3.970  1.00  0.00     0.036 A 
HETATM   53  C37 UNL     1       1.990  -0.105   3.874  1.00  0.00     0.053 A 
BRANCH  52  54
HETATM   54  N5  UNL     1       2.956   2.028   3.394  1.00  0.00    -0.323 N 
HETATM   55  C38 UNL     1       3.116   3.398   3.346  1.00  0.00     0.259 C 
HETATM   56  O6  UNL     1       2.341   4.224   3.819  1.00  0.00    -0.267 OA
HETATM   57  H45 UNL     1       3.696   1.490   2.947  1.00  0.00     0.169 HD
BRANCH  55  58
HETATM   58  C39 UNL     1       4.352   3.896   2.649  1.00  0.00     0.068 A 
HETATM   59  C40 UNL     1       4.562   5.284   2.629  1.00  0.00     0.032 A 
HETATM   60  C41 UNL     1       5.679   5.856   1.999  1.00  0.00    -0.022 A 
HETATM   61  C42 UNL     1       5.860   7.249   1.994  1.00  0.00     0.012 A 
HETATM   62  C46 UNL     1       6.628   5.024   1.360  1.00  0.00     0.005 A 
HETATM   63  C43 UNL     1       6.963   7.828   1.367  1.00  0.00     0.001 A 
HETATM   64  C44 UNL     1       7.902   7.021   0.737  1.00  0.00     0.001 A 
HETATM   65  C45 UNL     1       7.737   5.635   0.733  1.00  0.00     0.014 A 
HETATM   66  C47 UNL     1       6.431   3.622   1.376  1.00  0.00     0.093 A 
HETATM   67  C48 UNL     1       5.296   3.077   2.019  1.00  0.00     0.110 A 
BRANCH  66  68
HETATM   68  N6  UNL     1       7.329   2.768   0.691  1.00  0.00    -0.297 N 
HETATM   69  N7  UNL     1       7.965   2.056   1.499  1.00  0.00    -0.297 N 
ATOM     70  H7  UNL     1       7.818   2.053   2.508  1.00  0.00     0.187 HD
ATOM     71  H6  UNL     1       7.442   2.738  -0.322  1.00  0.00     0.187 HD
BRANCH  69  72
HETATM   72  C49 UNL     1       8.914   1.257   0.824  1.00  0.00     0.082 A 
HETATM   73  C50 UNL     1      10.284   1.366   1.142  1.00  0.00     0.096 A 
HETATM   74  C51 UNL     1      11.213   0.540   0.499  1.00  0.00     0.040 A 
HETATM   75  C52 UNL     1      10.792  -0.393  -0.456  1.00  0.00     0.020 A 
HETATM   76  C53 UNL     1       9.436  -0.501  -0.779  1.00  0.00     0.034 A 
HETATM   77  C54 UNL     1       8.502   0.310  -0.127  1.00  0.00     0.051 A 
BRANCH  73  78
HETATM   78  O9  UNL     1      10.603   2.305   2.090  1.00  0.00    -0.354 OA
HETATM   79  C62 UNL     1      11.962   2.404   2.494  1.00  0.00     0.210 C 
ENDBRANCH  73  78
BRANCH  76  80
HETATM   80  C55 UNL     1       8.938  -1.491  -1.774  1.00  0.00     0.256 C 
HETATM   81  O8  UNL     1       7.843  -2.002  -1.573  1.00  0.00    -0.267 OA
HETATM   82  N8  UNL     1       9.770  -1.696  -2.859  1.00  0.00    -0.323 N 
HETATM   83  H46 UNL     1      10.575  -1.090  -2.946  1.00  0.00     0.169 HD
BRANCH  82  84
HETATM   84  C56 UNL     1       9.579  -2.602  -3.923  1.00  0.00     0.035 A 
HETATM   85  C57 UNL     1       8.530  -3.521  -3.988  1.00  0.00     0.029 A 
HETATM   86  C58 UNL     1       8.416  -4.392  -5.076  1.00  0.00     0.002 A 
HETATM   87  C59 UNL     1       9.350  -4.352  -6.109  1.00  0.00     0.000 A 
HETATM   88  C60 UNL     1      10.401  -3.442  -6.053  1.00  0.00     0.002 A 
HETATM   89  C61 UNL     1      10.516  -2.573  -4.965  1.00  0.00     0.029 A 
ENDBRANCH  82  84
ENDBRANCH  76  80
ENDBRANCH  69  72
ENDBRANCH  66  68
BRANCH  67  90
HETATM   90  O7  UNL     1       5.139   1.706   2.012  1.00  0.00    -0.357 OA
HETATM   91  H41 UNL     1       5.970   1.347   1.634  1.00  0.00     0.217 HD
ENDBRANCH  67  90
ENDBRANCH  55  58
ENDBRANCH  52  54
ENDBRANCH   3  48
TORSDOF 18
