REMARK  0 active torsions:
REMARK  status: ('A' for Active; 'I' for Inactive)
REMARK       I    between atoms: C2_2  and  C3_3 
REMARK       I    between atoms: C3_3  and  C5_5 
REMARK       I    between atoms: C5_5  and  C6_6 
REMARK       I    between atoms: C5_5  and  N3_84 
REMARK       I    between atoms: C6_6  and  C7_7 
REMARK       I    between atoms: C6_6  and  O5_71 
REMARK       I    between atoms: C7_7  and  C8_8 
REMARK       I    between atoms: C8_8  and  N1_82 
REMARK       I    between atoms: C12_12  and  C13_13 
REMARK       I    between atoms: C13_13  and  C14_14 
REMARK       I    between atoms: C13_13  and  O4_70 
REMARK       I    between atoms: C14_14  and  C16_16 
REMARK       I    between atoms: C16_16  and  N2_83 
REMARK       I    between atoms: C17_17  and  C19_19 
REMARK       I    between atoms: C17_17  and  N2_83 
REMARK       I    between atoms: C19_19  and  C20_20 
REMARK       I    between atoms: C19_19  and  O3_69 
REMARK       I    between atoms: C29_29  and  C30_30 
REMARK       I    between atoms: C29_29  and  N3_84 
REMARK       I    between atoms: C30_30  and  C31_31 
REMARK       I    between atoms: C30_30  and  N4_85 
REMARK       I    between atoms: C34_34  and  C35_35 
REMARK       I    between atoms: C34_34  and  N4_85 
REMARK       I    between atoms: C35_35  and  C36_36 
REMARK       I    between atoms: C35_35  and  N5_86 
REMARK       I    between atoms: C40_40  and  O9_75 
REMARK       I    between atoms: C40_40  and  N5_86 
REMARK       I    between atoms: C41_41  and  C42_42 
REMARK       I    between atoms: C41_41  and  O9_75 
REMARK       I    between atoms: C45_45  and  N6_87 
REMARK       I    between atoms: C48_48  and  C49_49 
REMARK       I    between atoms: C48_48  and  N6_87 
REMARK       I    between atoms: C49_49  and  C50_50 
REMARK       I    between atoms: C49_49  and  N9_90 
REMARK       I    between atoms: C50_50  and  C51_51 
REMARK       I    between atoms: C51_51  and  C52_52 
REMARK       I    between atoms: C52_52  and  N7_88 
REMARK       I    between atoms: C53_53  and  N7_88 
REMARK       I    between atoms: C53_53  and  N8_89 
REMARK       I    between atoms: C54_54  and  C55_55 
REMARK       I    between atoms: C54_54  and  N9_90 
REMARK       I    between atoms: C55_55  and  C56_56 
REMARK       I    between atoms: C55_55  and  N10_91 
REMARK       I    between atoms: C59_59  and  C60_60 
REMARK       I    between atoms: C59_59  and  N10_91 
REMARK       I    between atoms: C60_60  and  N12_93 
ROOT
HETATM    1  C1  UNL     1      -4.181  -2.812   0.064  1.00  0.00     0.005 C 
HETATM    2  C2  UNL     1      -5.336  -1.871  -0.260  1.00  0.00     0.002 C 
HETATM    3  C3  UNL     1      -5.107  -0.834  -1.379  1.00  0.00     0.006 C 
HETATM    4  C4  UNL     1      -4.180  -1.382  -2.479  1.00  0.00     0.012 C 
HETATM    5  C5  UNL     1      -4.707   0.637  -1.013  1.00  0.00     0.119 C 
HETATM    6  C6  UNL     1      -5.822   1.564  -0.394  1.00  0.00     0.152 C 
HETATM    7  C7  UNL     1      -6.063   1.468   1.108  1.00  0.00     0.137 C 
HETATM    8  C8  UNL     1      -7.214   2.332   1.601  1.00  0.00     0.222 C 
HETATM    9  C9  UNL     1      -9.173   2.540   3.030  1.00  0.00     0.126 C 
HETATM   10  C10 UNL     1     -10.205   1.594   3.623  1.00  0.00     0.022 C 
HETATM   11  C11 UNL     1      -9.597   0.215   3.423  1.00  0.00     0.029 C 
HETATM   12  C12 UNL     1      -8.742   0.328   2.151  1.00  0.00     0.117 C 
HETATM   13  C13 UNL     1      -9.495  -0.149   0.862  1.00  0.00     0.156 C 
HETATM   14  C14 UNL     1     -10.522   0.860   0.271  1.00  0.00     0.105 C 
HETATM   15  C15 UNL     1      -9.992   1.694  -0.897  1.00  0.00     0.022 C 
HETATM   16  C16 UNL     1     -11.794   0.121  -0.138  1.00  0.00     0.224 C 
HETATM   17  C17 UNL     1     -13.695  -1.213   0.726  1.00  0.00     0.113 C 
HETATM   18  C18 UNL     1     -14.636  -1.095   1.926  1.00  0.00     0.035 C 
HETATM   19  C19 UNL     1     -13.165  -2.657   0.495  1.00  0.00     0.173 C 
HETATM   20  C20 UNL     1     -14.239  -3.649   0.097  1.00  0.00    -0.028 A 
HETATM   21  C21 UNL     1     -14.913  -4.436   1.044  1.00  0.00     0.010 A 
HETATM   22  C22 UNL     1     -15.905  -5.334   0.647  1.00  0.00     0.001 A 
HETATM   23  C23 UNL     1     -16.240  -5.452  -0.700  1.00  0.00     0.000 A 
HETATM   24  C24 UNL     1     -15.587  -4.672  -1.651  1.00  0.00     0.001 A 
HETATM   25  C25 UNL     1     -14.594  -3.774  -1.255  1.00  0.00     0.010 A 
HETATM   26  C26 UNL     1      -8.922  -1.591  -0.954  1.00  0.00     0.202 C 
HETATM   27  C27 UNL     1      -6.265   3.584  -1.604  1.00  0.00     0.202 C 
HETATM   28  C28 UNL     1      -2.465   1.675  -1.297  1.00  0.00     0.153 C 
HETATM   29  C29 UNL     1      -2.950   0.313   0.756  1.00  0.00     0.243 C 
HETATM   30  C30 UNL     1      -1.469   0.355   1.256  1.00  0.00     0.180 C 
HETATM   31  C31 UNL     1      -1.314   1.412   2.383  1.00  0.00     0.009 C 
HETATM   32  C32 UNL     1       0.008   1.235   3.138  1.00  0.00     0.012 C 
HETATM   33  C33 UNL     1      -1.454   2.860   1.912  1.00  0.00     0.012 C 
HETATM   34  C34 UNL     1      -0.044  -0.663  -0.499  1.00  0.00     0.241 C 
HETATM   35  C35 UNL     1       1.156  -0.470  -1.461  1.00  0.00     0.184 C 
HETATM   36  C36 UNL     1       2.540  -0.839  -0.849  1.00  0.00     0.010 C 
HETATM   37  C37 UNL     1       2.691  -0.581   0.653  1.00  0.00     0.012 C 
HETATM   38  C38 UNL     1       2.858  -2.318  -1.119  1.00  0.00     0.012 C 
HETATM   39  C39 UNL     1       1.188   0.687  -3.677  1.00  0.00     0.156 C 
HETATM   40  C40 UNL     1       1.514   2.003  -1.613  1.00  0.00     0.363 C 
HETATM   41  C41 UNL     1       2.376   4.182  -1.928  1.00  0.00     0.219 C 
HETATM   42  C42 UNL     1       3.865   4.034  -1.740  1.00  0.00    -0.034 A 
HETATM   43  C43 UNL     1       4.737   4.162  -2.828  1.00  0.00     0.011 A 
HETATM   44  C44 UNL     1       6.112   3.953  -2.671  1.00  0.00     0.030 A 
HETATM   45  C45 UNL     1       6.634   3.601  -1.427  1.00  0.00     0.034 A 
HETATM   46  C46 UNL     1       5.765   3.481  -0.336  1.00  0.00     0.030 A 
HETATM   47  C47 UNL     1       4.393   3.694  -0.490  1.00  0.00     0.011 A 
HETATM   48  C48 UNL     1       9.043   3.331  -2.098  1.00  0.00     0.245 C 
HETATM   49  C49 UNL     1      10.355   2.806  -1.457  1.00  0.00     0.177 C 
HETATM   50  C50 UNL     1      11.567   3.064  -2.359  1.00  0.00     0.036 C 
HETATM   51  C51 UNL     1      12.925   2.633  -1.783  1.00  0.00     0.022 C 
HETATM   52  C52 UNL     1      13.334   3.351  -0.493  1.00  0.00     0.124 C 
HETATM   53  C53 UNL     1      12.968   1.663   1.240  1.00  0.00     0.291 C 
HETATM   54  C54 UNL     1       9.566   0.923  -0.039  1.00  0.00     0.241 C 
HETATM   55  C55 UNL     1       9.307  -0.600  -0.014  1.00  0.00     0.180 C 
HETATM   56  C56 UNL     1       8.449  -1.035   1.197  1.00  0.00     0.009 C 
HETATM   57  C57 UNL     1       7.007  -0.524   1.056  1.00  0.00     0.012 C 
HETATM   58  C58 UNL     1       8.405  -2.558   1.374  1.00  0.00     0.012 C 
HETATM   59  C59 UNL     1      10.966  -2.320  -0.761  1.00  0.00     0.251 C 
HETATM   60  C60 UNL     1      12.437  -2.856  -0.489  1.00  0.00     0.176 C 
HETATM   61  C61 UNL     1      13.594  -1.862  -0.828  1.00  0.00     0.313 C 
HETATM   62  C62 UNL     1      13.079  -3.705  -1.636  1.00  0.00     0.313 C 
HETATM   63  C63 UNL     1      12.482  -4.789   1.145  1.00  0.00     0.251 C 
HETATM   64  C64 UNL     1      12.528  -4.939   2.603  1.00  0.00     0.080 C 
HETATM   65  C65 UNL     1      12.536  -3.718   3.136  1.00  0.00     0.080 C 
HETATM   66  C66 UNL     1      12.483  -2.758   2.031  1.00  0.00     0.251 C 
HETATM   67  O1  UNL     1      -7.121   3.564   1.597  1.00  0.00    -0.273 OA
HETATM   68  O2  UNL     1     -12.103  -0.110  -1.303  1.00  0.00    -0.273 OA
HETATM   69  O3  UNL     1     -12.444  -3.104   1.655  1.00  0.00    -0.389 OA
HETATM   70  O4  UNL     1      -8.500  -0.515  -0.118  1.00  0.00    -0.388 OA
HETATM   71  O5  UNL     1      -5.403   2.922  -0.690  1.00  0.00    -0.388 OA
HETATM   72  O6  UNL     1      -3.788  -0.147   1.542  1.00  0.00    -0.271 OA
HETATM   73  O7  UNL     1      -0.563  -1.770  -0.352  1.00  0.00    -0.271 OA
HETATM   74  O8  UNL     1       1.504   2.162  -0.398  1.00  0.00    -0.238 OA
HETATM   75  O9  UNL     1       1.852   2.975  -2.498  1.00  0.00    -0.299 OA
HETATM   76  O10 UNL     1       8.985   3.688  -3.271  1.00  0.00    -0.271 OA
HETATM   77  O11 UNL     1      13.846   0.908   0.853  1.00  0.00    -0.254 OA
HETATM   78  O12 UNL     1       9.250   1.693   0.868  1.00  0.00    -0.271 OA
HETATM   79  O13 UNL     1      10.140  -2.825  -1.523  1.00  0.00    -0.271 OA
HETATM   80  O14 UNL     1      12.372  -5.732   0.384  1.00  0.00    -0.268 OA
HETATM   81  O15 UNL     1      12.324  -1.559   2.191  1.00  0.00    -0.268 OA
HETATM   82  N1  UNL     1      -8.336   1.737   2.148  1.00  0.00    -0.345 N 
HETATM   83  N2  UNL     1     -12.568  -0.292   0.928  1.00  0.00    -0.354 N 
HETATM   84  N3  UNL     1      -3.330   0.835  -0.475  1.00  0.00    -0.347 N 
HETATM   85  N4  UNL     1      -0.418   0.426   0.248  1.00  0.00    -0.346 N 
HETATM   86  N5  UNL     1       1.173   0.808  -2.225  1.00  0.00    -0.319 N 
HETATM   87  N6  UNL     1       7.991   3.322  -1.191  1.00  0.00    -0.325 N 
HETATM   88  N7  UNL     1      12.636   2.857   0.675  1.00  0.00    -0.348 N 
HETATM   89  N8  UNL     1      12.173   1.360   2.297  1.00  0.00    -0.254 NA
HETATM   90  N9  UNL     1      10.180   1.377  -1.187  1.00  0.00    -0.346 N 
HETATM   91  N10 UNL     1      10.634  -1.208  -0.006  1.00  0.00    -0.345 N 
HETATM   92  N11 UNL     1      13.703  -2.477  -2.162  1.00  0.00     0.089 N 
HETATM   93  N12 UNL     1      12.559  -3.461   0.869  1.00  0.00    -0.259 N 
HETATM   94  H91 UNL     1     -12.284  -4.056   1.522  1.00  0.00     0.210 HD
HETATM   95  H92 UNL     1     -12.148  -0.319   1.847  1.00  0.00     0.163 HD
HETATM   96  H93 UNL     1       0.211   1.227   0.255  1.00  0.00     0.163 HD
HETATM   97  H94 UNL     1       8.227   3.020  -0.245  1.00  0.00     0.169 HD
HETATM   98  H95 UNL     1      12.284   3.535   1.337  1.00  0.00     0.163 HD
HETATM   99  H96 UNL     1      11.201   1.632   2.201  1.00  0.00     0.128 HD
HETATM  100  H97 UNL     1      12.300   0.397   2.605  1.00  0.00     0.128 HD
HETATM  101  H98 UNL     1      10.276   0.727  -1.962  1.00  0.00     0.163 HD
HETATM  102  H99 UNL     1      11.315  -0.862   0.670  1.00  0.00     0.163 HD
HETATM  103  HA0 UNL     1      14.654  -2.589  -2.512  1.00  0.00     0.316 HD
ENDROOT
TORSDOF 36
