REMARK  0 active torsions:
REMARK  status: ('A' for Active; 'I' for Inactive)
REMARK       I    between atoms: C2_2  and  C3_3 
REMARK       I    between atoms: C3_3  and  C5_5 
REMARK       I    between atoms: C5_5  and  C6_6 
REMARK       I    between atoms: C5_5  and  N3_83 
REMARK       I    between atoms: C6_6  and  C7_7 
REMARK       I    between atoms: C6_6  and  O5_71 
REMARK       I    between atoms: C7_7  and  C8_8 
REMARK       I    between atoms: C8_8  and  N1_81 
REMARK       I    between atoms: C12_12  and  C13_13 
REMARK       I    between atoms: C13_13  and  C14_14 
REMARK       I    between atoms: C13_13  and  O4_70 
REMARK       I    between atoms: C14_14  and  C16_16 
REMARK       I    between atoms: C16_16  and  N2_82 
REMARK       I    between atoms: C17_17  and  C19_19 
REMARK       I    between atoms: C17_17  and  N2_82 
REMARK       I    between atoms: C19_19  and  C20_20 
REMARK       I    between atoms: C19_19  and  O3_69 
REMARK       I    between atoms: C29_29  and  C30_30 
REMARK       I    between atoms: C29_29  and  N3_83 
REMARK       I    between atoms: C30_30  and  C31_31 
REMARK       I    between atoms: C30_30  and  N4_84 
REMARK       I    between atoms: C34_34  and  C35_35 
REMARK       I    between atoms: C34_34  and  N4_84 
REMARK       I    between atoms: C35_35  and  C36_36 
REMARK       I    between atoms: C35_35  and  N5_85 
REMARK       I    between atoms: C40_40  and  C41_41 
REMARK       I    between atoms: C40_40  and  N5_85 
REMARK       I    between atoms: C41_41  and  N6_86 
REMARK       I    between atoms: C42_42  and  C43_43 
REMARK       I    between atoms: C42_42  and  N6_86 
REMARK       I    between atoms: C43_43  and  C44_44 
REMARK       I    between atoms: C43_43  and  C48_48 
REMARK       I    between atoms: C44_44  and  C45_45 
REMARK       I    between atoms: C45_45  and  C46_46 
REMARK       I    between atoms: C46_46  and  N7_87 
REMARK       I    between atoms: C47_47  and  N7_87 
REMARK       I    between atoms: C47_47  and  N8_88 
REMARK       I    between atoms: C48_48  and  C49_49 
REMARK       I    between atoms: C49_49  and  C50_50 
REMARK       I    between atoms: C50_50  and  C51_51 
REMARK       I    between atoms: C50_50  and  N9_89 
REMARK       I    between atoms: C54_54  and  C55_55 
REMARK       I    between atoms: C54_54  and  N9_89 
REMARK       I    between atoms: C55_55  and  C56_56 
REMARK       I    between atoms: C56_56  and  N10_90 
REMARK       I    between atoms: C57_57  and  C58_58 
REMARK       I    between atoms: C57_57  and  N10_90 
REMARK       I    between atoms: C58_58  and  N11_91 
REMARK       I    between atoms: C60_60  and  C61_61 
REMARK       I    between atoms: C60_60  and  N11_91 
REMARK       I    between atoms: C61_61  and  C62_62 
REMARK       I    between atoms: C62_62  and  N12_92 
ROOT
HETATM    1  C1  UNL     1       5.718  -4.786  -3.949  1.00  0.00     0.005 C 
HETATM    2  C2  UNL     1       5.651  -3.334  -3.485  1.00  0.00     0.002 C 
HETATM    3  C3  UNL     1       4.255  -2.696  -3.593  1.00  0.00     0.006 C 
HETATM    4  C4  UNL     1       3.591  -2.951  -4.958  1.00  0.00     0.012 C 
HETATM    5  C5  UNL     1       4.127  -1.182  -3.176  1.00  0.00     0.119 C 
HETATM    6  C6  UNL     1       4.535  -0.829  -1.696  1.00  0.00     0.152 C 
HETATM    7  C7  UNL     1       6.009  -0.754  -1.275  1.00  0.00     0.137 C 
HETATM    8  C8  UNL     1       6.766   0.543  -1.532  1.00  0.00     0.222 C 
HETATM    9  C9  UNL     1       8.841   1.786  -1.137  1.00  0.00     0.126 C 
HETATM   10  C10 UNL     1      10.148   1.357  -0.478  1.00  0.00     0.022 C 
HETATM   11  C11 UNL     1       9.814   0.057   0.256  1.00  0.00     0.029 C 
HETATM   12  C12 UNL     1       8.299   0.120   0.506  1.00  0.00     0.117 C 
HETATM   13  C13 UNL     1       7.986   0.844   1.870  1.00  0.00     0.156 C 
HETATM   14  C14 UNL     1       6.493   1.066   2.228  1.00  0.00     0.105 C 
HETATM   15  C15 UNL     1       5.778   2.075   1.333  1.00  0.00     0.022 C 
HETATM   16  C16 UNL     1       5.776  -0.268   2.444  1.00  0.00     0.224 C 
HETATM   17  C17 UNL     1       3.546  -1.353   2.819  1.00  0.00     0.113 C 
HETATM   18  C18 UNL     1       3.535  -2.373   1.679  1.00  0.00     0.035 C 
HETATM   19  C19 UNL     1       2.128  -0.816   3.173  1.00  0.00     0.173 C 
HETATM   20  C20 UNL     1       1.110  -1.860   3.584  1.00  0.00    -0.028 A 
HETATM   21  C21 UNL     1       0.919  -2.150   4.944  1.00  0.00     0.010 A 
HETATM   22  C22 UNL     1      -0.012  -3.113   5.344  1.00  0.00     0.001 A 
HETATM   23  C23 UNL     1      -0.755  -3.805   4.390  1.00  0.00     0.000 A 
HETATM   24  C24 UNL     1      -0.569  -3.535   3.037  1.00  0.00     0.001 A 
HETATM   25  C25 UNL     1       0.351  -2.566   2.636  1.00  0.00     0.010 A 
HETATM   26  C26 UNL     1       9.125   2.461   3.232  1.00  0.00     0.202 C 
HETATM   27  C27 UNL     1       2.502   0.387  -1.164  1.00  0.00     0.202 C 
HETATM   28  C28 UNL     1       5.830  -0.267  -4.811  1.00  0.00     0.153 C 
HETATM   29  C29 UNL     1       3.494   0.587  -4.771  1.00  0.00     0.243 C 
HETATM   30  C30 UNL     1       3.831   1.881  -5.578  1.00  0.00     0.180 C 
HETATM   31  C31 UNL     1       4.645   2.987  -4.859  1.00  0.00     0.009 C 
HETATM   32  C32 UNL     1       4.787   4.245  -5.720  1.00  0.00     0.012 C 
HETATM   33  C33 UNL     1       4.218   3.354  -3.436  1.00  0.00     0.012 C 
HETATM   34  C34 UNL     1       1.514   2.881  -5.611  1.00  0.00     0.241 C 
HETATM   35  C35 UNL     1       0.125   2.608  -6.266  1.00  0.00     0.182 C 
HETATM   36  C36 UNL     1       0.065   2.998  -7.772  1.00  0.00     0.009 C 
HETATM   37  C37 UNL     1       0.447   4.443  -8.100  1.00  0.00     0.012 C 
HETATM   38  C38 UNL     1      -1.288   2.643  -8.397  1.00  0.00     0.012 C 
HETATM   39  C39 UNL     1      -1.230   4.553  -5.375  1.00  0.00     0.153 C 
HETATM   40  C40 UNL     1      -1.707   2.336  -4.514  1.00  0.00     0.237 C 
HETATM   41  C41 UNL     1      -1.315   0.858  -4.340  1.00  0.00     0.225 C 
HETATM   42  C42 UNL     1      -1.658   0.052  -2.037  1.00  0.00     0.222 C 
HETATM   43  C43 UNL     1      -2.682  -0.337  -0.978  1.00  0.00     0.085 C 
HETATM   44  C44 UNL     1      -3.751   0.744  -0.769  1.00  0.00     0.016 C 
HETATM   45  C45 UNL     1      -3.179   2.092  -0.313  1.00  0.00     0.020 C 
HETATM   46  C46 UNL     1      -4.277   3.127  -0.062  1.00  0.00     0.124 C 
HETATM   47  C47 UNL     1      -6.342   2.169   0.886  1.00  0.00     0.291 C 
HETATM   48  C48 UNL     1      -3.318  -1.696  -1.312  1.00  0.00     0.094 C 
HETATM   49  C49 UNL     1      -3.097  -2.681  -0.183  1.00  0.00     0.150 C 
HETATM   50  C50 UNL     1      -4.088  -2.788   0.995  1.00  0.00     0.157 C 
HETATM   51  C51 UNL     1      -5.600  -2.917   0.689  1.00  0.00     0.007 C 
HETATM   52  C52 UNL     1      -5.883  -3.921  -0.433  1.00  0.00     0.012 C 
HETATM   53  C53 UNL     1      -6.356  -1.611   0.457  1.00  0.00     0.012 C 
HETATM   54  C54 UNL     1      -4.169  -1.802   3.279  1.00  0.00     0.220 C 
HETATM   55  C55 UNL     1      -3.409  -0.905   4.237  1.00  0.00     0.132 C 
HETATM   56  C56 UNL     1      -3.690   0.589   4.065  1.00  0.00     0.278 C 
HETATM   57  C57 UNL     1      -5.626   0.627   5.573  1.00  0.00     0.299 C 
HETATM   58  C58 UNL     1      -7.077   1.130   5.744  1.00  0.00     0.301 C 
HETATM   59  C59 UNL     1      -8.418   1.820   7.626  1.00  0.00     0.309 C 
HETATM   60  C60 UNL     1      -8.532  -0.470   6.926  1.00  0.00     0.273 C 
HETATM   61  C61 UNL     1      -7.821  -1.753   6.477  1.00  0.00     0.050 C 
HETATM   62  C62 UNL     1      -8.745  -2.974   6.462  1.00  0.00     0.137 C 
HETATM   63  C63 UNL     1     -10.358  -3.071   8.354  1.00  0.00     0.250 A 
HETATM   64  C64 UNL     1     -10.375  -3.678   9.689  1.00  0.00     0.080 A 
HETATM   65  C65 UNL     1      -9.214  -4.311   9.861  1.00  0.00     0.080 A 
HETATM   66  C66 UNL     1      -8.420  -4.130   8.640  1.00  0.00     0.250 A 
HETATM   67  O1  UNL     1       6.523   1.268  -2.496  1.00  0.00    -0.273 OA
HETATM   68  O2  UNL     1       6.394  -1.301   2.695  1.00  0.00    -0.273 OA
HETATM   69  O3  UNL     1       1.636  -0.021   2.083  1.00  0.00    -0.389 OA
HETATM   70  O4  UNL     1       8.682   2.108   1.928  1.00  0.00    -0.388 OA
HETATM   71  O5  UNL     1       3.922   0.361  -1.162  1.00  0.00    -0.388 OA
HETATM   72  O6  UNL     1       2.311   0.216  -4.711  1.00  0.00    -0.271 OA
HETATM   73  O7  UNL     1       1.625   3.547  -4.589  1.00  0.00    -0.271 OA
HETATM   74  O8  UNL     1      -2.678   2.786  -3.892  1.00  0.00    -0.272 OA
HETATM   75  O9  UNL     1      -0.471   0.153  -1.742  1.00  0.00    -0.273 OA
HETATM   76  O10 UNL     1      -6.873   1.907  -0.182  1.00  0.00    -0.254 OA
HETATM   77  O11 UNL     1      -2.013  -3.278  -0.119  1.00  0.00    -0.296 OA
HETATM   78  O12 UNL     1      -5.104  -2.503   3.650  1.00  0.00    -0.274 OA
HETATM   79  O13 UNL     1     -11.270  -2.403   7.902  1.00  0.00    -0.268 OA
HETATM   80  O14 UNL     1      -7.303  -4.587   8.489  1.00  0.00    -0.268 OA
HETATM   81  N1  UNL     1       7.847   0.814  -0.707  1.00  0.00    -0.345 N 
HETATM   82  N2  UNL     1       4.405  -0.207   2.479  1.00  0.00    -0.354 N 
HETATM   83  N3  UNL     1       4.515  -0.174  -4.195  1.00  0.00    -0.347 N 
HETATM   84  N4  UNL     1       2.578   2.276  -6.265  1.00  0.00    -0.346 N 
HETATM   85  N5  UNL     1      -0.988   3.117  -5.420  1.00  0.00    -0.341 N 
HETATM   86  N6  UNL     1      -2.148   0.251  -3.305  1.00  0.00    -0.352 N 
HETATM   87  N7  UNL     1      -5.121   2.748   1.055  1.00  0.00    -0.348 N 
HETATM   88  N8  UNL     1      -6.931   1.864   2.070  1.00  0.00    -0.254 NA
HETATM   89  N9  UNL     1      -3.692  -1.777   1.983  1.00  0.00    -0.349 N 
HETATM   90  N10 UNL     1      -5.067   1.064   4.278  1.00  0.00     0.085 N 
HETATM   91  N11 UNL     1      -7.650   0.714   7.040  1.00  0.00     0.086 N 
HETATM   92  N12 UNL     1      -9.169  -3.390   7.785  1.00  0.00    -0.281 N 
HETATM   93  HA2 UNL     1       0.669   0.028   2.166  1.00  0.00     0.210 HD
HETATM   94  HA3 UNL     1       3.936   0.520   1.944  1.00  0.00     0.163 HD
HETATM   95  HA4 UNL     1       2.289   1.565  -6.923  1.00  0.00     0.163 HD
HETATM   96  HA5 UNL     1      -3.132   0.478  -3.387  1.00  0.00     0.162 HD
HETATM   97  HA6 UNL     1      -4.955   3.174   1.953  1.00  0.00     0.163 HD
HETATM   98  HA7 UNL     1      -7.776   1.322   1.937  1.00  0.00     0.128 HD
HETATM   99  HA8 UNL     1      -6.308   1.426   2.748  1.00  0.00     0.128 HD
HETATM  100  HA9 UNL     1      -2.730  -1.463   1.909  1.00  0.00     0.163 HD
HETATM  101  HB0 UNL     1      -5.040   2.087   4.297  1.00  0.00     0.315 HD
ENDROOT
TORSDOF 43
