REMARK  0 active torsions:
REMARK  status: ('A' for Active; 'I' for Inactive)
REMARK       I    between atoms: C2_2  and  C3_3 
REMARK       I    between atoms: C3_3  and  C5_5 
REMARK       I    between atoms: C5_5  and  C6_6 
REMARK       I    between atoms: C5_5  and  N15_92 
REMARK       I    between atoms: C6_6  and  N1_76 
REMARK       I    between atoms: C7_7  and  C8_8 
REMARK       I    between atoms: C7_7  and  C11_11 
REMARK       I    between atoms: C7_7  and  N1_76 
REMARK       I    between atoms: C11_11  and  N2_77 
REMARK       I    between atoms: C12_12  and  C13_13 
REMARK       I    between atoms: C12_12  and  C16_16 
REMARK       I    between atoms: C12_12  and  N2_77 
REMARK       I    between atoms: C16_16  and  N3_78 
REMARK       I    between atoms: C17_17  and  C18_18 
REMARK       I    between atoms: C17_17  and  C22_22 
REMARK       I    between atoms: C17_17  and  N3_78 
REMARK       I    between atoms: C18_18  and  C20_20 
REMARK       I    between atoms: C22_22  and  N4_79 
REMARK       I    between atoms: C23_23  and  C24_24 
REMARK       I    between atoms: C23_23  and  C28_28 
REMARK       I    between atoms: C23_23  and  N4_79 
REMARK       I    between atoms: C24_24  and  C25_25 
REMARK       I    between atoms: C25_25  and  C26_26 
REMARK       I    between atoms: C26_26  and  N5_80 
REMARK       I    between atoms: C27_27  and  N6_82 
REMARK       I    between atoms: C27_27  and  N7_83 
REMARK       I    between atoms: C28_28  and  N8_84 
REMARK       I    between atoms: C29_29  and  C30_30 
REMARK       I    between atoms: C29_29  and  C33_33 
REMARK       I    between atoms: C29_29  and  N8_84 
REMARK       I    between atoms: C33_33  and  N9_85 
REMARK       I    between atoms: C34_34  and  C36_36 
REMARK       I    between atoms: C34_34  and  N9_85 
REMARK       I    between atoms: C36_36  and  N10_86 
REMARK       I    between atoms: C37_37  and  C38_38 
REMARK       I    between atoms: C37_37  and  C42_42 
REMARK       I    between atoms: C37_37  and  N10_86 
REMARK       I    between atoms: C38_38  and  C39_39 
REMARK       I    between atoms: C39_39  and  C40_40 
REMARK       I    between atoms: C40_40  and  N11_87 
REMARK       I    between atoms: C41_41  and  N12_89 
REMARK       I    between atoms: C41_41  and  N13_90 
REMARK       I    between atoms: C42_42  and  N14_91 
REMARK       I    between atoms: C43_43  and  C44_44 
REMARK       I    between atoms: C43_43  and  N15_92 
REMARK       I    between atoms: C44_44  and  C45_45 
REMARK       I    between atoms: C44_44  and  N19_97 
REMARK       I    between atoms: C45_45  and  C46_46 
REMARK       I    between atoms: C46_46  and  C47_47 
REMARK       I    between atoms: C47_47  and  N16_93 
REMARK       I    between atoms: C48_48  and  N17_95 
REMARK       I    between atoms: C48_48  and  N18_96 
REMARK       I    between atoms: C49_49  and  C50_50 
REMARK       I    between atoms: C49_49  and  N19_97 
REMARK       I    between atoms: C50_50  and  N20_98 
REMARK       I    between atoms: C52_52  and  C53_53 
REMARK       I    between atoms: C52_52  and  N20_98 
REMARK       I    between atoms: C53_53  and  C54_54 
REMARK       I    between atoms: C53_53  and  N24_103 
REMARK       I    between atoms: C54_54  and  C55_55 
REMARK       I    between atoms: C55_55  and  C56_56 
REMARK       I    between atoms: C56_56  and  N21_99 
REMARK       I    between atoms: C57_57  and  N22_101 
REMARK       I    between atoms: C57_57  and  N23_102 
REMARK       I    between atoms: C58_58  and  C59_59 
REMARK       I    between atoms: C58_58  and  N24_103 
REMARK       I    between atoms: C59_59  and  C60_60 
REMARK       I    between atoms: C59_59  and  N28_108 
REMARK       I    between atoms: C60_60  and  C61_61 
REMARK       I    between atoms: C61_61  and  C62_62 
REMARK       I    between atoms: C62_62  and  N25_104 
REMARK       I    between atoms: C63_63  and  N25_104 
REMARK       I    between atoms: C63_63  and  N26_106 
ROOT
HETATM    1  C1  UNL     1       3.989  -0.434   3.153  1.00  0.00     0.005 C 
HETATM    2  C2  UNL     1       3.666   1.054   3.168  1.00  0.00     0.002 C 
HETATM    3  C3  UNL     1       4.299   1.846   2.004  1.00  0.00     0.013 C 
HETATM    4  C4  UNL     1       4.097   3.348   2.250  1.00  0.00     0.012 C 
HETATM    5  C5  UNL     1       3.823   1.393   0.603  1.00  0.00     0.180 C 
HETATM    6  C6  UNL     1       2.365   1.807   0.301  1.00  0.00     0.241 C 
HETATM    7  C7  UNL     1      -0.017   1.123   0.568  1.00  0.00     0.180 C 
HETATM    8  C8  UNL     1      -0.531   1.235  -0.889  1.00  0.00     0.009 C 
HETATM    9  C9  UNL     1      -2.014   1.614  -0.934  1.00  0.00     0.012 C 
HETATM   10  C10 UNL     1      -0.292  -0.018  -1.738  1.00  0.00     0.012 C 
HETATM   11  C11 UNL     1      -0.743   0.025   1.377  1.00  0.00     0.241 C 
HETATM   12  C12 UNL     1      -0.774  -2.427   1.878  1.00  0.00     0.180 C 
HETATM   13  C13 UNL     1      -1.013  -2.360   3.405  1.00  0.00     0.009 C 
HETATM   14  C14 UNL     1       0.264  -1.954   4.152  1.00  0.00     0.012 C 
HETATM   15  C15 UNL     1      -1.495  -3.715   3.941  1.00  0.00     0.012 C 
HETATM   16  C16 UNL     1      -2.011  -2.812   1.035  1.00  0.00     0.241 C 
HETATM   17  C17 UNL     1      -4.386  -2.300   0.533  1.00  0.00     0.180 C 
HETATM   18  C18 UNL     1      -5.131  -3.605   0.924  1.00  0.00     0.013 C 
HETATM   19  C19 UNL     1      -5.689  -3.547   2.353  1.00  0.00     0.012 C 
HETATM   20  C20 UNL     1      -6.231  -3.957  -0.097  1.00  0.00     0.002 C 
HETATM   21  C21 UNL     1      -6.782  -5.368   0.066  1.00  0.00     0.005 C 
HETATM   22  C22 UNL     1      -5.254  -1.033   0.703  1.00  0.00     0.241 C 
HETATM   23  C23 UNL     1      -6.805   0.549  -0.421  1.00  0.00     0.176 C 
HETATM   24  C24 UNL     1      -5.901   1.731  -0.786  1.00  0.00     0.036 C 
HETATM   25  C25 UNL     1      -6.500   3.128  -0.578  1.00  0.00     0.022 C 
HETATM   26  C26 UNL     1      -7.016   3.382   0.839  1.00  0.00     0.121 C 
HETATM   27  C27 UNL     1      -8.975   3.000   2.077  1.00  0.00     0.121 C 
HETATM   28  C28 UNL     1      -7.978   0.347  -1.405  1.00  0.00     0.241 C 
HETATM   29  C29 UNL     1      -9.813  -1.285  -1.941  1.00  0.00     0.180 C 
HETATM   30  C30 UNL     1      -9.527  -1.962  -3.304  1.00  0.00     0.009 C 
HETATM   31  C31 UNL     1      -9.026  -0.972  -4.357  1.00  0.00     0.012 C 
HETATM   32  C32 UNL     1      -8.545  -3.133  -3.186  1.00  0.00     0.012 C 
HETATM   33  C33 UNL     1     -10.636  -2.234  -1.030  1.00  0.00     0.241 C 
HETATM   34  C34 UNL     1     -10.988  -3.003   1.321  1.00  0.00     0.172 C 
HETATM   35  C35 UNL     1     -10.037  -3.174   2.499  1.00  0.00     0.042 C 
HETATM   36  C36 UNL     1     -12.375  -2.508   1.797  1.00  0.00     0.240 C 
HETATM   37  C37 UNL     1     -14.501  -1.462   0.999  1.00  0.00     0.176 C 
HETATM   38  C38 UNL     1     -14.452  -0.143   1.792  1.00  0.00     0.036 C 
HETATM   39  C39 UNL     1     -13.253   0.774   1.520  1.00  0.00     0.022 C 
HETATM   40  C40 UNL     1     -13.091   1.208   0.066  1.00  0.00     0.121 C 
HETATM   41  C41 UNL     1     -11.443   2.300  -1.202  1.00  0.00     0.121 C 
HETATM   42  C42 UNL     1     -15.233  -1.315  -0.354  1.00  0.00     0.238 C 
HETATM   43  C43 UNL     1       4.763   1.279  -1.666  1.00  0.00     0.241 C 
HETATM   44  C44 UNL     1       5.579   2.050  -2.729  1.00  0.00     0.176 C 
HETATM   45  C45 UNL     1       5.806   1.204  -3.993  1.00  0.00     0.036 C 
HETATM   46  C46 UNL     1       6.729   0.003  -3.757  1.00  0.00     0.022 C 
HETATM   47  C47 UNL     1       6.274  -1.234  -4.532  1.00  0.00     0.121 C 
HETATM   48  C48 UNL     1       6.867  -3.516  -4.562  1.00  0.00     0.121 C 
HETATM   49  C49 UNL     1       7.642   3.450  -2.697  1.00  0.00     0.240 C 
HETATM   50  C50 UNL     1       8.900   3.790  -1.868  1.00  0.00     0.172 C 
HETATM   51  C51 UNL     1      10.047   4.207  -2.784  1.00  0.00     0.042 C 
HETATM   52  C52 UNL     1      10.063   2.905   0.126  1.00  0.00     0.241 C 
HETATM   53  C53 UNL     1      10.516   1.643   0.884  1.00  0.00     0.176 C 
HETATM   54  C54 UNL     1       9.542   1.301   2.023  1.00  0.00     0.036 C 
HETATM   55  C55 UNL     1       8.175   0.791   1.565  1.00  0.00     0.022 C 
HETATM   56  C56 UNL     1       8.226  -0.606   0.949  1.00  0.00     0.121 C 
HETATM   57  C57 UNL     1       6.837  -1.955  -0.366  1.00  0.00     0.121 C 
HETATM   58  C58 UNL     1      12.735   0.960   1.759  1.00  0.00     0.251 C 
HETATM   59  C59 UNL     1      14.075   1.477   2.336  1.00  0.00     0.308 C 
HETATM   60  C60 UNL     1      14.879   2.208   1.252  1.00  0.00     0.047 C 
HETATM   61  C61 UNL     1      16.192   2.800   1.780  1.00  0.00     0.022 C 
HETATM   62  C62 UNL     1      16.919   3.637   0.727  1.00  0.00     0.122 C 
HETATM   63  C63 UNL     1      18.409   2.206  -0.434  1.00  0.00     0.143 C 
HETATM   64  O1  UNL     1       2.077   2.898  -0.188  1.00  0.00    -0.271 OA
HETATM   65  O2  UNL     1      -1.799   0.228   1.969  1.00  0.00    -0.271 OA
HETATM   66  O3  UNL     1      -1.931  -3.618   0.109  1.00  0.00    -0.271 OA
HETATM   67  O4  UNL     1      -5.276  -0.383   1.745  1.00  0.00    -0.271 OA
HETATM   68  O5  UNL     1      -8.376   1.193  -2.198  1.00  0.00    -0.271 OA
HETATM   69  O6  UNL     1     -11.529  -2.972  -1.443  1.00  0.00    -0.271 OA
HETATM   70  O7  UNL     1     -12.762  -2.595   2.959  1.00  0.00    -0.271 OA
HETATM   71  O8  UNL     1     -16.053  -0.441  -0.613  1.00  0.00    -0.271 OA
HETATM   72  O9  UNL     1       4.197   0.207  -1.880  1.00  0.00    -0.271 OA
HETATM   73  O10 UNL     1       7.338   4.037  -3.731  1.00  0.00    -0.271 OA
HETATM   74  O11 UNL     1      10.349   4.034   0.524  1.00  0.00    -0.271 OA
HETATM   75  O12 UNL     1      12.483  -0.237   1.627  1.00  0.00    -0.271 OA
HETATM   76  N1  UNL     1       1.424   0.863   0.647  1.00  0.00    -0.346 N 
HETATM   77  N2  UNL     1      -0.168  -1.230   1.289  1.00  0.00    -0.346 N 
HETATM   78  N3  UNL     1      -3.167  -2.125   1.317  1.00  0.00    -0.346 N 
HETATM   79  N4  UNL     1      -6.029  -0.705  -0.392  1.00  0.00    -0.346 N 
HETATM   80  N5  UNL     1      -8.430   3.006   0.917  1.00  0.00    -0.372 N 
ATOM     81  H5  UNL     1      -8.960   2.759   0.081  1.00  0.00     0.161 HD
HETATM   82  N6  UNL     1      -8.431   3.260   3.288  1.00  0.00    -0.279 NA
HETATM   83  N7  UNL     1     -10.289   2.737   2.233  1.00  0.00    -0.279 NA
HETATM   84  N8  UNL     1      -8.605  -0.869  -1.232  1.00  0.00    -0.346 N 
HETATM   85  N9  UNL     1     -10.375  -2.119   0.321  1.00  0.00    -0.346 N 
HETATM   86  N10 UNL     1     -13.189  -2.063   0.783  1.00  0.00    -0.346 N 
HETATM   87  N11 UNL     1     -11.836   1.955  -0.032  1.00  0.00    -0.372 N 
ATOM     88  H11 UNL     1     -11.295   2.192   0.799  1.00  0.00     0.161 HD
HETATM   89  N12 UNL     1     -12.031   2.084  -2.400  1.00  0.00    -0.279 NA
HETATM   90  N13 UNL     1     -10.291   2.981  -1.376  1.00  0.00    -0.279 NA
HETATM   91  N14 UNL     1     -14.993  -2.316  -1.258  1.00  0.00    -0.368 N 
HETATM   92  N15 UNL     1       4.671   1.941  -0.452  1.00  0.00    -0.346 N 
HETATM   93  N16 UNL     1       6.961  -2.391  -3.964  1.00  0.00    -0.372 N 
ATOM     94  H16 UNL     1       7.506  -2.302  -3.106  1.00  0.00     0.161 HD
HETATM   95  N17 UNL     1       7.517  -4.588  -4.061  1.00  0.00    -0.279 NA
HETATM   96  N18 UNL     1       6.191  -3.853  -5.680  1.00  0.00    -0.279 NA
HETATM   97  N19 UNL     1       6.819   2.515  -2.114  1.00  0.00    -0.346 N 
HETATM   98  N20 UNL     1       9.298   2.676  -1.000  1.00  0.00    -0.346 N 
HETATM   99  N21 UNL     1       6.971  -0.831   0.237  1.00  0.00    -0.372 N 
ATOM    100  H21 UNL     1       6.234  -0.126   0.220  1.00  0.00     0.161 HD
HETATM  101  N22 UNL     1       7.677  -3.014  -0.410  1.00  0.00    -0.279 NA
HETATM  102  N23 UNL     1       5.742  -2.223  -1.112  1.00  0.00    -0.279 NA
HETATM  103  N24 UNL     1      11.838   1.944   1.424  1.00  0.00    -0.346 N 
HETATM  104  N25 UNL     1      17.286   2.819  -0.425  1.00  0.00    -0.367 N 
ATOM    105  H25 UNL     1      16.651   2.737  -1.219  1.00  0.00     0.162 HD
HETATM  106  N26 UNL     1      18.756   1.499  -1.532  1.00  0.00    -0.274 NA
HETATM  107  N27 UNL     1      19.371   2.158   0.509  1.00  0.00    -0.376 N 
HETATM  108  N28 UNL     1      14.840   0.340   2.894  1.00  0.00     0.092 N 
HETATM  109  H88 UNL     1       1.724   0.095   1.235  1.00  0.00     0.163 HD
HETATM  110  H89 UNL     1       0.425  -1.394   0.482  1.00  0.00     0.163 HD
HETATM  111  H90 UNL     1      -3.089  -1.263   1.866  1.00  0.00     0.163 HD
HETATM  112  H91 UNL     1      -5.783  -1.109  -1.289  1.00  0.00     0.163 HD
HETATM  113  H92 UNL     1      -7.532   3.722   3.260  1.00  0.00     0.126 HD
HETATM  114  H93 UNL     1      -9.076   3.757   3.892  1.00  0.00     0.126 HD
HETATM  115  H94 UNL     1     -10.492   2.077   2.971  1.00  0.00     0.126 HD
HETATM  116  H95 UNL     1     -10.761   2.450   1.366  1.00  0.00     0.126 HD
HETATM  117  H96 UNL     1      -8.186  -1.516  -0.573  1.00  0.00     0.163 HD
HETATM  118  H97 UNL     1     -10.029  -1.215   0.633  1.00  0.00     0.163 HD
HETATM  119  H98 UNL     1     -12.832  -2.106  -0.168  1.00  0.00     0.163 HD
HETATM  120  H99 UNL     1     -13.030   1.929  -2.352  1.00  0.00     0.126 HD
HETATM  121  HA0 UNL     1     -11.812   2.830  -3.052  1.00  0.00     0.126 HD
HETATM  122  HA1 UNL     1      -9.660   2.495  -2.019  1.00  0.00     0.126 HD
HETATM  123  HA2 UNL     1      -9.766   3.079  -0.500  1.00  0.00     0.126 HD
HETATM  124  HA3 UNL     1     -15.534  -2.318  -2.112  1.00  0.00     0.159 HD
HETATM  125  HA4 UNL     1     -14.495  -3.160  -1.001  1.00  0.00     0.159 HD
HETATM  126  HA5 UNL     1       4.741   2.951  -0.507  1.00  0.00     0.163 HD
HETATM  127  HA6 UNL     1       8.020  -5.095  -4.780  1.00  0.00     0.126 HD
HETATM  128  HA7 UNL     1       8.161  -4.281  -3.336  1.00  0.00     0.126 HD
HETATM  129  HA8 UNL     1       5.496  -3.176  -5.968  1.00  0.00     0.126 HD
HETATM  130  HA9 UNL     1       5.788  -4.782  -5.623  1.00  0.00     0.126 HD
HETATM  131  HB0 UNL     1       7.115   2.075  -1.248  1.00  0.00     0.163 HD
HETATM  132  HB1 UNL     1       9.322   1.751  -1.416  1.00  0.00     0.163 HD
HETATM  133  HB2 UNL     1       8.357  -3.052   0.338  1.00  0.00     0.126 HD
HETATM  134  HB3 UNL     1       7.170  -3.887  -0.497  1.00  0.00     0.126 HD
HETATM  135  HB4 UNL     1       6.024  -2.527  -2.049  1.00  0.00     0.126 HD
HETATM  136  HB5 UNL     1       5.170  -1.385  -1.232  1.00  0.00     0.126 HD
HETATM  137  HB6 UNL     1      12.048   2.922   1.604  1.00  0.00     0.163 HD
HETATM  138  HB7 UNL     1      19.082   0.562  -1.344  1.00  0.00     0.127 HD
HETATM  139  HB8 UNL     1      17.977   1.481  -2.182  1.00  0.00     0.127 HD
HETATM  140  HB9 UNL     1      19.109   2.424   1.448  1.00  0.00     0.158 HD
HETATM  141  HC0 UNL     1      20.043   1.408   0.459  1.00  0.00     0.158 HD
HETATM  142  HC1 UNL     1      14.997  -0.322   2.129  1.00  0.00     0.313 HD
HETATM  143  HC2 UNL     1      14.216  -0.171   3.523  1.00  0.00     0.313 HD
ENDROOT
TORSDOF 51
