REMARK  30 active torsions:
REMARK  status: ('A' for Active; 'I' for Inactive)
REMARK    1  A    between atoms: C4_4  and  N4_43 
REMARK    2  A    between atoms: C8_8  and  N1_40 
REMARK    3  A    between atoms: C9_9  and  C10_10 
REMARK       I    between atoms: C9_9  and  N1_40 
REMARK    4  A    between atoms: C10_10  and  C11_11 
REMARK    5  A    between atoms: C10_10  and  N3_42 
REMARK    6  A    between atoms: C11_11  and  C12_12 
REMARK    7  A    between atoms: C12_12  and  C13_13 
REMARK    8  A    between atoms: C13_13  and  N2_41 
REMARK    9  A    between atoms: C14_14  and  C15_15 
REMARK       I    between atoms: C14_14  and  N4_43 
REMARK   10  A    between atoms: C17_17  and  C25_25 
REMARK   11  A    between atoms: C18_18  and  O4_57 
REMARK   12  A    between atoms: C20_20  and  O3_56 
REMARK   13  A    between atoms: C21_21  and  C22_22 
REMARK   14  A    between atoms: C21_21  and  O3_56 
REMARK   15  A    between atoms: C22_22  and  N5_44 
REMARK   16  A    between atoms: C23_23  and  C24_24 
REMARK   17  A    between atoms: C23_23  and  O4_57 
REMARK   18  A    between atoms: C24_24  and  N6_45 
REMARK       I    between atoms: C25_25  and  N7_46 
REMARK   19  A    between atoms: C26_26  and  N7_46 
REMARK   20  A    between atoms: C27_27  and  S1_60 
REMARK   21  A    between atoms: C28_28  and  N8_47 
REMARK   22  A    between atoms: C32_32  and  C33_33 
REMARK       I    between atoms: C32_32  and  N8_47 
REMARK   23  A    between atoms: C33_33  and  C34_34 
REMARK   24  A    between atoms: C33_33  and  N12_52 
REMARK   25  A    between atoms: C34_34  and  C35_35 
REMARK   26  A    between atoms: C35_35  and  C36_36 
REMARK   27  A    between atoms: C36_36  and  N9_48 
REMARK       I    between atoms: C37_37  and  N10_50 
REMARK       I    between atoms: C37_37  and  N11_51 
REMARK   28  A    between atoms: C38_38  and  C39_39 
REMARK   29  A    between atoms: C38_38  and  S1_60 
REMARK   30  A    between atoms: C39_39  and  N13_53 
ROOT
HETATM    1  C1  UNL     1      -6.389   0.701   0.626  1.00  0.00     0.018 C 
HETATM    2  C2  UNL     1      -6.548   0.701  -0.565  1.00  0.00    -0.073 C 
HETATM    3  C3  UNL     1      -6.711   0.684  -1.997  1.00  0.00     0.070 A 
HETATM    4  C4  UNL     1      -5.758  -0.016  -2.788  1.00  0.00     0.056 A 
HETATM    5  C5  UNL     1      -5.994  -0.168  -4.159  1.00  0.00     0.031 A 
HETATM    6  C6  UNL     1      -7.152   0.339  -4.746  1.00  0.00     0.005 A 
HETATM    7  C7  UNL     1      -8.078   1.034  -3.976  1.00  0.00     0.031 A 
HETATM    8  C8  UNL     1      -7.854   1.252  -2.609  1.00  0.00     0.056 A 
ENDROOT
BRANCH   4   9
HETATM    9  N4  UNL     1      -4.605  -0.565  -2.165  1.00  0.00    -0.321 N 
HETATM   10  C14 UNL     1      -3.535  -1.213  -2.752  1.00  0.00     0.259 C 
HETATM   11  O2  UNL     1      -3.383  -1.425  -3.950  1.00  0.00    -0.267 OA
HETATM   12  H41 UNL     1      -4.541  -0.439  -1.159  1.00  0.00     0.169 HD
BRANCH  10  13
HETATM   13  C15 UNL     1      -2.450  -1.653  -1.820  1.00  0.00     0.066 A 
HETATM   14  C16 UNL     1      -1.147  -1.730  -2.337  1.00  0.00     0.040 A 
HETATM   15  C17 UNL     1      -0.069  -2.113  -1.523  1.00  0.00     0.066 A 
HETATM   16  C18 UNL     1      -0.307  -2.474  -0.189  1.00  0.00     0.087 A 
HETATM   17  C19 UNL     1      -1.598  -2.379   0.339  1.00  0.00     0.075 A 
HETATM   18  C20 UNL     1      -2.671  -2.000  -0.478  1.00  0.00     0.087 A 
BRANCH  15  19
HETATM   19  C25 UNL     1       1.289  -2.118  -2.140  1.00  0.00     0.259 C 
HETATM   20  N7  UNL     1       2.314  -1.723  -1.306  1.00  0.00    -0.322 N 
HETATM   21  H46 UNL     1       2.058  -1.453  -0.359  1.00  0.00     0.169 HD
HETATM   22  O5  UNL     1       1.386  -2.429  -3.321  1.00  0.00    -0.267 OA
BRANCH  20  23
HETATM   23  C26 UNL     1       3.685  -1.551  -1.614  1.00  0.00     0.054 A 
HETATM   24  C27 UNL     1       4.539  -1.021  -0.615  1.00  0.00     0.054 A 
HETATM   25  C28 UNL     1       5.906  -0.779  -0.895  1.00  0.00     0.053 A 
HETATM   26  C29 UNL     1       6.414  -1.111  -2.150  1.00  0.00     0.031 A 
HETATM   27  C30 UNL     1       5.578  -1.657  -3.124  1.00  0.00     0.005 A 
HETATM   28  C31 UNL     1       4.224  -1.871  -2.861  1.00  0.00     0.031 A 
BRANCH  24  29
HETATM   29  S1  UNL     1       3.870  -0.606   1.022  1.00  0.00    -0.124 SA
BRANCH  29  30
HETATM   30  C38 UNL     1       4.012  -2.245   1.829  1.00  0.00     0.109 C 
BRANCH  30  31
HETATM   31  C39 UNL     1       5.402  -2.539   2.409  1.00  0.00     0.277 C 
BRANCH  31  32
HETATM   32  N13 UNL     1       5.786  -1.621   3.481  1.00  0.00     0.079 N 
HETATM   33  H54 UNL     1       6.738  -1.831   3.780  1.00  0.00     0.312 HD
HETATM   34  H55 UNL     1       5.825  -0.663   3.120  1.00  0.00     0.312 HD
ENDBRANCH  31  32
ENDBRANCH  30  31
ENDBRANCH  29  30
ENDBRANCH  24  29
BRANCH  25  35
HETATM   35  N8  UNL     1       6.701  -0.213   0.120  1.00  0.00    -0.324 N 
HETATM   36  C32 UNL     1       8.034   0.147   0.107  1.00  0.00     0.255 C 
HETATM   37  O6  UNL     1       8.811   0.036  -0.834  1.00  0.00    -0.271 OA
HETATM   38  H47 UNL     1       6.222   0.021   0.990  1.00  0.00     0.169 HD
BRANCH  36  39
HETATM   39  C33 UNL     1       8.485   0.663   1.499  1.00  0.00     0.309 C 
BRANCH  39  40
HETATM   40  C34 UNL     1       9.625   1.686   1.408  1.00  0.00     0.047 C 
BRANCH  40  41
HETATM   41  C35 UNL     1       9.245   3.002   0.713  1.00  0.00     0.022 C 
BRANCH  41  42
HETATM   42  C36 UNL     1      10.441   3.946   0.581  1.00  0.00     0.121 C 
BRANCH  42  43
HETATM   43  N9  UNL     1      10.835   4.397   1.913  1.00  0.00    -0.372 N 
HETATM   44  C37 UNL     1      11.804   5.227   2.005  1.00  0.00     0.121 C 
HETATM   45  N10 UNL     1      12.569   5.781   1.039  1.00  0.00    -0.279 NA
HETATM   46  N11 UNL     1      12.187   5.685   3.215  1.00  0.00    -0.279 NA
HETATM   47  H48 UNL     1      12.508   5.317   0.142  1.00  0.00     0.126 HD
HETATM   48  H49 UNL     1      13.536   5.876   1.327  1.00  0.00     0.126 HD
HETATM   49  H50 UNL     1      12.301   6.691   3.223  1.00  0.00     0.126 HD
HETATM   50  H51 UNL     1      11.509   5.401   3.917  1.00  0.00     0.126 HD
ATOM     51  H9  UNL     1      10.352   4.060   2.746  1.00  0.00     0.161 HD
ENDBRANCH  42  43
ENDBRANCH  41  42
ENDBRANCH  40  41
ENDBRANCH  39  40
BRANCH  39  52
HETATM   52  N12 UNL     1       7.319   1.160   2.282  1.00  0.00     0.092 N 
HETATM   53  H52 UNL     1       7.674   1.493   3.183  1.00  0.00     0.313 HD
HETATM   54  H53 UNL     1       6.969   2.009   1.828  1.00  0.00     0.313 HD
ENDBRANCH  39  52
ENDBRANCH  36  39
ENDBRANCH  25  35
ENDBRANCH  20  23
ENDBRANCH  15  19
BRANCH  16  55
HETATM   55  O4  UNL     1       0.743  -2.857   0.606  1.00  0.00    -0.348 OA
BRANCH  55  56
HETATM   56  C23 UNL     1       0.602  -4.172   1.171  1.00  0.00     0.205 C 
BRANCH  56  57
HETATM   57  C24 UNL     1       0.904  -5.286   0.155  1.00  0.00     0.293 C 
BRANCH  57  58
HETATM   58  N6  UNL     1       2.271  -5.249  -0.362  1.00  0.00     0.080 N 
HETATM   59  H44 UNL     1       2.419  -4.381  -0.882  1.00  0.00     0.312 HD
HETATM   60  H45 UNL     1       2.942  -5.240   0.403  1.00  0.00     0.312 HD
ENDBRANCH  57  58
ENDBRANCH  56  57
ENDBRANCH  55  56
ENDBRANCH  16  55
BRANCH  18  61
HETATM   61  O3  UNL     1      -3.936  -1.911   0.044  1.00  0.00    -0.348 OA
BRANCH  61  62
HETATM   62  C21 UNL     1      -4.382  -3.143   0.639  1.00  0.00     0.205 C 
BRANCH  62  63
HETATM   63  C22 UNL     1      -5.908  -3.229   0.510  1.00  0.00     0.293 C 
BRANCH  63  64
HETATM   64  N5  UNL     1      -6.323  -3.419  -0.880  1.00  0.00     0.080 N 
HETATM   65  H42 UNL     1      -5.936  -2.666  -1.456  1.00  0.00     0.312 HD
HETATM   66  H43 UNL     1      -7.336  -3.325  -0.951  1.00  0.00     0.312 HD
ENDBRANCH  63  64
ENDBRANCH  62  63
ENDBRANCH  61  62
ENDBRANCH  18  61
ENDBRANCH  10  13
ENDBRANCH   4   9
BRANCH   8  67
HETATM   67  N1  UNL     1      -8.857   2.006  -1.948  1.00  0.00    -0.324 N 
HETATM   68  C9  UNL     1      -8.636   2.947  -0.953  1.00  0.00     0.255 C 
HETATM   69  O1  UNL     1      -7.540   3.350  -0.571  1.00  0.00    -0.271 OA
HETATM   70  H36 UNL     1      -9.724   2.125  -2.457  1.00  0.00     0.169 HD
BRANCH  68  71
HETATM   71  C10 UNL     1      -9.950   3.545  -0.390  1.00  0.00     0.309 C 
BRANCH  71  72
HETATM   72  C11 UNL     1     -10.881   2.494   0.232  1.00  0.00     0.047 C 
BRANCH  72  73
HETATM   73  C12 UNL     1     -10.284   1.494   1.234  1.00  0.00     0.032 C 
BRANCH  73  74
HETATM   74  C13 UNL     1      -9.550   2.057   2.450  1.00  0.00     0.267 C 
BRANCH  74  75
HETATM   75  N2  UNL     1     -10.327   3.046   3.183  1.00  0.00     0.078 N 
HETATM   76  H37 UNL     1     -10.482   3.861   2.579  1.00  0.00     0.312 HD
HETATM   77  H38 UNL     1     -11.256   2.679   3.385  1.00  0.00     0.312 HD
ENDBRANCH  74  75
ENDBRANCH  73  74
ENDBRANCH  72  73
ENDBRANCH  71  72
BRANCH  71  78
HETATM   78  N3  UNL     1      -9.655   4.645   0.554  1.00  0.00     0.092 N 
HETATM   79  H39 UNL     1      -8.890   4.333   1.163  1.00  0.00     0.313 HD
HETATM   80  H40 UNL     1      -9.200   5.393   0.022  1.00  0.00     0.313 HD
ENDBRANCH  71  78
ENDBRANCH  68  71
ENDBRANCH   8  67
TORSDOF 30
