REMARK  0 active torsions:
REMARK  status: ('A' for Active; 'I' for Inactive)
REMARK       I    between atoms: C2_2  and  C3_3 
REMARK       I    between atoms: C3_3  and  C5_5 
REMARK       I    between atoms: C5_5  and  C6_6 
REMARK       I    between atoms: C5_5  and  N3_82 
REMARK       I    between atoms: C6_6  and  C7_7 
REMARK       I    between atoms: C7_7  and  C8_8 
REMARK       I    between atoms: C8_8  and  C9_9 
REMARK       I    between atoms: C8_8  and  C11_11 
REMARK       I    between atoms: C9_9  and  O2_63 
REMARK       I    between atoms: C11_11  and  N1_80 
REMARK       I    between atoms: C12_12  and  C13_13 
REMARK       I    between atoms: C12_12  and  N1_80 
REMARK       I    between atoms: C13_13  and  C14_14 
REMARK       I    between atoms: C14_14  and  C15_15 
REMARK       I    between atoms: C15_15  and  C16_16 
REMARK       I    between atoms: C15_15  and  C17_17 
REMARK       I    between atoms: C16_16  and  O5_66 
REMARK       I    between atoms: C17_17  and  N2_81 
REMARK       I    between atoms: C18_18  and  C19_19 
REMARK       I    between atoms: C18_18  and  C20_20 
REMARK       I    between atoms: C18_18  and  N2_81 
REMARK       I    between atoms: C19_19  and  O7_68 
REMARK       I    between atoms: C20_20  and  O9_70 
REMARK       I    between atoms: C21_21  and  C22_22 
REMARK       I    between atoms: C21_21  and  N3_82 
REMARK       I    between atoms: C22_22  and  C23_23 
REMARK       I    between atoms: C22_22  and  C27_27 
REMARK       I    between atoms: C23_23  and  C24_24 
REMARK       I    between atoms: C24_24  and  C25_25 
REMARK       I    between atoms: C25_25  and  N4_83 
REMARK       I    between atoms: C26_26  and  N5_85 
REMARK       I    between atoms: C26_26  and  N6_86 
REMARK       I    between atoms: C27_27  and  C28_28 
REMARK       I    between atoms: C28_28  and  C29_29 
REMARK       I    between atoms: C29_29  and  C30_30 
REMARK       I    between atoms: C29_29  and  N7_87 
REMARK       I    between atoms: C30_30  and  C32_32 
REMARK       I    between atoms: C34_34  and  C35_35 
REMARK       I    between atoms: C34_34  and  N7_87 
REMARK       I    between atoms: C35_35  and  C36_36 
REMARK       I    between atoms: C35_35  and  N8_88 
REMARK       I    between atoms: C36_36  and  C37_37 
REMARK       I    between atoms: C36_36  and  O13_74 
REMARK       I    between atoms: C40_40  and  C41_41 
REMARK       I    between atoms: C40_40  and  N8_88 
REMARK       I    between atoms: C41_41  and  C42_42 
REMARK       I    between atoms: C41_41  and  N10_90 
REMARK       I    between atoms: C42_42  and  C43_43 
REMARK       I    between atoms: C42_42  and  N9_89 
REMARK       I    between atoms: C49_49  and  O16_77 
REMARK       I    between atoms: C49_49  and  N9_89 
REMARK       I    between atoms: C50_50  and  O16_77 
REMARK       I    between atoms: C54_54  and  O18_79 
REMARK       I    between atoms: C54_54  and  N10_90 
REMARK       I    between atoms: C55_55  and  C56_56 
REMARK       I    between atoms: C55_55  and  O18_79 
ROOT
HETATM    1  C1  UNL     1       1.313   1.930  -3.141  1.00  0.00     0.005 C 
HETATM    2  C2  UNL     1       2.546   2.166  -2.281  1.00  0.00     0.002 C 
HETATM    3  C3  UNL     1       2.241   2.365  -0.780  1.00  0.00     0.011 C 
HETATM    4  C4  UNL     1       3.521   2.769  -0.040  1.00  0.00     0.012 C 
HETATM    5  C5  UNL     1       1.407   1.224  -0.143  1.00  0.00     0.158 C 
HETATM    6  C6  UNL     1       1.655  -0.265  -0.469  1.00  0.00     0.150 C 
HETATM    7  C7  UNL     1       3.055  -0.788  -0.672  1.00  0.00     0.097 C 
HETATM    8  C8  UNL     1       3.359  -1.961   0.282  1.00  0.00     0.113 C 
HETATM    9  C9  UNL     1       2.824  -3.343  -0.156  1.00  0.00     0.127 C 
HETATM   10  C10 UNL     1       2.921  -3.659  -1.643  1.00  0.00     0.040 C 
HETATM   11  C11 UNL     1       4.860  -2.006   0.552  1.00  0.00     0.225 C 
HETATM   12  C12 UNL     1       6.715  -0.731   1.608  1.00  0.00     0.200 C 
HETATM   13  C13 UNL     1       7.047   0.745   1.412  1.00  0.00     0.145 C 
HETATM   14  C14 UNL     1       8.205   1.101   0.499  1.00  0.00     0.096 C 
HETATM   15  C15 UNL     1       7.703   1.857  -0.739  1.00  0.00     0.108 C 
HETATM   16  C16 UNL     1       8.794   2.761  -1.314  1.00  0.00     0.178 C 
HETATM   17  C17 UNL     1       7.177   0.848  -1.755  1.00  0.00     0.225 C 
HETATM   18  C18 UNL     1       7.700  -1.095  -3.155  1.00  0.00     0.206 C 
HETATM   19  C19 UNL     1       8.675  -1.527  -4.249  1.00  0.00     0.200 C 
HETATM   20  C20 UNL     1       7.681  -2.162  -2.069  1.00  0.00     0.165 C 
HETATM   21  C21 UNL     1       2.009   1.038   2.286  1.00  0.00     0.222 C 
HETATM   22  C22 UNL     1       1.432   1.123   3.700  1.00  0.00     0.085 C 
HETATM   23  C23 UNL     1       2.403   0.546   4.754  1.00  0.00     0.016 C 
HETATM   24  C24 UNL     1       2.564  -0.979   4.696  1.00  0.00     0.020 C 
HETATM   25  C25 UNL     1       1.340  -1.732   5.216  1.00  0.00     0.121 C 
HETATM   26  C26 UNL     1       1.166  -3.740   3.967  1.00  0.00     0.121 C 
HETATM   27  C27 UNL     1       1.054   2.572   4.059  1.00  0.00     0.094 C 
HETATM   28  C28 UNL     1      -0.291   2.575   4.767  1.00  0.00     0.150 C 
HETATM   29  C29 UNL     1      -1.442   3.363   4.120  1.00  0.00     0.158 C 
HETATM   30  C30 UNL     1      -1.990   4.510   5.000  1.00  0.00     0.011 C 
HETATM   31  C31 UNL     1      -2.586   4.048   6.338  1.00  0.00     0.012 C 
HETATM   32  C32 UNL     1      -0.939   5.608   5.276  1.00  0.00     0.002 C 
HETATM   33  C33 UNL     1      -0.426   6.303   4.023  1.00  0.00     0.005 C 
HETATM   34  C34 UNL     1      -2.319   1.601   2.655  1.00  0.00     0.243 C 
HETATM   35  C35 UNL     1      -3.221   0.352   2.547  1.00  0.00     0.205 C 
HETATM   36  C36 UNL     1      -2.639  -0.772   3.441  1.00  0.00     0.153 C 
HETATM   37  C37 UNL     1      -3.665  -1.888   3.767  1.00  0.00     0.009 C 
HETATM   38  C38 UNL     1      -4.075  -2.732   2.558  1.00  0.00     0.012 C 
HETATM   39  C39 UNL     1      -3.131  -2.815   4.868  1.00  0.00     0.012 C 
HETATM   40  C40 UNL     1      -4.036   0.528   0.205  1.00  0.00     0.243 C 
HETATM   41  C41 UNL     1      -3.624   0.233  -1.252  1.00  0.00     0.206 C 
HETATM   42  C42 UNL     1      -4.839   0.153  -2.222  1.00  0.00     0.152 C 
HETATM   43  C43 UNL     1      -5.684  -1.099  -1.990  1.00  0.00    -0.033 A 
HETATM   44  C44 UNL     1      -5.482  -2.227  -2.805  1.00  0.00     0.009 A 
HETATM   45  C45 UNL     1      -6.202  -3.403  -2.590  1.00  0.00     0.001 A 
HETATM   46  C46 UNL     1      -7.138  -3.469  -1.562  1.00  0.00     0.000 A 
HETATM   47  C47 UNL     1      -7.357  -2.359  -0.750  1.00  0.00     0.001 A 
HETATM   48  C48 UNL     1      -6.636  -1.181  -0.962  1.00  0.00     0.009 A 
HETATM   49  C49 UNL     1      -6.353   1.792  -3.288  1.00  0.00     0.361 C 
HETATM   50  C50 UNL     1      -8.046   3.452  -3.846  1.00  0.00     0.061 C 
HETATM   51  C51 UNL     1      -9.074   2.469  -4.418  1.00  0.00     0.046 C 
HETATM   52  C52 UNL     1      -8.790   4.514  -3.022  1.00  0.00     0.046 C 
HETATM   53  C53 UNL     1      -7.251   4.158  -4.950  1.00  0.00     0.046 C 
HETATM   54  C54 UNL     1      -1.932  -1.200  -2.331  1.00  0.00     0.361 C 
HETATM   55  C55 UNL     1      -0.803  -2.952  -3.420  1.00  0.00     0.219 C 
HETATM   56  C56 UNL     1      -1.751  -3.550  -4.427  1.00  0.00    -0.034 A 
HETATM   57  C57 UNL     1      -2.243  -4.852  -4.254  1.00  0.00     0.009 A 
HETATM   58  C58 UNL     1      -3.156  -5.389  -5.163  1.00  0.00     0.001 A 
HETATM   59  C59 UNL     1      -3.592  -4.629  -6.247  1.00  0.00     0.000 A 
HETATM   60  C60 UNL     1      -3.117  -3.330  -6.422  1.00  0.00     0.001 A 
HETATM   61  C61 UNL     1      -2.202  -2.792  -5.516  1.00  0.00     0.009 A 
HETATM   62  O1  UNL     1       0.709  -1.069  -0.471  1.00  0.00    -0.296 OA
HETATM   63  O2  UNL     1       1.450  -3.486   0.241  1.00  0.00    -0.395 OA
HETATM   64  O3  UNL     1       5.597  -2.882   0.100  1.00  0.00    -0.273 OA
HETATM   65  O4  UNL     1       6.399   1.635   1.968  1.00  0.00    -0.296 OA
HETATM   66  O5  UNL     1       8.262   3.561  -2.361  1.00  0.00    -0.400 OA
HETATM   67  O6  UNL     1       5.976   0.597  -1.836  1.00  0.00    -0.273 OA
HETATM   68  O7  UNL     1       8.058  -2.392  -5.202  1.00  0.00    -0.398 OA
HETATM   69  O8  UNL     1       8.455  -2.208  -1.121  1.00  0.00    -0.648 OA
HETATM   70  O9  UNL     1       6.687  -3.055  -2.226  1.00  0.00    -0.775 OA
HETATM   71  O10 UNL     1       3.151   0.653   2.053  1.00  0.00    -0.273 OA
HETATM   72  O11 UNL     1      -0.478   1.880   5.771  1.00  0.00    -0.296 OA
HETATM   73  O12 UNL     1      -1.471   1.887   1.806  1.00  0.00    -0.271 OA
HETATM   74  O13 UNL     1      -1.471  -1.296   2.791  1.00  0.00    -0.393 OA
HETATM   75  O14 UNL     1      -4.949   1.293   0.516  1.00  0.00    -0.271 OA
HETATM   76  O15 UNL     1      -6.256   1.343  -4.418  1.00  0.00    -0.238 OA
HETATM   77  O16 UNL     1      -7.166   2.800  -2.896  1.00  0.00    -0.294 OA
HETATM   78  O17 UNL     1      -1.619  -0.378  -3.177  1.00  0.00    -0.238 OA
HETATM   79  O18 UNL     1      -1.558  -2.497  -2.293  1.00  0.00    -0.299 OA
HETATM   80  N1  UNL     1       5.317  -0.955   1.312  1.00  0.00    -0.354 N 
HETATM   81  N2  UNL     1       8.120   0.135  -2.469  1.00  0.00    -0.344 N 
HETATM   82  N3  UNL     1       1.124   1.359   1.286  1.00  0.00    -0.349 N 
HETATM   83  N4  UNL     1       1.541  -3.170   5.048  1.00  0.00    -0.372 N 
ATOM     84  H4  UNL     1       1.979  -3.716   5.790  1.00  0.00     0.161 HD
HETATM   85  N5  UNL     1       1.324  -5.071   3.823  1.00  0.00    -0.279 NA
HETATM   86  N6  UNL     1       0.584  -3.217   2.865  1.00  0.00    -0.279 NA
HETATM   87  N7  UNL     1      -2.459   2.355   3.806  1.00  0.00    -0.347 N 
HETATM   88  N8  UNL     1      -3.213  -0.049   1.144  1.00  0.00    -0.344 N 
HETATM   89  N9  UNL     1      -5.654   1.357  -2.207  1.00  0.00    -0.326 N 
HETATM   90  N10 UNL     1      -2.776  -0.962  -1.293  1.00  0.00    -0.321 N 
HETATM   91  H79 UNL     1       0.948  -2.749  -0.179  1.00  0.00     0.210 HD
HETATM   92  H80 UNL     1       8.956   4.182  -2.643  1.00  0.00     0.209 HD
HETATM   93  H81 UNL     1       7.643  -3.134  -4.724  1.00  0.00     0.209 HD
HETATM   94  H82 UNL     1       6.497  -3.376  -1.304  1.00  0.00     0.167 HD
HETATM   95  H83 UNL     1      -1.250  -2.169   3.174  1.00  0.00     0.210 HD
HETATM   96  H84 UNL     1       4.647  -0.269   1.681  1.00  0.00     0.162 HD
HETATM   97  H85 UNL     1       9.061   0.116  -2.097  1.00  0.00     0.163 HD
HETATM   98  H86 UNL     1       0.144   1.524   1.525  1.00  0.00     0.163 HD
HETATM   99  H87 UNL     1       1.574  -5.497   4.709  1.00  0.00     0.126 HD
HETATM  100  H88 UNL     1       0.526  -5.525   3.399  1.00  0.00     0.126 HD
HETATM  101  H89 UNL     1       0.902  -3.672   2.001  1.00  0.00     0.126 HD
HETATM  102  H90 UNL     1       0.747  -2.223   2.746  1.00  0.00     0.126 HD
HETATM  103  H91 UNL     1      -2.913   1.914   4.598  1.00  0.00     0.163 HD
HETATM  104  H92 UNL     1      -2.319  -0.404   0.807  1.00  0.00     0.163 HD
HETATM  105  H93 UNL     1      -5.934   1.747  -1.313  1.00  0.00     0.165 HD
HETATM  106  H94 UNL     1      -3.097  -1.798  -0.820  1.00  0.00     0.165 HD
ENDROOT
TORSDOF 47
