REMARK  27 active torsions:
REMARK  status: ('A' for Active; 'I' for Inactive)
REMARK    1  A    between atoms: C4_4  and  C5_5 
REMARK       I    between atoms: C5_5  and  N3_62 
REMARK    2  A    between atoms: C6_6  and  N3_62 
REMARK    3  A    between atoms: C8_8  and  C10_10 
REMARK       I    between atoms: C10_10  and  N5_64 
REMARK    4  A    between atoms: C11_11  and  N5_64 
REMARK    5  A    between atoms: C13_13  and  C15_15 
REMARK       I    between atoms: C15_15  and  N7_66 
REMARK    6  A    between atoms: C16_16  and  N7_66 
REMARK    7  A    between atoms: C18_18  and  C20_20 
REMARK       I    between atoms: C20_20  and  N9_68 
REMARK    8  A    between atoms: C21_21  and  C22_22 
REMARK    9  A    between atoms: C21_21  and  N9_68 
REMARK   10  A    between atoms: C22_22  and  C23_23 
REMARK   11  A    between atoms: C23_23  and  C24_24 
REMARK   12  A    between atoms: C23_23  and  N22_82 
REMARK       I    between atoms: C24_24  and  N10_69 
REMARK   13  A    between atoms: C25_25  and  N10_69 
REMARK   14  A    between atoms: C27_27  and  C28_28 
REMARK       I    between atoms: C28_28  and  N13_73 
REMARK   15  A    between atoms: C29_29  and  N13_73 
REMARK   16  A    between atoms: C31_31  and  C33_33 
REMARK       I    between atoms: C33_33  and  N15_75 
REMARK   17  A    between atoms: C34_34  and  N15_75 
REMARK   18  A    between atoms: C36_36  and  C38_38 
REMARK       I    between atoms: C38_38  and  N17_77 
REMARK   19  A    between atoms: C39_39  and  N17_77 
REMARK   20  A    between atoms: C41_41  and  C43_43 
REMARK       I    between atoms: C43_43  and  N19_79 
REMARK   21  A    between atoms: C44_44  and  C45_45 
REMARK   22  A    between atoms: C44_44  and  N19_79 
REMARK   23  A    between atoms: C45_45  and  C46_46 
REMARK       I    between atoms: C46_46  and  N20_80 
REMARK   24  A    between atoms: C47_47  and  C48_48 
REMARK   25  A    between atoms: C47_47  and  N20_80 
REMARK   26  A    between atoms: C48_48  and  C49_49 
REMARK   27  A    between atoms: C49_49  and  N21_81 
ROOT
HETATM    1  C25 UNL     1       0.556  -3.116   8.390  1.00  0.00     0.125 A 
HETATM    2  C26 UNL     1       0.280  -4.085   9.322  1.00  0.00     0.140 A 
HETATM    3  C27 UNL     1      -1.312  -3.978   7.780  1.00  0.00     0.178 A 
HETATM    4  C55 UNL     1      -1.621  -5.695   9.595  1.00  0.00     0.157 C 
HETATM    5  N11 UNL     1      -0.913  -4.628   8.925  1.00  0.00    -0.339 N 
HETATM    6  N12 UNL     1      -0.419  -3.054   7.445  1.00  0.00    -0.323 N 
ATOM      7  H12 UNL     1      -0.457  -2.426   6.642  1.00  0.00     0.169 HD
ENDROOT
BRANCH   1   8
HETATM    8  N10 UNL     1       1.669  -2.311   8.404  1.00  0.00    -0.310 N 
HETATM    9  C24 UNL     1       1.910  -1.331   7.466  1.00  0.00     0.254 C 
HETATM   10  O5  UNL     1       1.194  -1.001   6.520  1.00  0.00    -0.271 OA
HETATM   11  H65 UNL     1       2.301  -2.477   9.176  1.00  0.00     0.170 HD
BRANCH   9  12
HETATM   12  C23 UNL     1       3.222  -0.547   7.674  1.00  0.00     0.276 C 
BRANCH  12  13
HETATM   13  C22 UNL     1       4.449  -1.431   7.415  1.00  0.00     0.062 C 
BRANCH  13  14
HETATM   14  C21 UNL     1       5.776  -0.852   7.916  1.00  0.00     0.125 C 
BRANCH  14  15
HETATM   15  N9  UNL     1       6.546  -0.195   6.880  1.00  0.00    -0.356 N 
HETATM   16  C20 UNL     1       6.420   1.140   6.573  1.00  0.00     0.268 C 
HETATM   17  O4  UNL     1       5.470   1.786   7.022  1.00  0.00    -0.266 OA
HETATM   18  H64 UNL     1       7.408  -0.647   6.587  1.00  0.00     0.162 HD
BRANCH  16  19
HETATM   19  C18 UNL     1       7.419   1.672   5.674  1.00  0.00     0.104 A 
HETATM   20  C19 UNL     1       8.258   0.991   4.799  1.00  0.00     0.066 A 
HETATM   21  C16 UNL     1       9.058   1.928   4.106  1.00  0.00     0.053 A 
HETATM   22  C17 UNL     1       8.694   3.171   4.564  1.00  0.00     0.120 A 
HETATM   23  N8  UNL     1       7.709   3.014   5.506  1.00  0.00    -0.354 N 
HETATM   24  C56 UNL     1       7.105   4.113   6.231  1.00  0.00     0.156 C 
BRANCH  21  25
HETATM   25  N7  UNL     1      10.027   1.736   3.143  1.00  0.00    -0.320 N 
HETATM   26  C15 UNL     1      10.451   0.506   2.667  1.00  0.00     0.273 C 
HETATM   27  O3  UNL     1      10.024  -0.569   3.083  1.00  0.00    -0.266 OA
HETATM   28  H63 UNL     1      10.477   2.568   2.788  1.00  0.00     0.169 HD
BRANCH  26  29
HETATM   29  C13 UNL     1      11.472   0.589   1.627  1.00  0.00     0.105 A 
HETATM   30  C14 UNL     1      11.895   1.686   0.881  1.00  0.00     0.066 A 
HETATM   31  C11 UNL     1      12.914   1.275  -0.009  1.00  0.00     0.053 A 
HETATM   32  C12 UNL     1      13.094  -0.071   0.191  1.00  0.00     0.120 A 
HETATM   33  N6  UNL     1      12.222  -0.482   1.170  1.00  0.00    -0.354 N 
HETATM   34  C57 UNL     1      12.137  -1.847   1.648  1.00  0.00     0.156 C 
BRANCH  31  35
HETATM   35  N5  UNL     1      13.638   1.998  -0.937  1.00  0.00    -0.320 N 
HETATM   36  C10 UNL     1      13.522   3.359  -1.161  1.00  0.00     0.273 C 
HETATM   37  O2  UNL     1      12.763   4.092  -0.530  1.00  0.00    -0.266 OA
HETATM   38  H62 UNL     1      14.324   1.480  -1.465  1.00  0.00     0.169 HD
BRANCH  36  39
HETATM   39  C8  UNL     1      14.396   3.870  -2.215  1.00  0.00     0.105 A 
HETATM   40  C9  UNL     1      15.175   3.182  -3.142  1.00  0.00     0.066 A 
HETATM   41  C6  UNL     1      15.851   4.116  -3.961  1.00  0.00     0.053 A 
HETATM   42  C7  UNL     1      15.472   5.364  -3.534  1.00  0.00     0.120 A 
HETATM   43  N4  UNL     1      14.595   5.214  -2.489  1.00  0.00    -0.354 N 
HETATM   44  C58 UNL     1      13.990   6.326  -1.784  1.00  0.00     0.156 C 
BRANCH  41  45
HETATM   45  N3  UNL     1      16.728   3.915  -5.002  1.00  0.00    -0.319 N 
HETATM   46  C5  UNL     1      17.163   2.693  -5.478  1.00  0.00     0.290 C 
HETATM   47  O1  UNL     1      16.826   1.597  -5.036  1.00  0.00    -0.264 OA
HETATM   48  H61 UNL     1      17.110   4.728  -5.479  1.00  0.00     0.169 HD
BRANCH  46  49
HETATM   49  C4  UNL     1      18.092   2.856  -6.591  1.00  0.00     0.176 A 
HETATM   50  N1  UNL     1      18.721   1.859  -7.299  1.00  0.00    -0.342 N 
HETATM   51  C1  UNL     1      18.587   0.439  -7.080  1.00  0.00     0.157 C 
HETATM   52  C2  UNL     1      19.504   2.448  -8.254  1.00  0.00     0.109 A 
HETATM   53  C3  UNL     1      19.319   3.798  -8.088  1.00  0.00     0.107 A 
HETATM   54  N2  UNL     1      18.446   4.047  -7.061  1.00  0.00    -0.346 N 
ATOM     55  H2  UNL     1      18.133   4.958  -6.727  1.00  0.00     0.167 HD
ENDBRANCH  46  49
ENDBRANCH  41  45
ENDBRANCH  36  39
ENDBRANCH  31  35
ENDBRANCH  26  29
ENDBRANCH  21  25
ENDBRANCH  16  19
ENDBRANCH  14  15
ENDBRANCH  13  14
ENDBRANCH  12  13
BRANCH  12  56
HETATM   56  N22 UNL     1       3.215   0.630   6.751  1.00  0.00    -0.066 N 
HETATM   57  H72 UNL     1       2.333   1.152   6.838  1.00  0.00     0.275 HD
HETATM   58  H73 UNL     1       4.002   1.287   6.916  1.00  0.00     0.275 HD
HETATM   59  H74 UNL     1       3.249   0.327   5.769  1.00  0.00     0.275 HD
ENDBRANCH  12  56
ENDBRANCH   9  12
ENDBRANCH   1   8
BRANCH   3  60
HETATM   60  C28 UNL     1      -2.527  -4.229   7.011  1.00  0.00     0.290 C 
HETATM   61  N13 UNL     1      -2.612  -3.399   5.908  1.00  0.00    -0.319 N 
HETATM   62  H66 UNL     1      -1.839  -2.751   5.790  1.00  0.00     0.169 HD
HETATM   63  O6  UNL     1      -3.347  -5.082   7.335  1.00  0.00    -0.264 OA
BRANCH  61  64
HETATM   64  C29 UNL     1      -3.633  -3.374   4.981  1.00  0.00     0.053 A 
HETATM   65  C30 UNL     1      -4.770  -4.140   4.954  1.00  0.00     0.120 A 
HETATM   66  N14 UNL     1      -5.517  -3.774   3.864  1.00  0.00    -0.354 N 
HETATM   67  C31 UNL     1      -4.870  -2.779   3.150  1.00  0.00     0.105 A 
HETATM   68  C54 UNL     1      -6.789  -4.379   3.523  1.00  0.00     0.156 C 
HETATM   69  C32 UNL     1      -3.696  -2.517   3.853  1.00  0.00     0.066 A 
BRANCH  67  70
HETATM   70  C33 UNL     1      -5.396  -2.166   1.932  1.00  0.00     0.273 C 
HETATM   71  N15 UNL     1      -4.449  -1.473   1.199  1.00  0.00    -0.320 N 
HETATM   72  H67 UNL     1      -3.489  -1.501   1.504  1.00  0.00     0.169 HD
HETATM   73  O7  UNL     1      -6.572  -2.286   1.597  1.00  0.00    -0.266 OA
BRANCH  71  74
HETATM   74  C34 UNL     1      -4.692  -0.794   0.020  1.00  0.00     0.053 A 
HETATM   75  C35 UNL     1      -3.701  -0.168  -0.695  1.00  0.00     0.120 A 
HETATM   76  N16 UNL     1      -4.269   0.411  -1.803  1.00  0.00    -0.354 N 
HETATM   77  C36 UNL     1      -5.632   0.163  -1.831  1.00  0.00     0.105 A 
HETATM   78  C53 UNL     1      -3.520   1.154  -2.797  1.00  0.00     0.156 C 
HETATM   79  C37 UNL     1      -5.900  -0.580  -0.684  1.00  0.00     0.066 A 
BRANCH  77  80
HETATM   80  C38 UNL     1      -6.537   0.634  -2.880  1.00  0.00     0.273 C 
HETATM   81  N17 UNL     1      -7.794   0.055  -2.846  1.00  0.00    -0.320 N 
HETATM   82  H68 UNL     1      -7.975  -0.652  -2.149  1.00  0.00     0.169 HD
HETATM   83  O8  UNL     1      -6.179   1.459  -3.716  1.00  0.00    -0.266 OA
BRANCH  81  84
HETATM   84  C39 UNL     1      -8.834   0.318  -3.719  1.00  0.00     0.053 A 
HETATM   85  C40 UNL     1      -8.869   1.216  -4.758  1.00  0.00     0.120 A 
HETATM   86  N18 UNL     1     -10.107   1.159  -5.345  1.00  0.00    -0.354 N 
HETATM   87  C41 UNL     1     -10.870   0.179  -4.740  1.00  0.00     0.104 A 
HETATM   88  C52 UNL     1     -10.535   2.074  -6.383  1.00  0.00     0.156 C 
HETATM   89  C42 UNL     1     -10.101  -0.312  -3.691  1.00  0.00     0.066 A 
BRANCH  87  90
HETATM   90  C43 UNL     1     -12.214  -0.231  -5.080  1.00  0.00     0.268 C 
HETATM   91  N19 UNL     1     -12.471  -0.319  -6.432  1.00  0.00    -0.355 N 
HETATM   92  H69 UNL     1     -11.657  -0.372  -7.033  1.00  0.00     0.162 HD
HETATM   93  O9  UNL     1     -13.064  -0.534  -4.244  1.00  0.00    -0.266 OA
BRANCH  91  94
HETATM   94  C44 UNL     1     -13.701  -0.912  -6.931  1.00  0.00     0.132 C 
BRANCH  94  95
HETATM   95  C45 UNL     1     -14.934  -0.051  -6.664  1.00  0.00     0.122 C 
BRANCH  95  96
HETATM   96  C46 UNL     1     -15.993  -0.812  -5.899  1.00  0.00     0.219 C 
HETATM   97  N20 UNL     1     -15.693  -1.083  -4.587  1.00  0.00    -0.361 N 
HETATM   98  H70 UNL     1     -14.736  -0.878  -4.268  1.00  0.00     0.162 HD
HETATM   99  O10 UNL     1     -17.076  -1.133  -6.393  1.00  0.00    -0.274 OA
BRANCH  97 100
HETATM  100  C47 UNL     1     -16.495  -1.963  -3.768  1.00  0.00     0.124 C 
BRANCH 100 101
HETATM  101  C48 UNL     1     -17.559  -1.238  -2.946  1.00  0.00     0.047 C 
BRANCH 101 102
HETATM  102  C49 UNL     1     -18.545  -0.354  -3.711  1.00  0.00     0.235 C 
BRANCH 102 103
HETATM  103  N21 UNL     1     -19.233  -1.040  -4.862  1.00  0.00    -0.079 N 
HETATM  104  C50 UNL     1     -20.030  -2.253  -4.499  1.00  0.00     0.269 C 
HETATM  105  C51 UNL     1     -20.053  -0.069  -5.668  1.00  0.00     0.269 C 
HETATM  106  H71 UNL     1     -18.477  -1.330  -5.521  1.00  0.00     0.278 HD
ENDBRANCH 102 103
ENDBRANCH 101 102
ENDBRANCH 100 101
ENDBRANCH  97 100
ENDBRANCH  95  96
ENDBRANCH  94  95
ENDBRANCH  91  94
ENDBRANCH  87  90
ENDBRANCH  81  84
ENDBRANCH  77  80
ENDBRANCH  71  74
ENDBRANCH  67  70
ENDBRANCH  61  64
ENDBRANCH   3  60
TORSDOF 27
