REMARK  17 active torsions:
REMARK  status: ('A' for Active; 'I' for Inactive)
REMARK    1  A    between atoms: C6_6  and  C7_7 
REMARK       I    between atoms: C7_7  and  N1_53 
REMARK    2  A    between atoms: C8_8  and  C9_9 
REMARK    3  A    between atoms: C8_8  and  N1_53 
REMARK    4  A    between atoms: C9_9  and  C10_10 
REMARK    5  A    between atoms: C10_10  and  C11_11 
REMARK    6  A    between atoms: C11_11  and  C12_12 
REMARK    7  A    between atoms: C12_12  and  C13_13 
REMARK       I    between atoms: C13_13  and  N2_54 
REMARK    8  A    between atoms: C14_14  and  C15_15 
REMARK    9  A    between atoms: C14_14  and  N2_54 
REMARK   10  A    between atoms: C16_16  and  C17_17 
REMARK   11  A    between atoms: C20_20  and  C22_22 
REMARK   12  A    between atoms: C23_23  and  O7_47 
REMARK   13  A    between atoms: C24_24  and  O6_46 
REMARK   14  A    between atoms: C25_25  and  C26_26 
REMARK   15  A    between atoms: C26_26  and  O5_45 
REMARK   16  A    between atoms: C32_32  and  O10_50 
REMARK   17  A    between atoms: C39_39  and  O12_52 
ROOT
HETATM    1  C8  UNL     1      -1.237  -0.878   2.694  1.00  0.00     0.123 C 
ENDROOT
BRANCH   1   2
HETATM    2  C9  UNL     1      -1.163  -2.403   2.777  1.00  0.00     0.020 C 
BRANCH   2   3
HETATM    3  C10 UNL     1      -0.953  -3.116   1.436  1.00  0.00     0.002 C 
BRANCH   3   4
HETATM    4  C11 UNL     1       0.507  -3.372   1.036  1.00  0.00     0.009 C 
BRANCH   4   5
HETATM    5  C12 UNL     1       1.282  -2.142   0.566  1.00  0.00     0.103 C 
BRANCH   5   6
HETATM    6  C13 UNL     1       2.066  -1.440   1.661  1.00  0.00     0.218 C 
HETATM    7  O2  UNL     1       2.072  -1.797   2.832  1.00  0.00    -0.274 OA
HETATM    8  N2  UNL     1       2.752  -0.339   1.199  1.00  0.00    -0.351 N 
HETATM    9  H36 UNL     1       2.842  -0.202   0.201  1.00  0.00     0.163 HD
BRANCH   8  10
HETATM   10  C14 UNL     1       3.645   0.407   2.053  1.00  0.00     0.217 C 
BRANCH  10  11
HETATM   11  C15 UNL     1       5.022  -0.045   1.843  1.00  0.00    -0.081 C 
HETATM   12  C16 UNL     1       6.149  -0.428   1.678  1.00  0.00    -0.064 C 
BRANCH  12  13
HETATM   13  C17 UNL     1       7.478  -0.895   1.487  1.00  0.00     0.034 A 
HETATM   14  C18 UNL     1       7.892  -2.046   2.034  1.00  0.00     0.112 A 
HETATM   15  N3  UNL     1       9.176  -2.489   1.838  1.00  0.00    -0.332 N 
HETATM   16  C19 UNL     1      10.113  -1.819   1.090  1.00  0.00     0.254 A 
HETATM   17  H37 UNL     1       9.479  -3.362   2.253  1.00  0.00     0.168 HD
HETATM   18  C20 UNL     1       9.674  -0.526   0.473  1.00  0.00     0.043 A 
HETATM   19  O3  UNL     1      11.247  -2.260   0.923  1.00  0.00    -0.268 OA
HETATM   20  C21 UNL     1       8.407  -0.120   0.690  1.00  0.00     0.037 A 
BRANCH  18  21
HETATM   21  C22 UNL     1      10.716   0.215  -0.325  1.00  0.00     0.192 C 
HETATM   22  C23 UNL     1      11.223  -0.568  -1.553  1.00  0.00     0.183 C 
HETATM   23  C24 UNL     1      11.463   0.536  -2.568  1.00  0.00     0.180 C 
HETATM   24  C25 UNL     1      10.341   1.506  -2.229  1.00  0.00     0.177 C 
HETATM   25  O4  UNL     1      10.185   1.476  -0.803  1.00  0.00    -0.368 OA
BRANCH  22  26
HETATM   26  O7  UNL     1      12.433  -1.278  -1.282  1.00  0.00    -0.390 OA
HETATM   27  H32 UNL     1      12.245  -1.883  -0.531  1.00  0.00     0.210 HD
ENDBRANCH  22  26
BRANCH  23  28
HETATM   28  O6  UNL     1      11.372   0.074  -3.912  1.00  0.00    -0.390 OA
HETATM   29  H31 UNL     1      11.371   0.878  -4.471  1.00  0.00     0.210 HD
ENDBRANCH  23  28
BRANCH  24  30
HETATM   30  C26 UNL     1      10.627   2.923  -2.716  1.00  0.00     0.198 C 
BRANCH  30  31
HETATM   31  O5  UNL     1      10.850   2.929  -4.123  1.00  0.00    -0.398 OA
HETATM   32  H30 UNL     1      10.981   3.860  -4.381  1.00  0.00     0.209 HD
ENDBRANCH  30  31
ENDBRANCH  24  30
ENDBRANCH  18  21
ENDBRANCH  12  13
ENDBRANCH  10  11
ENDBRANCH   8  10
ENDBRANCH   5   6
ENDBRANCH   4   5
ENDBRANCH   3   4
ENDBRANCH   2   3
ENDBRANCH   1   2
BRANCH   1  33
HETATM   33  N1  UNL     1      -2.375  -0.413   1.921  1.00  0.00    -0.357 N 
HETATM   34  C7  UNL     1      -3.635  -0.320   2.478  1.00  0.00     0.251 C 
HETATM   35  O1  UNL     1      -3.881  -0.578   3.650  1.00  0.00    -0.268 OA
HETATM   36  H35 UNL     1      -2.268  -0.370   0.919  1.00  0.00     0.162 HD
BRANCH  34  37
HETATM   37  C6  UNL     1      -4.737   0.089   1.563  1.00  0.00     0.033 A 
HETATM   38  C1  UNL     1      -6.053  -0.309   1.887  1.00  0.00     0.018 A 
HETATM   39  C2  UNL     1      -7.137   0.046   1.075  1.00  0.00     0.013 A 
HETATM   40  C3  UNL     1      -6.888   0.808  -0.057  1.00  0.00     0.003 A 
HETATM   41  C4  UNL     1      -5.599   1.201  -0.356  1.00  0.00     0.050 A 
HETATM   42  C28 UNL     1      -7.819   1.342  -1.103  1.00  0.00     0.159 A 
HETATM   43  C5  UNL     1      -4.504   0.870   0.426  1.00  0.00     0.035 A 
HETATM   44  C27 UNL     1      -5.618   1.987  -1.579  1.00  0.00     0.295 A 
HETATM   45  O8  UNL     1      -4.651   2.477  -2.125  1.00  0.00    -0.259 OA
HETATM   46  O9  UNL     1      -6.916   2.057  -1.992  1.00  0.00    -0.291 OA
HETATM   47  C29 UNL     1      -8.496   0.235  -1.888  1.00  0.00     0.020 A 
HETATM   48  C36 UNL     1      -8.820   2.328  -0.534  1.00  0.00     0.020 A 
HETATM   49  C30 UNL     1      -9.851  -0.030  -1.660  1.00  0.00     0.088 A 
HETATM   50  C34 UNL     1      -7.800  -0.575  -2.805  1.00  0.00     0.016 A 
HETATM   51  C31 UNL     1     -10.500  -1.084  -2.310  1.00  0.00     0.074 A 
HETATM   52  O11 UNL     1     -10.625   0.706  -0.793  1.00  0.00    -0.309 OA
HETATM   53  C32 UNL     1      -9.790  -1.870  -3.209  1.00  0.00     0.068 A 
HETATM   54  C33 UNL     1      -8.448  -1.622  -3.463  1.00  0.00     0.037 A 
HETATM   55  C35 UNL     1     -10.156   1.934  -0.390  1.00  0.00     0.088 A 
HETATM   56  C40 UNL     1     -11.100   2.785   0.191  1.00  0.00     0.074 A 
HETATM   57  C39 UNL     1     -10.709   4.048   0.618  1.00  0.00     0.068 A 
HETATM   58  C38 UNL     1      -9.393   4.468   0.477  1.00  0.00     0.037 A 
HETATM   59  C37 UNL     1      -8.449   3.612  -0.094  1.00  0.00     0.016 A 
BRANCH  53  60
HETATM   60  O10 UNL     1     -10.380  -2.905  -3.871  1.00  0.00    -0.361 OA
HETATM   61  H33 UNL     1     -11.317  -2.949  -3.616  1.00  0.00     0.217 HD
ENDBRANCH  53  60
BRANCH  57  62
HETATM   62  O12 UNL     1     -11.594   4.915   1.186  1.00  0.00    -0.361 OA
HETATM   63  H34 UNL     1     -12.472   4.500   1.208  1.00  0.00     0.217 HD
ENDBRANCH  57  62
ENDBRANCH  34  37
ENDBRANCH   1  33
TORSDOF 17
