REMARK  0 active torsions:
REMARK  status: ('A' for Active; 'I' for Inactive)
REMARK       I    between atoms: C2_2  and  C3_3 
REMARK       I    between atoms: C2_2  and  N4_53 
REMARK       I    between atoms: C3_3  and  C4_4 
REMARK       I    between atoms: C3_3  and  O14_48 
REMARK       I    between atoms: C4_4  and  C5_5 
REMARK       I    between atoms: C4_4  and  O13_47 
REMARK       I    between atoms: C5_5  and  C6_6 
REMARK       I    between atoms: C5_5  and  O2_36 
REMARK       I    between atoms: C6_6  and  O1_35 
REMARK       I    between atoms: C7_7  and  O2_36 
REMARK       I    between atoms: C7_7  and  O3_37 
REMARK       I    between atoms: C8_8  and  C9_9 
REMARK       I    between atoms: C8_8  and  O3_37 
REMARK       I    between atoms: C9_9  and  C10_10 
REMARK       I    between atoms: C10_10  and  C11_11 
REMARK       I    between atoms: C11_11  and  C12_12 
REMARK       I    between atoms: C12_12  and  N1_50 
REMARK       I    between atoms: C13_13  and  C14_14 
REMARK       I    between atoms: C13_13  and  N1_50 
REMARK       I    between atoms: C14_14  and  C15_15 
REMARK       I    between atoms: C15_15  and  C16_16 
REMARK       I    between atoms: C16_16  and  C17_17 
REMARK       I    between atoms: C17_17  and  C18_18 
REMARK       I    between atoms: C17_17  and  N2_51 
REMARK       I    between atoms: C20_20  and  C21_21 
REMARK       I    between atoms: C20_20  and  N2_51 
REMARK       I    between atoms: C21_21  and  C22_22 
REMARK       I    between atoms: C22_22  and  C23_23 
REMARK       I    between atoms: C23_23  and  C24_24 
REMARK       I    between atoms: C24_24  and  O7_41 
REMARK       I    between atoms: C25_25  and  O7_41 
REMARK       I    between atoms: C26_26  and  N3_52 
REMARK       I    between atoms: C27_27  and  O11_45 
REMARK       I    between atoms: C28_28  and  O10_44 
REMARK       I    between atoms: C29_29  and  C30_30 
REMARK       I    between atoms: C30_30  and  O9_43 
REMARK       I    between atoms: C31_31  and  N3_52 
REMARK       I    between atoms: C33_33  and  N4_53 
ROOT
HETATM    1  C1  UNL     1      11.128  -0.643   0.432  1.00  0.00     0.035 C 
HETATM    2  C2  UNL     1      10.174  -0.758   1.613  1.00  0.00     0.111 C 
HETATM    3  C3  UNL     1       9.887   0.543   2.428  1.00  0.00     0.171 C 
HETATM    4  C4  UNL     1      10.980   1.628   2.532  1.00  0.00     0.180 C 
HETATM    5  C5  UNL     1      11.295   2.415   1.241  1.00  0.00     0.178 C 
HETATM    6  C6  UNL     1      11.894   3.795   1.580  1.00  0.00     0.198 C 
HETATM    7  C7  UNL     1      10.319   3.031  -0.857  1.00  0.00     0.338 C 
HETATM    8  C8  UNL     1       8.007   2.995  -1.418  1.00  0.00     0.170 C 
HETATM    9  C9  UNL     1       7.192   1.824  -0.876  1.00  0.00     0.027 C 
HETATM   10  C10 UNL     1       5.768   2.200  -0.470  1.00  0.00     0.011 C 
HETATM   11  C11 UNL     1       4.891   2.615  -1.652  1.00  0.00     0.103 C 
HETATM   12  C12 UNL     1       3.453   2.862  -1.237  1.00  0.00     0.217 C 
HETATM   13  C13 UNL     1       1.230   3.482  -2.124  1.00  0.00     0.122 C 
HETATM   14  C14 UNL     1       0.417   2.192  -2.015  1.00  0.00     0.020 C 
HETATM   15  C15 UNL     1      -1.098   2.423  -2.002  1.00  0.00     0.004 C 
HETATM   16  C16 UNL     1      -1.578   3.217  -0.779  1.00  0.00     0.033 C 
HETATM   17  C17 UNL     1      -3.105   3.390  -0.694  1.00  0.00     0.153 C 
HETATM   18  C18 UNL     1      -3.659   4.151  -1.917  1.00  0.00     0.145 C 
HETATM   19  C19 UNL     1      -5.043   3.815  -2.410  1.00  0.00     0.093 C 
HETATM   20  C20 UNL     1      -4.880   2.009   0.365  1.00  0.00     0.218 C 
HETATM   21  C21 UNL     1      -5.395   0.587   0.486  1.00  0.00     0.103 C 
HETATM   22  C22 UNL     1      -6.576   0.485   1.450  1.00  0.00     0.011 C 
HETATM   23  C23 UNL     1      -7.045  -0.951   1.685  1.00  0.00     0.027 C 
HETATM   24  C24 UNL     1      -7.656  -1.605   0.450  1.00  0.00     0.171 C 
HETATM   25  C25 UNL     1      -8.696  -3.607  -0.287  1.00  0.00     0.285 C 
HETATM   26  C26 UNL     1      -8.955  -5.069   0.167  1.00  0.00     0.170 C 
HETATM   27  C27 UNL     1      -9.634  -5.826  -0.985  1.00  0.00     0.177 C 
HETATM   28  C28 UNL     1     -10.886  -5.082  -1.470  1.00  0.00     0.180 C 
HETATM   29  C29 UNL     1     -10.537  -3.621  -1.794  1.00  0.00     0.179 C 
HETATM   30  C30 UNL     1     -11.791  -2.818  -2.155  1.00  0.00     0.198 C 
HETATM   31  C31 UNL     1     -10.006  -6.229   2.111  1.00  0.00     0.214 C 
HETATM   32  C32 UNL     1     -10.605  -6.005   3.474  1.00  0.00     0.117 C 
HETATM   33  C33 UNL     1       7.964  -1.888   1.939  1.00  0.00     0.214 C 
HETATM   34  C34 UNL     1       6.716  -2.346   1.236  1.00  0.00     0.117 C 
HETATM   35  O1  UNL     1      10.911   4.656   2.155  1.00  0.00    -0.398 OA
HETATM   36  O2  UNL     1      10.093   2.575   0.472  1.00  0.00    -0.357 OA
HETATM   37  O3  UNL     1       9.318   2.533  -1.738  1.00  0.00    -0.367 OA
HETATM   38  O4  UNL     1       3.052   2.768  -0.083  1.00  0.00    -0.274 OA
HETATM   39  O5  UNL     1      -3.023   5.070  -2.442  1.00  0.00    -0.296 OA
HETATM   40  O6  UNL     1      -5.408   2.976   0.900  1.00  0.00    -0.274 OA
HETATM   41  O7  UNL     1      -8.119  -2.903   0.823  1.00  0.00    -0.359 OA
HETATM   42  O8  UNL     1      -9.926  -2.974  -0.661  1.00  0.00    -0.349 OA
HETATM   43  O9  UNL     1     -11.431  -1.456  -2.401  1.00  0.00    -0.398 OA
HETATM   44  O10 UNL     1     -11.397  -5.746  -2.632  1.00  0.00    -0.390 OA
HETATM   45  O11 UNL     1      -8.712  -5.950  -2.085  1.00  0.00    -0.391 OA
HETATM   46  O12 UNL     1      -9.788  -7.352   1.671  1.00  0.00    -0.274 OA
HETATM   47  O13 UNL     1      12.183   1.045   3.057  1.00  0.00    -0.390 OA
HETATM   48  O14 UNL     1       9.634   0.150   3.804  1.00  0.00    -0.391 OA
HETATM   49  O15 UNL     1       8.104  -1.968   3.156  1.00  0.00    -0.274 OA
HETATM   50  N1  UNL     1       2.643   3.208  -2.298  1.00  0.00    -0.361 N 
HETATM   51  N2  UNL     1      -3.763   2.109  -0.437  1.00  0.00    -0.350 N 
HETATM   52  N3  UNL     1      -9.742  -5.076   1.415  1.00  0.00    -0.349 N 
HETATM   53  N4  UNL     1       8.911  -1.336   1.112  1.00  0.00    -0.355 N 
HETATM   54  H53 UNL     1      10.056   4.431   1.742  1.00  0.00     0.209 HD
HETATM   55  H54 UNL     1     -10.889  -1.191  -1.633  1.00  0.00     0.209 HD
HETATM   56  H55 UNL     1     -11.775  -6.595  -2.336  1.00  0.00     0.210 HD
HETATM   57  H56 UNL     1      -9.244  -6.264  -2.844  1.00  0.00     0.210 HD
HETATM   58  H57 UNL     1      11.892   0.591   3.876  1.00  0.00     0.210 HD
HETATM   59  H58 UNL     1       9.003  -0.605   3.777  1.00  0.00     0.210 HD
HETATM   60  H59 UNL     1       3.023   3.211  -3.235  1.00  0.00     0.162 HD
HETATM   61  H60 UNL     1      -3.460   1.292  -0.951  1.00  0.00     0.163 HD
HETATM   62  H61 UNL     1      -9.659  -4.218   1.954  1.00  0.00     0.163 HD
HETATM   63  H62 UNL     1       8.626  -1.082   0.173  1.00  0.00     0.162 HD
ENDROOT
TORSDOF 34
