REMARK  9 active torsions:
REMARK  status: ('A' for Active; 'I' for Inactive)
REMARK    1  A    between atoms: C2_2  and  C19_19 
REMARK    2  A    between atoms: C4_4  and  C5_5 
REMARK       I    between atoms: C5_5  and  N3_31 
REMARK    3  A    between atoms: C6_6  and  N3_31 
REMARK    4  A    between atoms: C9_9  and  C12_12 
REMARK       I    between atoms: C12_12  and  N4_32 
REMARK    5  A    between atoms: C15_15  and  C18_18 
REMARK    6  A    between atoms: C18_18  and  N5_33 
REMARK    7  A    between atoms: C21_21  and  C22_22 
REMARK    8  A    between atoms: C23_23  and  N6_34 
REMARK    9  A    between atoms: C25_25  and  N9_39 
ROOT
HETATM    1  C1  UNL     1      -3.390  -0.950  -1.070  1.00  0.00     0.158 C 
HETATM    2  C2  UNL     1      -3.974  -0.285   1.300  1.00  0.00     0.065 C 
HETATM    3  C3  UNL     1      -3.234  -0.366   2.462  1.00  0.00     0.120 C 
HETATM    4  C4  UNL     1      -1.840  -0.803   0.889  1.00  0.00     0.177 C 
HETATM    5  N1  UNL     1      -3.085  -0.659   0.310  1.00  0.00    -0.331 N 
HETATM    6  N2  UNL     1      -1.926  -0.679   2.205  1.00  0.00    -0.345 N 
ATOM      7  H2  UNL     1      -1.174  -0.793   2.885  1.00  0.00     0.167 HD
ENDROOT
BRANCH   4   8
HETATM    8  C5  UNL     1      -0.565  -1.056   0.222  1.00  0.00     0.290 C 
HETATM    9  N3  UNL     1       0.452  -1.244   1.141  1.00  0.00    -0.320 N 
HETATM   10  H23 UNL     1       0.137  -1.160   2.107  1.00  0.00     0.169 HD
HETATM   11  O1  UNL     1      -0.438  -1.079  -0.998  1.00  0.00    -0.264 OA
BRANCH   9  12
HETATM   12  C6  UNL     1       1.811  -1.515   0.910  1.00  0.00     0.036 A 
HETATM   13  C7  UNL     1       2.635  -1.643   2.038  1.00  0.00     0.054 A 
HETATM   14  C8  UNL     1       4.001  -1.913   1.899  1.00  0.00     0.051 A 
HETATM   15  C9  UNL     1       4.547  -2.050   0.624  1.00  0.00     0.054 A 
HETATM   16 CL1  UNL     1       4.959  -2.025   3.330  1.00  0.00    -0.083 Cl
HETATM   17  C10 UNL     1       3.734  -1.934  -0.508  1.00  0.00     0.021 A 
HETATM   18  C11 UNL     1       2.370  -1.664  -0.362  1.00  0.00     0.030 A 
BRANCH  15  19
HETATM   19  C12 UNL     1       5.972  -2.356   0.424  1.00  0.00     0.255 C 
HETATM   20  N4  UNL     1       6.840  -1.304   0.150  1.00  0.00    -0.348 N 
HETATM   21  C13 UNL     1       8.233  -1.630  -0.139  1.00  0.00     0.126 C 
HETATM   22  C17 UNL     1       6.466   0.113   0.147  1.00  0.00     0.126 C 
HETATM   23  C14 UNL     1       8.930  -0.520  -0.918  1.00  0.00     0.026 C 
HETATM   24  C15 UNL     1       8.909   0.809  -0.140  1.00  0.00     0.016 C 
HETATM   25  C16 UNL     1       7.603   0.993   0.659  1.00  0.00     0.026 C 
HETATM   26  O2  UNL     1       6.308  -3.536   0.471  1.00  0.00    -0.267 OA
BRANCH  24  27
HETATM   27  C18 UNL     1       9.234   2.007  -1.050  1.00  0.00     0.271 C 
BRANCH  27  28
HETATM   28  N5  UNL     1       8.213   2.262  -2.062  1.00  0.00     0.078 N 
HETATM   29  H24 UNL     1       8.538   3.001  -2.685  1.00  0.00     0.312 HD
HETATM   30  H25 UNL     1       7.370   2.625  -1.620  1.00  0.00     0.312 HD
ENDBRANCH  27  28
ENDBRANCH  24  27
ENDBRANCH  15  19
ENDBRANCH   9  12
ENDBRANCH   4   8
BRANCH   2  31
HETATM   31  C19 UNL     1      -5.474   0.147   1.172  1.00  0.00     0.043 A 
HETATM   32  C20 UNL     1      -6.135   0.375  -0.013  1.00  0.00     0.134 A 
HETATM   33  N6  UNL     1      -7.428   0.754   0.291  1.00  0.00    -0.250 N 
HETATM   34  N7  UNL     1      -7.614   0.789   1.632  1.00  0.00    -0.288 N 
HETATM   35  C21 UNL     1      -6.438   0.430   2.182  1.00  0.00     0.146 A 
ATOM     36  H7  UNL     1      -8.471   1.037   2.126  1.00  0.00     0.187 HD
BRANCH  33  37
HETATM   37  C23 UNL     1      -8.493   1.092  -0.612  1.00  0.00     0.126 A 
HETATM   38  C27 UNL     1      -8.290   1.050  -1.991  1.00  0.00     0.052 A 
HETATM   39  C26 UNL     1      -9.348   1.392  -2.841  1.00  0.00     0.028 A 
HETATM   40  C25 UNL     1     -10.570   1.803  -2.318  1.00  0.00     0.021 A 
HETATM   41  C24 UNL     1     -10.695   1.753  -0.934  1.00  0.00     0.113 A 
HETATM   42  N8  UNL     1      -9.694   1.437  -0.080  1.00  0.00    -0.349 N 
ATOM     43  H8  UNL     1      -9.837   1.457   0.930  1.00  0.00     0.167 HD
BRANCH  40  44
HETATM   44  N9  UNL     1     -11.665   2.023  -3.158  1.00  0.00    -0.302 NA
HETATM   45  H26 UNL     1     -11.421   2.342  -4.091  1.00  0.00     0.124 HD
HETATM   46  H27 UNL     1     -12.404   2.583  -2.743  1.00  0.00     0.124 HD
ENDBRANCH  40  44
ENDBRANCH  33  37
BRANCH  35  47
HETATM   47  C22 UNL     1      -6.276   0.357   3.675  1.00  0.00     0.434 C 
HETATM   48  F1  UNL     1      -7.421   0.592   4.369  1.00  0.00    -0.165 F 
HETATM   49  F2  UNL     1      -5.833  -0.868   4.075  1.00  0.00    -0.165 F 
HETATM   50  F3  UNL     1      -5.362   1.260   4.127  1.00  0.00    -0.165 F 
ENDBRANCH  35  47
ENDBRANCH   2  31
TORSDOF 9
