REMARK  26 active torsions:
REMARK  status: ('A' for Active; 'I' for Inactive)
REMARK    1  A    between atoms: C2_2  and  C38_38 
REMARK    2  A    between atoms: C4_4  and  N15_58 
REMARK    3  A    between atoms: C5_5  and  S2_74 
REMARK    4  A    between atoms: C6_6  and  N1_39 
REMARK    5  A    between atoms: C7_7  and  C8_8 
REMARK       I    between atoms: C7_7  and  N1_39 
REMARK    6  A    between atoms: C10_10  and  C12_12 
REMARK       I    between atoms: C12_12  and  N4_44 
REMARK    7  A    between atoms: C13_13  and  N4_44 
REMARK    8  A    between atoms: C14_14  and  S1_73 
REMARK    9  A    between atoms: C15_15  and  N5_45 
REMARK   10  A    between atoms: C17_17  and  C19_19 
REMARK   11  A    between atoms: C20_20  and  C21_21 
REMARK       I    between atoms: C20_20  and  N5_45 
REMARK   12  A    between atoms: C21_21  and  C22_22 
REMARK   13  A    between atoms: C22_22  and  C23_23 
REMARK   14  A    between atoms: C23_23  and  C24_24 
REMARK   15  A    between atoms: C24_24  and  N6_46 
REMARK       I    between atoms: C25_25  and  N6_46 
REMARK       I    between atoms: C25_25  and  N7_48 
REMARK       I    between atoms: C25_25  and  N8_49 
REMARK   16  A    between atoms: C26_26  and  C27_27 
REMARK   17  A    between atoms: C26_26  and  S1_73 
REMARK   18  A    between atoms: C27_27  and  N9_50 
REMARK       I    between atoms: C28_28  and  N9_50 
REMARK       I    between atoms: C28_28  and  N11_53 
REMARK   19  A    between atoms: C29_29  and  C30_30 
REMARK   20  A    between atoms: C29_29  and  S2_74 
REMARK   21  A    between atoms: C30_30  and  N12_54 
REMARK       I    between atoms: C31_31  and  N13_56 
REMARK       I    between atoms: C31_31  and  N14_57 
REMARK   22  A    between atoms: C32_32  and  C33_33 
REMARK       I    between atoms: C32_32  and  N15_58 
REMARK   23  A    between atoms: C33_33  and  C34_34 
REMARK   24  A    between atoms: C34_34  and  C35_35 
REMARK   25  A    between atoms: C35_35  and  C36_36 
REMARK   26  A    between atoms: C36_36  and  N16_59 
REMARK       I    between atoms: C37_37  and  N17_61 
REMARK       I    between atoms: C37_37  and  N18_62 
ROOT
HETATM    1  C8  UNL     1      -0.554  -2.248   1.317  1.00  0.00     0.104 A 
HETATM    2  C9  UNL     1       0.484  -1.834   2.116  1.00  0.00     0.070 A 
HETATM    3  C10 UNL     1       1.717  -2.298   1.731  1.00  0.00     0.104 A 
HETATM    4  C11 UNL     1       0.838  -3.439  -0.039  1.00  0.00     0.181 A 
HETATM    5  N2  UNL     1       1.927  -3.105   0.658  1.00  0.00    -0.348 N 
ATOM      6  H2  UNL     1       2.857  -3.435   0.401  1.00  0.00     0.167 HD
HETATM    7  N3  UNL     1      -0.414  -3.058   0.234  1.00  0.00    -0.348 N 
ATOM      8  H3  UNL     1      -1.210  -3.355  -0.331  1.00  0.00     0.167 HD
ENDROOT
BRANCH   1   9
HETATM    9  C7  UNL     1      -1.952  -1.814   1.631  1.00  0.00     0.272 C 
HETATM   10  N1  UNL     1      -2.874  -2.199   0.668  1.00  0.00    -0.320 N 
HETATM   11  H31 UNL     1      -2.541  -2.966   0.089  1.00  0.00     0.169 HD
HETATM   12  O1  UNL     1      -2.194  -1.250   2.690  1.00  0.00    -0.266 OA
BRANCH  10  13
HETATM   13  C6  UNL     1      -4.265  -1.980   0.761  1.00  0.00     0.055 A 
HETATM   14  C1  UNL     1      -5.073  -3.082   0.449  1.00  0.00     0.047 A 
HETATM   15  C2  UNL     1      -6.467  -3.009   0.554  1.00  0.00     0.052 A 
HETATM   16  C3  UNL     1      -7.054  -1.806   0.969  1.00  0.00     0.047 A 
HETATM   17  C4  UNL     1      -6.277  -0.670   1.224  1.00  0.00     0.054 A 
HETATM   18  C5  UNL     1      -4.866  -0.740   1.087  1.00  0.00     0.054 A 
BRANCH  15  19
HETATM   19  C38 UNL     1      -7.335  -4.211   0.272  1.00  0.00     0.417 C 
HETATM   20  F4  UNL     1      -7.868  -4.746   1.403  1.00  0.00    -0.166 F 
HETATM   21  F5  UNL     1      -6.663  -5.225  -0.343  1.00  0.00    -0.166 F 
HETATM   22  F6  UNL     1      -8.385  -3.916  -0.542  1.00  0.00    -0.166 F 
ENDBRANCH  15  19
BRANCH  17  23
HETATM   23  N15 UNL     1      -6.859   0.560   1.610  1.00  0.00    -0.326 N 
HETATM   24  C32 UNL     1      -8.179   0.954   1.472  1.00  0.00     0.222 C 
HETATM   25  O4  UNL     1      -9.087   0.271   1.008  1.00  0.00    -0.273 OA
HETATM   26  H46 UNL     1      -6.185   1.271   1.883  1.00  0.00     0.169 HD
BRANCH  24  27
HETATM   27  C33 UNL     1      -8.367   2.409   1.885  1.00  0.00     0.103 C 
BRANCH  27  28
HETATM   28  C34 UNL     1      -9.798   2.947   1.813  1.00  0.00     0.011 C 
BRANCH  28  29
HETATM   29  C35 UNL     1     -10.549   2.787   0.485  1.00  0.00     0.020 C 
BRANCH  29  30
HETATM   30  C36 UNL     1      -9.713   3.049  -0.767  1.00  0.00     0.121 C 
BRANCH  30  31
HETATM   31  N16 UNL     1     -10.479   2.731  -1.971  1.00  0.00    -0.372 N 
HETATM   32  C37 UNL     1     -10.580   1.513  -2.348  1.00  0.00     0.121 C 
HETATM   33  N17 UNL     1     -10.073   0.377  -1.811  1.00  0.00    -0.279 NA
HETATM   34  N18 UNL     1     -11.270   1.217  -3.470  1.00  0.00    -0.279 NA
HETATM   35  H47 UNL     1     -10.745  -0.383  -1.862  1.00  0.00     0.126 HD
HETATM   36  H48 UNL     1      -9.774   0.469  -0.836  1.00  0.00     0.126 HD
HETATM   37  H49 UNL     1     -11.520   2.071  -3.960  1.00  0.00     0.126 HD
HETATM   38  H50 UNL     1     -10.774   0.582  -4.083  1.00  0.00     0.126 HD
ATOM     39  H16 UNL     1     -10.929   3.474  -2.506  1.00  0.00     0.161 HD
ENDBRANCH  30  31
ENDBRANCH  29  30
ENDBRANCH  28  29
ENDBRANCH  27  28
ENDBRANCH  24  27
ENDBRANCH  17  23
BRANCH  18  40
HETATM   40  S2  UNL     1      -3.887   0.792   1.104  1.00  0.00    -0.124 SA
BRANCH  40  41
HETATM   41  C29 UNL     1      -4.512   1.651  -0.390  1.00  0.00     0.099 C 
BRANCH  41  42
HETATM   42  C30 UNL     1      -4.356   0.871  -1.698  1.00  0.00     0.132 C 
BRANCH  42  43
HETATM   43  N12 UNL     1      -5.113   1.543  -2.765  1.00  0.00    -0.371 N 
HETATM   44  C31 UNL     1      -6.384   1.386  -2.795  1.00  0.00     0.121 C 
HETATM   45  N13 UNL     1      -7.134   2.048  -3.702  1.00  0.00    -0.279 NA
HETATM   46  N14 UNL     1      -7.172   0.646  -1.990  1.00  0.00    -0.279 NA
HETATM   47  H42 UNL     1      -7.974   2.456  -3.301  1.00  0.00     0.126 HD
HETATM   48  H43 UNL     1      -6.578   2.755  -4.171  1.00  0.00     0.126 HD
HETATM   49  H44 UNL     1      -6.742  -0.154  -1.550  1.00  0.00     0.126 HD
HETATM   50  H45 UNL     1      -8.085   0.409  -2.377  1.00  0.00     0.126 HD
ATOM     51  H12 UNL     1      -4.639   2.118  -3.462  1.00  0.00     0.161 HD
ENDBRANCH  42  43
ENDBRANCH  41  42
ENDBRANCH  40  41
ENDBRANCH  18  40
ENDBRANCH  10  13
ENDBRANCH   1   9
BRANCH   3  52
HETATM   52  C12 UNL     1       2.936  -1.904   2.510  1.00  0.00     0.272 C 
HETATM   53  N4  UNL     1       4.109  -2.382   1.964  1.00  0.00    -0.320 N 
HETATM   54  H32 UNL     1       4.009  -2.778   1.029  1.00  0.00     0.169 HD
HETATM   55  O2  UNL     1       2.830  -1.182   3.495  1.00  0.00    -0.266 OA
BRANCH  53  56
HETATM   56  C13 UNL     1       5.429  -2.069   2.351  1.00  0.00     0.055 A 
HETATM   57  C14 UNL     1       6.465  -2.242   1.405  1.00  0.00     0.054 A 
HETATM   58  C15 UNL     1       7.791  -1.870   1.733  1.00  0.00     0.054 A 
HETATM   59  C16 UNL     1       8.062  -1.357   3.005  1.00  0.00     0.047 A 
HETATM   60  C17 UNL     1       7.044  -1.214   3.960  1.00  0.00     0.052 A 
HETATM   61  C18 UNL     1       5.730  -1.564   3.618  1.00  0.00     0.047 A 
BRANCH  57  62
HETATM   62  S1  UNL     1       6.074  -2.896  -0.246  1.00  0.00    -0.124 SA
BRANCH  62  63
HETATM   63  C26 UNL     1       6.158  -1.351  -1.235  1.00  0.00     0.099 C 
BRANCH  63  64
HETATM   64  C27 UNL     1       4.851  -0.566  -1.312  1.00  0.00     0.132 C 
BRANCH  64  65
HETATM   65  N9  UNL     1       4.421  -0.046  -0.018  1.00  0.00    -0.366 N 
HETATM   66  C28 UNL     1       4.973   0.994   0.481  1.00  0.00     0.143 C 
HETATM   67  N10 UNL     1       5.972   1.766   0.002  1.00  0.00    -0.376 N 
HETATM   68  N11 UNL     1       4.512   1.470   1.659  1.00  0.00    -0.274 NA
HETATM   69  H38 UNL     1       6.440   2.362   0.671  1.00  0.00     0.158 HD
HETATM   70  H39 UNL     1       6.645   1.355  -0.647  1.00  0.00     0.158 HD
HETATM   71  H40 UNL     1       5.223   1.703   2.338  1.00  0.00     0.127 HD
HETATM   72  H41 UNL     1       3.852   0.815   2.074  1.00  0.00     0.127 HD
ATOM     73  H9  UNL     1       3.674  -0.516   0.493  1.00  0.00     0.162 HD
ENDBRANCH  64  65
ENDBRANCH  63  64
ENDBRANCH  62  63
ENDBRANCH  57  62
BRANCH  58  74
HETATM   74  N5  UNL     1       8.785  -1.997   0.734  1.00  0.00    -0.326 N 
HETATM   75  C20 UNL     1      10.067  -1.488   0.740  1.00  0.00     0.222 C 
HETATM   76  O3  UNL     1      10.649  -0.980   1.692  1.00  0.00    -0.273 OA
HETATM   77  H33 UNL     1       8.458  -2.426  -0.125  1.00  0.00     0.169 HD
BRANCH  75  78
HETATM   78  C21 UNL     1      10.730  -1.563  -0.624  1.00  0.00     0.103 C 
BRANCH  78  79
HETATM   79  C22 UNL     1      10.058  -0.656  -1.660  1.00  0.00     0.011 C 
BRANCH  79  80
HETATM   80  C23 UNL     1      10.093   0.825  -1.264  1.00  0.00     0.020 C 
BRANCH  80  81
HETATM   81  C24 UNL     1       9.472   1.731  -2.327  1.00  0.00     0.121 C 
BRANCH  81  82
HETATM   82  N6  UNL     1       8.009   1.757  -2.180  1.00  0.00    -0.372 N 
HETATM   83  C25 UNL     1       7.375   2.527  -2.991  1.00  0.00     0.121 C 
HETATM   84  N7  UNL     1       6.037   2.700  -2.898  1.00  0.00    -0.279 NA
HETATM   85  N8  UNL     1       7.844   3.286  -4.009  1.00  0.00    -0.279 NA
HETATM   86  H34 UNL     1       5.759   3.664  -3.043  1.00  0.00     0.126 HD
HETATM   87  H35 UNL     1       5.664   2.386  -2.002  1.00  0.00     0.126 HD
HETATM   88  H36 UNL     1       7.207   3.312  -4.797  1.00  0.00     0.126 HD
HETATM   89  H37 UNL     1       8.782   3.065  -4.315  1.00  0.00     0.126 HD
ATOM     90  H6  UNL     1       7.526   1.198  -1.477  1.00  0.00     0.161 HD
ENDBRANCH  81  82
ENDBRANCH  80  81
ENDBRANCH  79  80
ENDBRANCH  78  79
ENDBRANCH  75  78
ENDBRANCH  58  74
BRANCH  60  91
HETATM   91  C19 UNL     1       7.346  -0.637   5.321  1.00  0.00     0.417 C 
HETATM   92  F1  UNL     1       6.542  -1.131   6.303  1.00  0.00    -0.166 F 
HETATM   93  F2  UNL     1       8.621  -0.871   5.736  1.00  0.00    -0.166 F 
HETATM   94  F3  UNL     1       7.183   0.715   5.348  1.00  0.00    -0.166 F 
ENDBRANCH  60  91
ENDBRANCH  53  56
ENDBRANCH   3  52
TORSDOF 26
