REMARK  13 active torsions:
REMARK  status: ('A' for Active; 'I' for Inactive)
REMARK    1  A    between atoms: C2_2  and  C3_3 
REMARK    2  A    between atoms: C3_3  and  C4_4 
REMARK    3  A    between atoms: C3_3  and  N10_42 
REMARK    4  A    between atoms: C4_4  and  N1_33 
REMARK    5  A    between atoms: C5_5  and  C6_6 
REMARK       I    between atoms: C5_5  and  N1_33 
REMARK    6  A    between atoms: C8_8  and  N3_35 
REMARK    7  A    between atoms: C11_11  and  C12_12 
REMARK       I    between atoms: C11_11  and  N3_35 
REMARK    8  A    between atoms: C14_14  and  N5_37 
REMARK    9  A    between atoms: C17_17  and  C18_18 
REMARK       I    between atoms: C17_17  and  N5_37 
REMARK   10  A    between atoms: C20_20  and  N7_39 
REMARK   11  A    between atoms: C23_23  and  C24_24 
REMARK       I    between atoms: C23_23  and  N7_39 
REMARK   12  A    between atoms: C26_26  and  N9_41 
REMARK   13  A    between atoms: C29_29  and  C30_30 
REMARK       I    between atoms: C29_29  and  N9_41 
REMARK       I    between atoms: C32_32  and  N11_44 
REMARK       I    between atoms: C32_32  and  N12_45 
ROOT
HETATM    1  C12 UNL     1      -1.401   0.326  -2.985  1.00  0.00     0.105 A 
HETATM    2  C13 UNL     1      -0.430   0.115  -2.008  1.00  0.00     0.066 A 
HETATM    3  C14 UNL     1       0.733  -0.416  -2.621  1.00  0.00     0.053 A 
HETATM    4  C15 UNL     1       0.457  -0.521  -3.960  1.00  0.00     0.120 A 
HETATM    5  C16 UNL     1      -1.435  -0.009  -5.489  1.00  0.00     0.156 C 
HETATM    6  N4  UNL     1      -0.815  -0.059  -4.180  1.00  0.00    -0.354 N 
ENDROOT
BRANCH   1   7
HETATM    7  C11 UNL     1      -2.758   0.860  -2.866  1.00  0.00     0.273 C 
HETATM    8  N3  UNL     1      -3.242   0.869  -1.570  1.00  0.00    -0.320 N 
HETATM    9  H32 UNL     1      -2.676   0.460  -0.843  1.00  0.00     0.169 HD
HETATM   10  O2  UNL     1      -3.394   1.236  -3.846  1.00  0.00    -0.266 OA
BRANCH   8  11
HETATM   11  C8  UNL     1      -4.473   1.348  -1.163  1.00  0.00     0.053 A 
HETATM   12  C7  UNL     1      -4.963   1.300   0.163  1.00  0.00     0.066 A 
HETATM   13  C6  UNL     1      -6.239   1.849   0.188  1.00  0.00     0.104 A 
HETATM   14  N2  UNL     1      -6.483   2.308  -1.090  1.00  0.00    -0.354 N 
HETATM   15  C9  UNL     1      -5.442   1.965  -1.917  1.00  0.00     0.120 A 
HETATM   16  C10 UNL     1      -7.606   3.118  -1.514  1.00  0.00     0.156 C 
BRANCH  13  17
HETATM   17  C5  UNL     1      -7.098   1.964   1.348  1.00  0.00     0.268 C 
HETATM   18  N1  UNL     1      -8.418   1.665   1.100  1.00  0.00    -0.354 N 
HETATM   19  H31 UNL     1      -8.647   1.239   0.214  1.00  0.00     0.162 HD
HETATM   20  O1  UNL     1      -6.675   2.245   2.463  1.00  0.00    -0.266 OA
BRANCH  18  21
HETATM   21  C4  UNL     1      -9.425   1.627   2.149  1.00  0.00     0.148 C 
BRANCH  21  22
HETATM   22  C3  UNL     1      -9.655   0.209   2.716  1.00  0.00     0.101 C 
BRANCH  22  23
HETATM   23  C2  UNL     1      -8.542  -0.284   3.660  1.00  0.00     0.022 C 
HETATM   24  C1  UNL     1      -8.358   0.533   4.933  1.00  0.00     0.007 C 
ENDBRANCH  22  23
BRANCH  22  25
HETATM   25  N10 UNL     1     -10.923   0.177   3.455  1.00  0.00    -0.365 N 
HETATM   26  C32 UNL     1     -12.029  -0.029   2.854  1.00  0.00     0.122 C 
HETATM   27  N11 UNL     1     -13.180  -0.020   3.558  1.00  0.00    -0.279 NA
HETATM   28  N12 UNL     1     -12.293  -0.259   1.549  1.00  0.00    -0.279 NA
HETATM   29  H36 UNL     1     -13.889   0.565   3.132  1.00  0.00     0.126 HD
HETATM   30  H37 UNL     1     -12.994   0.292   4.507  1.00  0.00     0.126 HD
HETATM   31  H38 UNL     1     -11.501  -0.584   1.012  1.00  0.00     0.126 HD
HETATM   32  H39 UNL     1     -13.077  -0.893   1.435  1.00  0.00     0.126 HD
ATOM     33  H10 UNL     1     -10.920   0.322   4.465  1.00  0.00     0.162 HD
ENDBRANCH  22  25
ENDBRANCH  21  22
ENDBRANCH  18  21
ENDBRANCH  13  17
ENDBRANCH   8  11
ENDBRANCH   1   7
BRANCH   3  34
HETATM   34  N5  UNL     1       1.898  -0.752  -1.958  1.00  0.00    -0.320 N 
HETATM   35  C17 UNL     1       3.066  -1.203  -2.547  1.00  0.00     0.273 C 
HETATM   36  O3  UNL     1       3.269  -1.301  -3.751  1.00  0.00    -0.266 OA
HETATM   37  H33 UNL     1       1.920  -0.567  -0.966  1.00  0.00     0.169 HD
BRANCH  35  38
HETATM   38  C18 UNL     1       4.096  -1.517  -1.572  1.00  0.00     0.105 A 
HETATM   39  C19 UNL     1       5.422  -1.110  -1.606  1.00  0.00     0.066 A 
HETATM   40  C20 UNL     1       6.079  -1.611  -0.456  1.00  0.00     0.053 A 
HETATM   41  C21 UNL     1       5.149  -2.348   0.237  1.00  0.00     0.120 A 
HETATM   42  N6  UNL     1       3.969  -2.328  -0.462  1.00  0.00    -0.354 N 
HETATM   43  C22 UNL     1       2.812  -3.122  -0.108  1.00  0.00     0.156 C 
BRANCH  40  44
HETATM   44  N7  UNL     1       7.404  -1.379  -0.139  1.00  0.00    -0.320 N 
HETATM   45  C23 UNL     1       8.077  -1.873   0.965  1.00  0.00     0.273 C 
HETATM   46  O4  UNL     1       7.576  -2.610   1.810  1.00  0.00    -0.266 OA
HETATM   47  H34 UNL     1       7.918  -0.820  -0.804  1.00  0.00     0.169 HD
BRANCH  45  48
HETATM   48  C24 UNL     1       9.476  -1.451   1.047  1.00  0.00     0.105 A 
HETATM   49  C25 UNL     1      10.157  -0.467   0.336  1.00  0.00     0.066 A 
HETATM   50  C26 UNL     1      11.501  -0.428   0.772  1.00  0.00     0.053 A 
HETATM   51  C27 UNL     1      11.627  -1.380   1.753  1.00  0.00     0.120 A 
HETATM   52  N8  UNL     1      10.407  -1.989   1.920  1.00  0.00    -0.354 N 
HETATM   53  C28 UNL     1      10.163  -3.055   2.871  1.00  0.00     0.156 C 
BRANCH  50  54
HETATM   54  N9  UNL     1      12.549   0.372   0.362  1.00  0.00    -0.321 N 
HETATM   55  C29 UNL     1      12.472   1.317  -0.645  1.00  0.00     0.262 C 
HETATM   56  O5  UNL     1      11.493   1.560  -1.343  1.00  0.00    -0.267 OA
HETATM   57  H35 UNL     1      13.437   0.211   0.818  1.00  0.00     0.169 HD
BRANCH  55  58
HETATM   58  C30 UNL     1      13.765   2.048  -0.863  1.00  0.00     0.069 C 
HETATM   59  C31 UNL     1      14.430   2.587   0.171  1.00  0.00     0.037 C 
HETATM   60 BR1  UNL     1      14.354   2.239  -2.624  1.00  0.00    -0.046 Br
ENDBRANCH  55  58
ENDBRANCH  50  54
ENDBRANCH  45  48
ENDBRANCH  40  44
ENDBRANCH  35  38
ENDBRANCH   3  34
TORSDOF 13
