REMARK  0 active torsions:
REMARK  status: ('A' for Active; 'I' for Inactive)
REMARK       I    between atoms: C3_3  and  C12_12 
REMARK       I    between atoms: C4_4  and  C6_6 
REMARK       I    between atoms: C5_5  and  N3_47 
REMARK       I    between atoms: C6_6  and  C7_7 
REMARK       I    between atoms: C6_6  and  N5_49 
REMARK       I    between atoms: C7_7  and  C8_8 
REMARK       I    between atoms: C8_8  and  N4_48 
REMARK       I    between atoms: C9_9  and  C10_10 
REMARK       I    between atoms: C9_9  and  N5_49 
REMARK       I    between atoms: C10_10  and  C11_11 
REMARK       I    between atoms: C10_10  and  N7_51 
REMARK       I    between atoms: C11_11  and  N6_50 
REMARK       I    between atoms: C12_12  and  N8_52 
REMARK       I    between atoms: C13_13  and  C14_14 
REMARK       I    between atoms: C13_13  and  C18_18 
REMARK       I    between atoms: C13_13  and  N8_52 
REMARK       I    between atoms: C14_14  and  C15_15 
REMARK       I    between atoms: C14_14  and  O4_67 
REMARK       I    between atoms: C18_18  and  N11_56 
REMARK       I    between atoms: C19_19  and  C21_21 
REMARK       I    between atoms: C19_19  and  N11_56 
REMARK       I    between atoms: C21_21  and  C22_22 
REMARK       I    between atoms: C21_21  and  O10_73 
REMARK       I    between atoms: C22_22  and  C24_24 
REMARK       I    between atoms: C24_24  and  N12_57 
REMARK       I    between atoms: C25_25  and  C26_26 
REMARK       I    between atoms: C25_25  and  C28_28 
REMARK       I    between atoms: C25_25  and  N12_57 
REMARK       I    between atoms: C26_26  and  O7_70 
REMARK       I    between atoms: C28_28  and  N13_58 
REMARK       I    between atoms: C29_29  and  C30_30 
REMARK       I    between atoms: C29_29  and  N13_58 
REMARK       I    between atoms: C30_30  and  C31_31 
REMARK       I    between atoms: C32_32  and  C34_34 
REMARK       I    between atoms: C35_35  and  C37_37 
REMARK       I    between atoms: C37_37  and  N16_63 
REMARK       I    between atoms: C38_38  and  C39_39 
REMARK       I    between atoms: C38_38  and  N16_63 
REMARK       I    between atoms: C39_39  and  C40_40 
REMARK       I    between atoms: C40_40  and  S3_76 
ROOT
HETATM    1  C1  UNL     1       0.359   0.704  -2.569  1.00  0.00     0.054 C 
HETATM    2  C2  UNL     1      -0.930   1.119  -3.203  1.00  0.00     0.009 A 
HETATM    3  C3  UNL     1      -2.152   1.027  -2.562  1.00  0.00     0.111 A 
HETATM    4  C4  UNL     1      -3.289   1.876  -4.367  1.00  0.00     0.117 A 
HETATM    5  C5  UNL     1      -0.999   1.670  -4.471  1.00  0.00     0.087 A 
HETATM    6  C6  UNL     1      -4.614   2.394  -4.937  1.00  0.00     0.296 C 
HETATM    7  C7  UNL     1      -4.998   1.688  -6.245  1.00  0.00     0.146 C 
HETATM    8  C8  UNL     1      -4.428   2.283  -7.514  1.00  0.00     0.217 C 
HETATM    9  C9  UNL     1      -4.340   4.574  -3.804  1.00  0.00     0.315 C 
HETATM   10  C10 UNL     1      -5.210   5.828  -3.562  1.00  0.00     0.336 C 
HETATM   11  C11 UNL     1      -4.721   6.992  -4.438  1.00  0.00     0.250 C 
HETATM   12  C12 UNL     1      -2.308   0.596  -1.124  1.00  0.00     0.269 C 
HETATM   13  C13 UNL     1      -4.033   0.457   0.683  1.00  0.00     0.211 C 
HETATM   14  C14 UNL     1      -5.526   0.854   0.878  1.00  0.00     0.201 C 
HETATM   15  C15 UNL     1      -5.898   2.130   0.192  1.00  0.00     0.057 A 
HETATM   16  C16 UNL     1      -6.434   2.403  -1.049  1.00  0.00     0.116 A 
HETATM   17  C17 UNL     1      -6.223   4.299  -0.094  1.00  0.00     0.180 A 
HETATM   18  C18 UNL     1      -3.818  -0.918   1.371  1.00  0.00     0.243 C 
HETATM   19  C19 UNL     1      -2.155  -2.761   1.757  1.00  0.00     0.110 C 
HETATM   20  C20 UNL     1      -3.035  -3.916   1.262  1.00  0.00     0.035 C 
HETATM   21  C21 UNL     1      -2.045  -2.734   3.313  1.00  0.00     0.153 C 
HETATM   22  C22 UNL     1      -1.027  -1.727   3.900  1.00  0.00     0.104 C 
HETATM   23  C23 UNL     1      -1.551  -0.291   3.933  1.00  0.00     0.022 C 
HETATM   24  C24 UNL     1       0.313  -1.798   3.174  1.00  0.00     0.224 C 
HETATM   25  C25 UNL     1       2.134  -3.338   2.496  1.00  0.00     0.205 C 
HETATM   26  C26 UNL     1       3.403  -2.656   3.056  1.00  0.00     0.146 C 
HETATM   27  C27 UNL     1       3.896  -3.260   4.370  1.00  0.00     0.042 C 
HETATM   28  C28 UNL     1       2.295  -4.876   2.424  1.00  0.00     0.243 C 
HETATM   29  C29 UNL     1       3.862  -6.681   1.851  1.00  0.00     0.129 C 
HETATM   30  C30 UNL     1       4.963  -7.050   0.855  1.00  0.00     0.084 C 
HETATM   31  C31 UNL     1       6.246  -6.302   1.090  1.00  0.00     0.052 A 
HETATM   32  C32 UNL     1       7.642  -4.655   1.611  1.00  0.00     0.073 A 
HETATM   33  C33 UNL     1       8.551  -5.543   1.073  1.00  0.00     0.083 A 
HETATM   34  C34 UNL     1       8.008  -3.203   2.132  1.00  0.00     0.102 A 
HETATM   35  C35 UNL     1       7.618  -1.159   2.937  1.00  0.00     0.108 A 
HETATM   36  C36 UNL     1       8.967  -1.039   2.657  1.00  0.00     0.087 A 
HETATM   37  C37 UNL     1       6.761  -0.101   3.481  1.00  0.00     0.268 C 
HETATM   38  C38 UNL     1       6.029   2.231   3.190  1.00  0.00     0.123 C 
HETATM   39  C39 UNL     1       4.683   2.059   2.475  1.00  0.00     0.029 C 
HETATM   40  C40 UNL     1       4.812   2.228   0.966  1.00  0.00     0.064 C 
HETATM   41  C41 UNL     1       3.245   0.090   0.246  1.00  0.00     0.078 C 
HETATM   42  C42 UNL     1       2.027   2.357   1.059  1.00  0.00     0.078 C 
HETATM   43  N1  UNL     1      -3.337   1.373  -3.127  1.00  0.00    -0.339 N 
ATOM     44  H1  UNL     1      -4.221   1.256  -2.631  1.00  0.00     0.167 HD
HETATM   45  N2  UNL     1      -2.150   2.033  -5.064  1.00  0.00    -0.335 N 
ATOM     46  H2  UNL     1      -2.159   2.414  -6.010  1.00  0.00     0.168 HD
HETATM   47  N3  UNL     1       0.139   1.857  -5.251  1.00  0.00    -0.288 NA
HETATM   48  N4  UNL     1      -3.080   2.202  -7.681  1.00  0.00    -0.370 N 
HETATM   49  N5  UNL     1      -4.730   3.866  -5.043  1.00  0.00     0.098 N 
HETATM   50  N6  UNL     1      -5.546   7.330  -5.475  1.00  0.00    -0.368 N 
HETATM   51  N7  UNL     1      -6.650   5.513  -3.826  1.00  0.00     0.093 N 
HETATM   52  N8  UNL     1      -3.624   0.440  -0.727  1.00  0.00    -0.340 N 
HETATM   53  N9  UNL     1      -6.603   3.754  -1.229  1.00  0.00    -0.360 N 
ATOM     54  H9  UNL     1      -6.948   4.231  -2.062  1.00  0.00     0.166 HD
HETATM   55  N10 UNL     1      -5.789   3.360   0.795  1.00  0.00    -0.352 N 
HETATM   56  N11 UNL     1      -2.590  -1.502   1.168  1.00  0.00    -0.352 N 
HETATM   57  N12 UNL     1       0.933  -3.021   3.265  1.00  0.00    -0.345 N 
HETATM   58  N13 UNL     1       3.401  -5.311   1.718  1.00  0.00    -0.359 N 
HETATM   59  N14 UNL     1       6.332  -5.110   1.640  1.00  0.00    -0.351 N 
ATOM     60  H14 UNL     1       5.545  -4.593   2.033  1.00  0.00     0.166 HD
HETATM   61  N15 UNL     1       7.087  -2.416   2.651  1.00  0.00    -0.344 N 
ATOM     62  H15 UNL     1       6.119  -2.689   2.820  1.00  0.00     0.167 HD
HETATM   63  N16 UNL     1       6.957   1.149   2.920  1.00  0.00    -0.356 N 
HETATM   64  O1  UNL     1      -5.136   2.755  -8.400  1.00  0.00    -0.274 OA
HETATM   65  O2  UNL     1      -3.667   7.590  -4.242  1.00  0.00    -0.271 OA
HETATM   66  O3  UNL     1      -1.373   0.422  -0.355  1.00  0.00    -0.266 OA
HETATM   67  O4  UNL     1      -5.810   1.092   2.261  1.00  0.00    -0.387 OA
HETATM   68  O5  UNL     1      -4.646  -1.391   2.152  1.00  0.00    -0.271 OA
HETATM   69  O6  UNL     1       0.800  -0.850   2.567  1.00  0.00    -0.273 OA
HETATM   70  O7  UNL     1       4.427  -2.735   2.057  1.00  0.00    -0.393 OA
HETATM   71  O8  UNL     1       1.484  -5.649   2.934  1.00  0.00    -0.271 OA
HETATM   72  O9  UNL     1       5.899  -0.327   4.323  1.00  0.00    -0.266 OA
HETATM   73  O10 UNL     1      -1.663  -4.033   3.805  1.00  0.00    -0.393 OA
HETATM   74  S1  UNL     1       7.743  -6.970   0.566  1.00  0.00    -0.086 SA
HETATM   75  S2  UNL     1       9.579  -2.516   2.035  1.00  0.00    -0.080 SA
HETATM   76  S3  UNL     1       3.355   1.869  -0.059  1.00  0.00    -0.228 SA
HETATM   77  H46 UNL     1       0.865   2.366  -4.757  1.00  0.00     0.125 HD
HETATM   78  H47 UNL     1      -0.122   2.331  -6.111  1.00  0.00     0.125 HD
HETATM   79  H48 UNL     1      -2.490   2.170  -6.851  1.00  0.00     0.159 HD
HETATM   80  H49 UNL     1      -2.715   2.718  -8.470  1.00  0.00     0.159 HD
HETATM   81  H50 UNL     1      -5.717   4.098  -5.209  1.00  0.00     0.317 HD
HETATM   82  H51 UNL     1      -6.222   6.629  -5.763  1.00  0.00     0.159 HD
HETATM   83  H52 UNL     1      -5.174   7.958  -6.173  1.00  0.00     0.159 HD
HETATM   84  H53 UNL     1      -7.189   6.347  -3.584  1.00  0.00     0.314 HD
HETATM   85  H54 UNL     1      -6.920   4.822  -3.110  1.00  0.00     0.314 HD
HETATM   86  H55 UNL     1      -4.286   0.776  -1.423  1.00  0.00     0.163 HD
HETATM   87  H56 UNL     1      -5.496   3.516   1.751  1.00  0.00     0.166 HD
HETATM   88  H57 UNL     1      -1.882  -0.940   0.685  1.00  0.00     0.163 HD
HETATM   89  H58 UNL     1       0.377  -3.815   3.597  1.00  0.00     0.163 HD
HETATM   90  H59 UNL     1       4.135  -4.602   1.599  1.00  0.00     0.162 HD
HETATM   91  H60 UNL     1       7.532   1.213   2.090  1.00  0.00     0.162 HD
HETATM   92  H61 UNL     1      -5.748   0.211   2.690  1.00  0.00     0.210 HD
HETATM   93  H62 UNL     1       5.290  -2.558   2.493  1.00  0.00     0.210 HD
HETATM   94  H63 UNL     1      -2.447  -4.610   3.748  1.00  0.00     0.210 HD
ENDROOT
TORSDOF 33
