REMARK  0 active torsions:
REMARK  status: ('A' for Active; 'I' for Inactive)
REMARK       I    between atoms: C1_1  and  C2_2 
REMARK       I    between atoms: C1_1  and  C15_15 
REMARK       I    between atoms: C2_2  and  C3_3 
REMARK       I    between atoms: C3_3  and  N1_29 
REMARK       I    between atoms: C4_4  and  C5_5 
REMARK       I    between atoms: C4_4  and  N1_29 
REMARK       I    between atoms: C5_5  and  C6_6 
REMARK       I    between atoms: C6_6  and  C7_7 
REMARK       I    between atoms: C7_7  and  C8_8 
REMARK       I    between atoms: C8_8  and  O2_32 
REMARK       I    between atoms: C9_9  and  C10_10 
REMARK       I    between atoms: C9_9  and  O2_32 
REMARK       I    between atoms: C9_9  and  O7_37 
REMARK       I    between atoms: C10_10  and  C11_11 
REMARK       I    between atoms: C10_10  and  O6_36 
REMARK       I    between atoms: C11_11  and  C12_12 
REMARK       I    between atoms: C11_11  and  O5_35 
REMARK       I    between atoms: C12_12  and  C13_13 
REMARK       I    between atoms: C12_12  and  O4_34 
REMARK       I    between atoms: C13_13  and  C14_14 
REMARK       I    between atoms: C14_14  and  O3_33 
REMARK       I    between atoms: C15_15  and  C16_16 
REMARK       I    between atoms: C16_16  and  C17_17 
REMARK       I    between atoms: C16_16  and  N2_30 
REMARK       I    between atoms: C18_18  and  C19_19 
REMARK       I    between atoms: C18_18  and  N2_30 
REMARK       I    between atoms: C19_19  and  C20_20 
REMARK       I    between atoms: C20_20  and  C21_21 
REMARK       I    between atoms: C21_21  and  C22_22 
REMARK       I    between atoms: C22_22  and  O10_40 
REMARK       I    between atoms: C23_23  and  C24_24 
REMARK       I    between atoms: C23_23  and  O10_40 
REMARK       I    between atoms: C23_23  and  O15_45 
REMARK       I    between atoms: C24_24  and  C25_25 
REMARK       I    between atoms: C24_24  and  O14_44 
REMARK       I    between atoms: C25_25  and  C26_26 
REMARK       I    between atoms: C25_25  and  O13_43 
REMARK       I    between atoms: C26_26  and  C27_27 
REMARK       I    between atoms: C26_26  and  O12_42 
REMARK       I    between atoms: C27_27  and  C28_28 
REMARK       I    between atoms: C28_28  and  O11_41 
ROOT
HETATM    1  C1  UNL     1       0.287   1.391   2.046  1.00  0.00     0.004 C 
HETATM    2  C2  UNL     1       1.754   1.681   1.712  1.00  0.00     0.020 C 
HETATM    3  C3  UNL     1       1.933   2.688   0.578  1.00  0.00     0.122 C 
HETATM    4  C4  UNL     1       3.907   1.933  -0.702  1.00  0.00     0.217 C 
HETATM    5  C5  UNL     1       5.383   2.211  -0.913  1.00  0.00     0.103 C 
HETATM    6  C6  UNL     1       6.076   1.221  -1.849  1.00  0.00     0.011 C 
HETATM    7  C7  UNL     1       6.177  -0.221  -1.334  1.00  0.00     0.027 C 
HETATM    8  C8  UNL     1       6.824  -0.376   0.040  1.00  0.00     0.171 C 
HETATM    9  C9  UNL     1       8.802   0.096   1.265  1.00  0.00     0.287 C 
HETATM   10  C10 UNL     1       9.616  -1.225   1.253  1.00  0.00     0.204 C 
HETATM   11  C11 UNL     1      10.240  -1.497   2.627  1.00  0.00     0.180 C 
HETATM   12  C12 UNL     1      11.180  -2.724   2.690  1.00  0.00     0.151 C 
HETATM   13  C13 UNL     1      10.525  -4.064   2.310  1.00  0.00     0.060 C 
HETATM   14  C14 UNL     1      10.811  -4.482   0.874  1.00  0.00     0.166 C 
HETATM   15  C15 UNL     1      -0.478   2.627   2.538  1.00  0.00     0.032 C 
HETATM   16  C16 UNL     1      -1.879   2.329   3.089  1.00  0.00     0.145 C 
HETATM   17  C17 UNL     1      -1.846   1.471   4.352  1.00  0.00     0.256 C 
HETATM   18  C18 UNL     1      -4.121   1.862   2.148  1.00  0.00     0.218 C 
HETATM   19  C19 UNL     1      -4.845   1.132   1.033  1.00  0.00     0.103 C 
HETATM   20  C20 UNL     1      -6.363   1.256   1.156  1.00  0.00     0.011 C 
HETATM   21  C21 UNL     1      -7.121   0.447   0.104  1.00  0.00     0.027 C 
HETATM   22  C22 UNL     1      -6.947   0.975  -1.316  1.00  0.00     0.171 C 
HETATM   23  C23 UNL     1      -7.705   0.614  -3.530  1.00  0.00     0.287 C 
HETATM   24  C24 UNL     1      -8.675  -0.186  -4.424  1.00  0.00     0.204 C 
HETATM   25  C25 UNL     1     -10.172  -0.127  -4.048  1.00  0.00     0.180 C 
HETATM   26  C26 UNL     1     -10.539  -0.737  -2.667  1.00  0.00     0.151 C 
HETATM   27  C27 UNL     1     -12.017  -0.610  -2.255  1.00  0.00     0.060 C 
HETATM   28  C28 UNL     1     -13.003  -1.507  -2.991  1.00  0.00     0.166 C 
HETATM   29  N1  UNL     1       3.324   2.808   0.192  1.00  0.00    -0.361 N 
HETATM   30  N2  UNL     1      -2.751   1.720   2.087  1.00  0.00    -0.350 N 
HETATM   31  O1  UNL     1       3.289   1.037  -1.263  1.00  0.00    -0.274 OA
HETATM   32  O2  UNL     1       8.091   0.276   0.043  1.00  0.00    -0.359 OA
HETATM   33  O3  UNL     1      12.203  -4.731   0.728  1.00  0.00    -0.401 OA
HETATM   34  O4  UNL     1      11.584  -2.823   4.076  1.00  0.00    -0.393 OA
HETATM   35  O5  UNL     1       9.198  -1.666   3.607  1.00  0.00    -0.390 OA
HETATM   36  O6  UNL     1      10.649  -1.147   0.254  1.00  0.00    -0.388 OA
HETATM   37  O7  UNL     1       9.734   1.176   1.330  1.00  0.00    -0.369 OA
HETATM   38  O8  UNL     1      -0.940   1.506   5.182  1.00  0.00    -0.305 OA
HETATM   39  O9  UNL     1      -4.682   2.513   3.022  1.00  0.00    -0.274 OA
HETATM   40  O10 UNL     1      -7.739   0.164  -2.184  1.00  0.00    -0.359 OA
HETATM   41  O11 UNL     1     -13.276  -0.967  -4.283  1.00  0.00    -0.401 OA
HETATM   42  O12 UNL     1     -10.158  -2.111  -2.570  1.00  0.00    -0.393 OA
HETATM   43  O13 UNL     1     -10.820  -0.845  -5.116  1.00  0.00    -0.390 OA
HETATM   44  O14 UNL     1      -8.251  -1.571  -4.484  1.00  0.00    -0.388 OA
HETATM   45  O15 UNL     1      -6.386   0.442  -4.040  1.00  0.00    -0.369 OA
HETATM   46  H43 UNL     1       3.906   3.476   0.682  1.00  0.00     0.162 HD
HETATM   47  H44 UNL     1      -2.372   1.011   1.472  1.00  0.00     0.163 HD
HETATM   48  H45 UNL     1      12.365  -4.873  -0.221  1.00  0.00     0.209 HD
HETATM   49  H46 UNL     1      12.314  -3.471   4.094  1.00  0.00     0.210 HD
HETATM   50  H47 UNL     1       9.675  -2.010   4.393  1.00  0.00     0.210 HD
HETATM   51  H48 UNL     1      10.800  -0.186   0.128  1.00  0.00     0.210 HD
HETATM   52  H49 UNL     1       9.180   1.968   1.432  1.00  0.00     0.212 HD
HETATM   53  H50 UNL     1     -13.994  -1.513  -4.657  1.00  0.00     0.209 HD
HETATM   54  H51 UNL     1      -9.214  -2.155  -2.829  1.00  0.00     0.210 HD
HETATM   55  H52 UNL     1     -11.786  -0.797  -4.945  1.00  0.00     0.210 HD
HETATM   56  H53 UNL     1      -8.958  -2.003  -5.013  1.00  0.00     0.210 HD
HETATM   57  H54 UNL     1      -6.357  -0.505  -4.283  1.00  0.00     0.212 HD
ENDROOT
TORSDOF 39
