REMARK  25 active torsions:
REMARK  status: ('A' for Active; 'I' for Inactive)
REMARK    1  A    between atoms: C4_4  and  C5_5 
REMARK       I    between atoms: C5_5  and  N3_59 
REMARK    2  A    between atoms: C6_6  and  N3_59 
REMARK    3  A    between atoms: C8_8  and  C9_9 
REMARK       I    between atoms: C9_9  and  N6_63 
REMARK    4  A    between atoms: C10_10  and  N6_63 
REMARK    5  A    between atoms: C12_12  and  C13_13 
REMARK       I    between atoms: C13_13  and  N9_67 
REMARK    6  A    between atoms: C14_14  and  N9_67 
REMARK    7  A    between atoms: C16_16  and  C17_17 
REMARK       I    between atoms: C17_17  and  N12_71 
REMARK    8  A    between atoms: C18_18  and  C19_19 
REMARK    9  A    between atoms: C18_18  and  N12_71 
REMARK   10  A    between atoms: C19_19  and  C20_20 
REMARK   11  A    between atoms: C20_20  and  C21_21 
REMARK       I    between atoms: C21_21  and  N13_72 
REMARK   12  A    between atoms: C22_22  and  N13_72 
REMARK   13  A    between atoms: C24_24  and  C26_26 
REMARK       I    between atoms: C26_26  and  N15_74 
REMARK   14  A    between atoms: C27_27  and  N15_74 
REMARK   15  A    between atoms: C29_29  and  C31_31 
REMARK       I    between atoms: C31_31  and  N17_76 
REMARK   16  A    between atoms: C32_32  and  N17_76 
REMARK   17  A    between atoms: C34_34  and  C36_36 
REMARK       I    between atoms: C36_36  and  N19_78 
REMARK   18  A    between atoms: C37_37  and  N19_78 
REMARK   19  A    between atoms: C39_39  and  C41_41 
REMARK       I    between atoms: C41_41  and  N21_80 
REMARK   20  A    between atoms: C42_42  and  C43_43 
REMARK   21  A    between atoms: C42_42  and  N21_80 
REMARK   22  A    between atoms: C43_43  and  C44_44 
REMARK       I    between atoms: C44_44  and  N22_81 
REMARK   23  A    between atoms: C45_45  and  C46_46 
REMARK   24  A    between atoms: C45_45  and  N22_81 
REMARK   25  A    between atoms: C46_46  and  N23_82 
ROOT
HETATM    1  C22 UNL     1       5.639  -3.149   3.074  1.00  0.00     0.052 A 
HETATM    2  C23 UNL     1       5.979  -2.175   2.172  1.00  0.00     0.120 A 
HETATM    3  C24 UNL     1       3.819  -1.804   2.734  1.00  0.00     0.105 A 
HETATM    4  C25 UNL     1       4.294  -2.902   3.448  1.00  0.00     0.066 A 
HETATM    5  C52 UNL     1       4.876  -0.264   1.030  1.00  0.00     0.156 C 
HETATM    6  N14 UNL     1       4.888  -1.371   1.965  1.00  0.00    -0.354 N 
ENDROOT
BRANCH   1   7
HETATM    7  N13 UNL     1       6.409  -4.201   3.529  1.00  0.00    -0.326 N 
HETATM    8  C21 UNL     1       7.691  -4.498   3.103  1.00  0.00     0.222 C 
HETATM    9  O5  UNL     1       8.407  -3.816   2.376  1.00  0.00    -0.273 OA
HETATM   10  H62 UNL     1       5.951  -4.845   4.160  1.00  0.00     0.169 HD
BRANCH   8  11
HETATM   11  C20 UNL     1       8.185  -5.836   3.620  1.00  0.00     0.105 C 
BRANCH  11  12
HETATM   12  C19 UNL     1       7.383  -7.027   3.094  1.00  0.00     0.029 C 
BRANCH  12  13
HETATM   13  C18 UNL     1       7.483  -7.224   1.578  1.00  0.00     0.123 C 
BRANCH  13  14
HETATM   14  N12 UNL     1       6.843  -6.187   0.807  1.00  0.00    -0.354 N 
HETATM   15  C17 UNL     1       5.478  -6.028   0.709  1.00  0.00     0.285 C 
HETATM   16  O4  UNL     1       4.685  -6.757   1.302  1.00  0.00    -0.264 OA
HETATM   17  H61 UNL     1       7.400  -5.464   0.350  1.00  0.00     0.162 HD
BRANCH  15  18
HETATM   18  C16 UNL     1       5.091  -4.907  -0.135  1.00  0.00     0.178 A 
HETATM   19  N10 UNL     1       3.817  -4.427  -0.332  1.00  0.00    -0.339 N 
HETATM   20  C15 UNL     1       3.897  -3.348  -1.166  1.00  0.00     0.140 A 
HETATM   21  C53 UNL     1       2.606  -4.946   0.253  1.00  0.00     0.157 C 
HETATM   22  C14 UNL     1       5.232  -3.213  -1.448  1.00  0.00     0.125 A 
HETATM   23  N11 UNL     1       5.963  -4.184  -0.825  1.00  0.00    -0.323 N 
ATOM     24  H11 UNL     1       6.972  -4.324  -0.879  1.00  0.00     0.169 HD
BRANCH  22  25
HETATM   25  N9  UNL     1       5.878  -2.288  -2.217  1.00  0.00    -0.305 N 
HETATM   26  C13 UNL     1       5.297  -1.238  -2.890  1.00  0.00     0.291 C 
HETATM   27  O3  UNL     1       4.097  -0.973  -2.892  1.00  0.00    -0.264 OA
HETATM   28  H60 UNL     1       6.885  -2.386  -2.284  1.00  0.00     0.170 HD
BRANCH  26  29
HETATM   29  C12 UNL     1       6.283  -0.446  -3.614  1.00  0.00     0.178 A 
HETATM   30  N7  UNL     1       6.039   0.651  -4.408  1.00  0.00    -0.339 N 
HETATM   31  C11 UNL     1       7.237   1.093  -4.896  1.00  0.00     0.140 A 
HETATM   32  C54 UNL     1       4.751   1.238  -4.688  1.00  0.00     0.157 C 
HETATM   33  C10 UNL     1       8.174   0.240  -4.371  1.00  0.00     0.125 A 
HETATM   34  N8  UNL     1       7.583  -0.707  -3.583  1.00  0.00    -0.323 N 
ATOM     35  H8  UNL     1       8.047  -1.460  -3.075  1.00  0.00     0.169 HD
BRANCH  33  36
HETATM   36  N6  UNL     1       9.530   0.225  -4.528  1.00  0.00    -0.305 N 
HETATM   37  C9  UNL     1      10.276   1.097  -5.286  1.00  0.00     0.291 C 
HETATM   38  O2  UNL     1       9.830   2.029  -5.951  1.00  0.00    -0.264 OA
HETATM   39  H59 UNL     1      10.036  -0.504  -4.030  1.00  0.00     0.170 HD
BRANCH  37  40
HETATM   40  C8  UNL     1      11.698   0.787  -5.212  1.00  0.00     0.178 A 
HETATM   41  N4  UNL     1      12.730   1.442  -5.842  1.00  0.00    -0.339 N 
HETATM   42  C7  UNL     1      13.899   0.822  -5.490  1.00  0.00     0.140 A 
HETATM   43  C55 UNL     1      12.610   2.582  -6.717  1.00  0.00     0.157 C 
HETATM   44  C6  UNL     1      13.522  -0.198  -4.650  1.00  0.00     0.125 A 
HETATM   45  N5  UNL     1      12.171  -0.215  -4.487  1.00  0.00    -0.323 N 
ATOM     46  H5  UNL     1      11.631  -0.869  -3.920  1.00  0.00     0.169 HD
BRANCH  44  47
HETATM   47  N3  UNL     1      14.379  -1.076  -4.050  1.00  0.00    -0.305 N 
HETATM   48  C5  UNL     1      14.009  -2.095  -3.200  1.00  0.00     0.291 C 
HETATM   49  O1  UNL     1      12.865  -2.385  -2.864  1.00  0.00    -0.264 OA
HETATM   50  H58 UNL     1      15.374  -0.982  -4.222  1.00  0.00     0.170 HD
BRANCH  48  51
HETATM   51  C4  UNL     1      15.179  -2.826  -2.720  1.00  0.00     0.176 A 
HETATM   52  N1  UNL     1      15.187  -3.885  -1.842  1.00  0.00    -0.342 N 
HETATM   53  C1  UNL     1      14.033  -4.482  -1.214  1.00  0.00     0.157 C 
HETATM   54  C2  UNL     1      16.486  -4.273  -1.660  1.00  0.00     0.109 A 
HETATM   55  C3  UNL     1      17.228  -3.423  -2.443  1.00  0.00     0.107 A 
HETATM   56  N2  UNL     1      16.418  -2.530  -3.096  1.00  0.00    -0.346 N 
ATOM     57  H2  UNL     1      16.707  -1.792  -3.737  1.00  0.00     0.167 HD
ENDBRANCH  48  51
ENDBRANCH  44  47
ENDBRANCH  37  40
ENDBRANCH  33  36
ENDBRANCH  26  29
ENDBRANCH  22  25
ENDBRANCH  15  18
ENDBRANCH  13  14
ENDBRANCH  12  13
ENDBRANCH  11  12
ENDBRANCH   8  11
ENDBRANCH   1   7
BRANCH   3  58
HETATM   58  C26 UNL     1       2.499  -1.177   2.736  1.00  0.00     0.273 C 
HETATM   59  N15 UNL     1       1.514  -1.944   3.333  1.00  0.00    -0.320 N 
HETATM   60  H63 UNL     1       1.760  -2.848   3.702  1.00  0.00     0.169 HD
HETATM   61  O6  UNL     1       2.298  -0.075   2.232  1.00  0.00    -0.266 OA
BRANCH  59  62
HETATM   62  C27 UNL     1       0.184  -1.588   3.448  1.00  0.00     0.053 A 
HETATM   63  C28 UNL     1      -0.754  -2.396   4.043  1.00  0.00     0.120 A 
HETATM   64  N16 UNL     1      -1.968  -1.757   3.991  1.00  0.00    -0.354 N 
HETATM   65  C29 UNL     1      -1.839  -0.526   3.369  1.00  0.00     0.105 A 
HETATM   66  C51 UNL     1      -3.193  -2.313   4.531  1.00  0.00     0.156 C 
HETATM   67  C30 UNL     1      -0.494  -0.422   3.024  1.00  0.00     0.066 A 
BRANCH  65  68
HETATM   68  C31 UNL     1      -2.942   0.411   3.149  1.00  0.00     0.273 C 
HETATM   69  N17 UNL     1      -2.551   1.646   2.667  1.00  0.00    -0.320 N 
HETATM   70  H64 UNL     1      -1.568   1.824   2.526  1.00  0.00     0.169 HD
HETATM   71  O7  UNL     1      -4.108   0.105   3.388  1.00  0.00    -0.266 OA
BRANCH  69  72
HETATM   72  C32 UNL     1      -3.399   2.697   2.373  1.00  0.00     0.053 A 
HETATM   73  C33 UNL     1      -2.947   3.907   1.906  1.00  0.00     0.120 A 
HETATM   74  N18 UNL     1      -4.030   4.729   1.717  1.00  0.00    -0.354 N 
HETATM   75  C34 UNL     1      -5.202   4.067   2.050  1.00  0.00     0.105 A 
HETATM   76  C50 UNL     1      -3.931   6.090   1.231  1.00  0.00     0.156 C 
HETATM   77  C35 UNL     1      -4.806   2.797   2.465  1.00  0.00     0.066 A 
BRANCH  75  78
HETATM   78  C36 UNL     1      -6.539   4.657   1.961  1.00  0.00     0.273 C 
HETATM   79  N19 UNL     1      -7.568   3.782   2.259  1.00  0.00    -0.320 N 
HETATM   80  H65 UNL     1      -7.340   2.827   2.485  1.00  0.00     0.169 HD
HETATM   81  O8  UNL     1      -6.706   5.830   1.638  1.00  0.00    -0.266 OA
BRANCH  79  82
HETATM   82  C37 UNL     1      -8.913   4.096   2.258  1.00  0.00     0.053 A 
HETATM   83  C38 UNL     1      -9.889   3.170   2.546  1.00  0.00     0.120 A 
HETATM   84  N20 UNL     1     -11.111   3.794   2.479  1.00  0.00    -0.354 N 
HETATM   85  C39 UNL     1     -10.948   5.110   2.094  1.00  0.00     0.104 A 
HETATM   86  C49 UNL     1     -12.354   3.150   2.852  1.00  0.00     0.156 C 
HETATM   87  C40 UNL     1      -9.577   5.315   1.998  1.00  0.00     0.066 A 
BRANCH  85  88
HETATM   88  C41 UNL     1     -11.975   6.112   1.874  1.00  0.00     0.268 C 
HETATM   89  N21 UNL     1     -13.134   5.630   1.305  1.00  0.00    -0.355 N 
HETATM   90  H66 UNL     1     -13.042   4.759   0.789  1.00  0.00     0.162 HD
HETATM   91  O9  UNL     1     -11.819   7.302   2.127  1.00  0.00    -0.266 OA
BRANCH  89  92
HETATM   92  C42 UNL     1     -14.152   6.528   0.795  1.00  0.00     0.132 C 
BRANCH  92  93
HETATM   93  C43 UNL     1     -15.539   5.899   0.801  1.00  0.00     0.122 C 
BRANCH  93  94
HETATM   94  C44 UNL     1     -15.628   4.672  -0.085  1.00  0.00     0.219 C 
HETATM   95  N22 UNL     1     -16.926   4.272  -0.331  1.00  0.00    -0.359 N 
HETATM   96  H67 UNL     1     -17.666   4.942  -0.162  1.00  0.00     0.162 HD
HETATM   97  O10 UNL     1     -14.645   4.062  -0.493  1.00  0.00    -0.274 OA
BRANCH  95  98
HETATM   98  C45 UNL     1     -17.202   3.177  -1.249  1.00  0.00     0.152 C 
BRANCH  98  99
HETATM   99  C46 UNL     1     -18.628   2.625  -1.067  1.00  0.00     0.290 C 
BRANCH  99 100
HETATM  100  N23 UNL     1     -19.051   1.526  -1.948  1.00  0.00     0.081 N 
HETATM  101  C47 UNL     1     -19.067   1.906  -3.358  1.00  0.00     0.309 C 
HETATM  102  C48 UNL     1     -18.264   0.311  -1.745  1.00  0.00     0.309 C 
ENDBRANCH  99 100
ENDBRANCH  98  99
ENDBRANCH  95  98
ENDBRANCH  93  94
ENDBRANCH  92  93
ENDBRANCH  89  92
ENDBRANCH  85  88
ENDBRANCH  79  82
ENDBRANCH  75  78
ENDBRANCH  69  72
ENDBRANCH  65  68
ENDBRANCH  59  62
ENDBRANCH   3  58
TORSDOF 25
