REMARK  21 active torsions:
REMARK  status: ('A' for Active; 'I' for Inactive)
REMARK    1  A    between atoms: C2_2  and  C46_46 
REMARK    2  A    between atoms: C7_7  and  C8_8 
REMARK    3  A    between atoms: C7_7  and  C37_37 
REMARK    4  A    between atoms: C7_7  and  O1_47 
REMARK    5  A    between atoms: C8_8  and  N1_55 
REMARK    6  A    between atoms: C9_9  and  C10_10 
REMARK    7  A    between atoms: C9_9  and  N1_55 
REMARK    8  A    between atoms: C13_13  and  N2_56 
REMARK    9  A    between atoms: C15_15  and  O2_48 
REMARK   10  A    between atoms: C17_17  and  C18_18 
REMARK       I    between atoms: C17_17  and  N2_56 
REMARK   11  A    between atoms: C18_18  and  C19_19 
REMARK   12  A    between atoms: C19_19  and  N3_57 
REMARK   13  A    between atoms: C21_21  and  N3_57 
REMARK   14  A    between atoms: C24_24  and  O4_50 
REMARK   15  A    between atoms: C27_27  and  C28_28 
REMARK   16  A    between atoms: C27_27  and  O4_50 
REMARK   17  A    between atoms: C28_28  and  C29_29 
REMARK   18  A    between atoms: C28_28  and  C33_33 
REMARK   19  A    between atoms: C28_28  and  O6_52 
REMARK   20  A    between atoms: C43_43  and  O8_54 
REMARK   21  A    between atoms: C46_46  and  O1_47 
ROOT
HETATM    1  C10 UNL     1      -3.363   1.196  -2.208  1.00  0.00     0.005 A 
HETATM    2  C11 UNL     1      -2.542   0.733  -1.168  1.00  0.00     0.038 A 
HETATM    3  C12 UNL     1      -1.175   1.042  -1.127  1.00  0.00     0.061 A 
HETATM    4  C13 UNL     1      -0.591   1.801  -2.156  1.00  0.00     0.059 A 
HETATM    5  C14 UNL     1      -1.420   2.318  -3.160  1.00  0.00     0.068 A 
HETATM    6  C15 UNL     1      -2.788   2.025  -3.177  1.00  0.00     0.078 A 
HETATM    7 CL1  UNL     1      -0.340   0.596   0.323  1.00  0.00    -0.082 Cl
ENDROOT
BRANCH   4   8
HETATM    8  N2  UNL     1       0.782   2.133  -2.248  1.00  0.00    -0.326 N 
HETATM    9  C17 UNL     1       1.820   1.245  -1.995  1.00  0.00     0.223 C 
HETATM   10  O3  UNL     1       1.690   0.044  -1.790  1.00  0.00    -0.273 OA
HETATM   11  H56 UNL     1       1.021   2.900  -2.864  1.00  0.00     0.169 HD
BRANCH   9  12
HETATM   12  C18 UNL     1       3.177   1.915  -2.125  1.00  0.00     0.133 C 
BRANCH  12  13
HETATM   13  C19 UNL     1       4.312   1.131  -1.454  1.00  0.00     0.281 C 
BRANCH  13  14
HETATM   14  N3  UNL     1       4.638   1.634  -0.101  1.00  0.00     0.089 N 
HETATM   15  C20 UNL     1       3.561   1.313   0.846  1.00  0.00     0.310 C 
BRANCH  14  16
HETATM   16  C21 UNL     1       5.946   1.176   0.420  1.00  0.00     0.222 C 
HETATM   17  C22 UNL     1       7.099   1.952  -0.251  1.00  0.00     0.038 C 
HETATM   18  C23 UNL     1       8.452   1.570   0.347  1.00  0.00     0.035 C 
HETATM   19  C24 UNL     1       8.698   0.062   0.270  1.00  0.00     0.132 C 
HETATM   20  C25 UNL     1       7.559  -0.707   0.941  1.00  0.00     0.035 C 
HETATM   21  C26 UNL     1       6.200  -0.343   0.346  1.00  0.00     0.038 C 
BRANCH  19  22
HETATM   22  O4  UNL     1       9.909  -0.270   0.972  1.00  0.00    -0.313 OA
BRANCH  22  23
HETATM   23  C27 UNL     1      11.074  -0.159   0.272  1.00  0.00     0.305 C 
HETATM   24  O5  UNL     1      11.145   0.270  -0.879  1.00  0.00    -0.261 OA
BRANCH  23  25
HETATM   25  C28 UNL     1      12.324  -0.574   1.094  1.00  0.00     0.213 C 
BRANCH  25  26
HETATM   26  C29 UNL     1      12.762   0.551   2.026  1.00  0.00     0.032 A 
HETATM   27  C30 UNL     1      12.096   1.711   2.395  1.00  0.00     0.019 A 
HETATM   28  C31 UNL     1      12.843   2.520   3.300  1.00  0.00     0.008 A 
HETATM   29  C32 UNL     1      14.062   1.962   3.604  1.00  0.00     0.050 A 
HETATM   30  S1  UNL     1      14.304   0.474   2.806  1.00  0.00    -0.102 SA
ENDBRANCH  25  26
BRANCH  25  31
HETATM   31  C33 UNL     1      12.098  -1.924   1.757  1.00  0.00     0.032 A 
HETATM   32  C34 UNL     1      12.449  -3.179   1.282  1.00  0.00     0.019 A 
HETATM   33  C35 UNL     1      12.070  -4.234   2.160  1.00  0.00     0.008 A 
HETATM   34  C36 UNL     1      11.437  -3.763   3.286  1.00  0.00     0.050 A 
HETATM   35  S2  UNL     1      11.303  -2.061   3.283  1.00  0.00    -0.102 SA
ENDBRANCH  25  31
BRANCH  25  36
HETATM   36  O6  UNL     1      13.405  -0.756   0.156  1.00  0.00    -0.370 OA
HETATM   37  H53 UNL     1      13.355   0.008  -0.448  1.00  0.00     0.212 HD
ENDBRANCH  25  36
ENDBRANCH  23  25
ENDBRANCH  22  23
ENDBRANCH  19  22
ENDBRANCH  14  16
ENDBRANCH  13  14
ENDBRANCH  12  13
ENDBRANCH   9  12
ENDBRANCH   4   8
BRANCH   6  38
HETATM   38  O2  UNL     1      -3.544   2.503  -4.215  1.00  0.00    -0.355 OA
HETATM   39  C16 UNL     1      -3.971   3.839  -3.938  1.00  0.00     0.210 C 
ENDBRANCH   6  38
BRANCH   1  40
HETATM   40  C9  UNL     1      -4.827   0.833  -2.228  1.00  0.00     0.311 C 
BRANCH  40  41
HETATM   41  N1  UNL     1      -5.589   1.690  -1.323  1.00  0.00     0.090 N 
HETATM   42  H55 UNL     1      -5.237   1.595  -0.370  1.00  0.00     0.316 HD
BRANCH  41  43
HETATM   43  C8  UNL     1      -7.029   1.402  -1.357  1.00  0.00     0.306 C 
BRANCH  43  44
HETATM   44  C7  UNL     1      -7.517   0.130  -0.596  1.00  0.00     0.184 C 
BRANCH  44  45
HETATM   45  C37 UNL     1      -7.319   0.273   0.913  1.00  0.00    -0.015 A 
HETATM   46  C38 UNL     1      -6.300  -0.385   1.638  1.00  0.00     0.003 A 
HETATM   47  C39 UNL     1      -5.321  -1.314   1.048  1.00  0.00     0.020 A 
HETATM   48  C42 UNL     1      -6.196  -0.154   3.026  1.00  0.00     0.079 A 
HETATM   49  C40 UNL     1      -4.377  -1.900   1.798  1.00  0.00     0.075 A 
HETATM   50  C41 UNL     1      -4.275  -1.647   3.253  1.00  0.00     0.245 A 
HETATM   51  O7  UNL     1      -3.410  -2.195   3.926  1.00  0.00    -0.268 OA
HETATM   52  N4  UNL     1      -5.192  -0.787   3.775  1.00  0.00    -0.321 N 
HETATM   53  H57 UNL     1      -5.151  -0.596   4.769  1.00  0.00     0.169 HD
HETATM   54  C43 UNL     1      -7.078   0.703   3.690  1.00  0.00     0.093 A 
HETATM   55  C44 UNL     1      -8.082   1.349   2.990  1.00  0.00     0.039 A 
HETATM   56  C45 UNL     1      -8.197   1.135   1.616  1.00  0.00     0.013 A 
BRANCH  54  57
HETATM   57  O8  UNL     1      -6.928   0.887   5.038  1.00  0.00    -0.358 OA
HETATM   58  H54 UNL     1      -7.621   1.494   5.348  1.00  0.00     0.217 HD
ENDBRANCH  54  57
ENDBRANCH  44  45
BRANCH  44  59
HETATM   59  O1  UNL     1      -8.924  -0.033  -0.840  1.00  0.00    -0.368 OA
BRANCH  59  60
HETATM   60  C46 UNL     1      -9.506  -1.193  -1.902  1.00  0.00     0.061 C 
HETATM   61  C5  UNL     1     -11.197  -0.686  -2.559  1.00  0.00     0.046 C 
HETATM   62  C6  UNL     1      -8.360  -1.525  -3.350  1.00  0.00     0.046 C 
BRANCH  60  63
HETATM   63  C2  UNL     1      -9.768  -2.976  -0.880  1.00  0.00    -0.021 C 
HETATM   64  C1  UNL     1     -10.433  -4.006  -1.815  1.00  0.00     0.017 C 
HETATM   65  C3  UNL     1     -10.669  -2.715   0.344  1.00  0.00     0.017 C 
HETATM   66  C4  UNL     1      -8.398  -3.506  -0.413  1.00  0.00     0.017 C 
ENDBRANCH  60  63
ENDBRANCH  59  60
ENDBRANCH  44  59
ENDBRANCH  43  44
ENDBRANCH  41  43
ENDBRANCH  40  41
ENDBRANCH   1  40
TORSDOF 21
