REMARK  0 active torsions:
REMARK  status: ('A' for Active; 'I' for Inactive)
REMARK       I    between atoms: C2_2  and  C3_3 
REMARK       I    between atoms: C3_3  and  C5_5 
REMARK       I    between atoms: C5_5  and  C6_6 
REMARK       I    between atoms: C5_5  and  N2_60 
REMARK       I    between atoms: C6_6  and  N1_59 
REMARK       I    between atoms: C7_7  and  C8_8 
REMARK       I    between atoms: C7_7  and  C9_9 
REMARK       I    between atoms: C7_7  and  N1_59 
REMARK       I    between atoms: C8_8  and  S1_71 
REMARK       I    between atoms: C9_9  and  O3_47 
REMARK       I    between atoms: C10_10  and  C11_11 
REMARK       I    between atoms: C10_10  and  N2_60 
REMARK       I    between atoms: C11_11  and  C12_12 
REMARK       I    between atoms: C11_11  and  N3_61 
REMARK       I    between atoms: C12_12  and  C13_13 
REMARK       I    between atoms: C16_16  and  O5_49 
REMARK       I    between atoms: C19_19  and  C20_20 
REMARK       I    between atoms: C19_19  and  N3_61 
REMARK       I    between atoms: C24_24  and  C25_25 
REMARK       I    between atoms: C24_24  and  N4_62 
REMARK       I    between atoms: C25_25  and  C26_26 
REMARK       I    between atoms: C25_25  and  N5_63 
REMARK       I    between atoms: C26_26  and  O8_52 
REMARK       I    between atoms: C28_28  and  C29_29 
REMARK       I    between atoms: C28_28  and  N5_63 
REMARK       I    between atoms: C29_29  and  C30_30 
REMARK       I    between atoms: C29_29  and  N8_67 
REMARK       I    between atoms: C30_30  and  C31_31 
REMARK       I    between atoms: C34_34  and  C35_35 
REMARK       I    between atoms: C34_34  and  N8_67 
REMARK       I    between atoms: C35_35  and  C36_36 
REMARK       I    between atoms: C35_35  and  N9_68 
REMARK       I    between atoms: C36_36  and  O11_55 
REMARK       I    between atoms: C38_38  and  C39_39 
REMARK       I    between atoms: C38_38  and  N9_68 
REMARK       I    between atoms: C39_39  and  C40_40 
REMARK       I    between atoms: C39_39  and  N10_69 
REMARK       I    between atoms: C40_40  and  O13_57 
REMARK       I    between atoms: C42_42  and  C43_43 
REMARK       I    between atoms: C42_42  and  N10_69 
REMARK       I    between atoms: C43_43  and  C44_44 
REMARK       I    between atoms: C43_43  and  N11_70 
REMARK       I    between atoms: C44_44  and  S2_72 
ROOT
HETATM    1  C1  UNL     1      -8.091   1.852   2.647  1.00  0.00     0.005 C 
HETATM    2  C2  UNL     1      -7.744   0.417   3.016  1.00  0.00     0.002 C 
HETATM    3  C3  UNL     1      -6.442  -0.150   2.407  1.00  0.00     0.013 C 
HETATM    4  C4  UNL     1      -5.204   0.551   2.975  1.00  0.00     0.012 C 
HETATM    5  C5  UNL     1      -6.499  -0.264   0.865  1.00  0.00     0.180 C 
HETATM    6  C6  UNL     1      -6.302   1.045   0.065  1.00  0.00     0.241 C 
HETATM    7  C7  UNL     1      -6.858   2.177  -2.083  1.00  0.00     0.191 C 
HETATM    8  C8  UNL     1      -5.561   2.032  -2.888  1.00  0.00     0.106 C 
HETATM    9  C9  UNL     1      -8.072   2.137  -3.008  1.00  0.00     0.164 C 
HETATM   10  C10 UNL     1      -5.661  -1.874  -0.813  1.00  0.00     0.241 C 
HETATM   11  C11 UNL     1      -4.430  -2.647  -1.340  1.00  0.00     0.180 C 
HETATM   12  C12 UNL     1      -4.245  -3.960  -0.568  1.00  0.00     0.073 C 
HETATM   13  C13 UNL     1      -5.201  -5.045  -1.001  1.00  0.00    -0.056 A 
HETATM   14  C14 UNL     1      -4.871  -5.890  -2.071  1.00  0.00     0.010 A 
HETATM   15  C15 UNL     1      -5.758  -6.886  -2.483  1.00  0.00     0.037 A 
HETATM   16  C16 UNL     1      -6.977  -7.034  -1.834  1.00  0.00     0.065 A 
HETATM   17  C17 UNL     1      -7.325  -6.203  -0.775  1.00  0.00     0.037 A 
HETATM   18  C18 UNL     1      -6.436  -5.209  -0.359  1.00  0.00     0.010 A 
HETATM   19  C19 UNL     1      -2.981  -0.759  -2.035  1.00  0.00     0.241 C 
HETATM   20  C20 UNL     1      -2.012   0.326  -1.497  1.00  0.00     0.179 C 
HETATM   21  C21 UNL     1      -1.305   1.056  -2.644  1.00  0.00     0.037 C 
HETATM   22  C22 UNL     1      -0.010   0.266  -2.795  1.00  0.00     0.022 C 
HETATM   23  C23 UNL     1       0.368  -0.031  -1.353  1.00  0.00     0.127 C 
HETATM   24  C24 UNL     1      -1.085  -0.495   0.673  1.00  0.00     0.245 C 
HETATM   25  C25 UNL     1       0.173  -0.671   1.554  1.00  0.00     0.205 C 
HETATM   26  C26 UNL     1      -0.132  -1.312   2.931  1.00  0.00     0.146 C 
HETATM   27  C27 UNL     1      -0.869  -0.407   3.917  1.00  0.00     0.042 C 
HETATM   28  C28 UNL     1       2.208   0.726   1.790  1.00  0.00     0.241 C 
HETATM   29  C29 UNL     1       2.768   2.147   2.014  1.00  0.00     0.182 C 
HETATM   30  C30 UNL     1       2.455   3.068   0.815  1.00  0.00     0.093 C 
HETATM   31  C31 UNL     1       3.404   2.943  -0.338  1.00  0.00     0.028 A 
HETATM   32  C32 UNL     1       3.965   1.867  -0.993  1.00  0.00     0.114 A 
HETATM   33  C33 UNL     1       4.807   3.600  -1.916  1.00  0.00     0.180 A 
HETATM   34  C34 UNL     1       5.081   3.023   2.454  1.00  0.00     0.243 C 
HETATM   35  C35 UNL     1       6.559   2.571   2.504  1.00  0.00     0.205 C 
HETATM   36  C36 UNL     1       7.532   3.727   2.184  1.00  0.00     0.146 C 
HETATM   37  C37 UNL     1       7.374   4.323   0.788  1.00  0.00     0.042 C 
HETATM   38  C38 UNL     1       6.922   0.131   2.074  1.00  0.00     0.243 C 
HETATM   39  C39 UNL     1       6.793  -0.958   0.983  1.00  0.00     0.205 C 
HETATM   40  C40 UNL     1       7.667  -2.210   1.226  1.00  0.00     0.146 C 
HETATM   41  C41 UNL     1       9.121  -1.893   1.555  1.00  0.00     0.042 C 
HETATM   42  C42 UNL     1       6.432  -0.905  -1.482  1.00  0.00     0.252 C 
HETATM   43  C43 UNL     1       6.952  -0.282  -2.790  1.00  0.00     0.318 C 
HETATM   44  C44 UNL     1       8.001  -1.234  -3.379  1.00  0.00     0.116 C 
HETATM   45  O1  UNL     1      -5.492   1.917   0.366  1.00  0.00    -0.271 OA
HETATM   46  O2  UNL     1      -8.877   1.223  -3.112  1.00  0.00    -0.648 OA
HETATM   47  O3  UNL     1      -8.220   3.249  -3.757  1.00  0.00    -0.775 OA
HETATM   48  O4  UNL     1      -6.770  -1.941  -1.339  1.00  0.00    -0.271 OA
HETATM   49  O5  UNL     1      -7.815  -8.016  -2.273  1.00  0.00    -0.361 OA
HETATM   50  O6  UNL     1      -3.605  -0.624  -3.085  1.00  0.00    -0.271 OA
HETATM   51  O7  UNL     1      -2.226  -0.689   1.108  1.00  0.00    -0.271 OA
HETATM   52  O8  UNL     1      -0.865  -2.531   2.779  1.00  0.00    -0.393 OA
HETATM   53  O9  UNL     1       2.945  -0.255   1.693  1.00  0.00    -0.271 OA
HETATM   54  O10 UNL     1       4.720   4.188   2.612  1.00  0.00    -0.271 OA
HETATM   55  O11 UNL     1       7.429   4.782   3.144  1.00  0.00    -0.393 OA
HETATM   56  O12 UNL     1       7.023  -0.105   3.272  1.00  0.00    -0.271 OA
HETATM   57  O13 UNL     1       7.139  -3.050   2.253  1.00  0.00    -0.393 OA
HETATM   58  O14 UNL     1       5.610  -1.815  -1.455  1.00  0.00    -0.271 OA
HETATM   59  N1  UNL     1      -7.013   1.085  -1.115  1.00  0.00    -0.344 N 
HETATM   60  N2  UNL     1      -5.460  -1.172   0.368  1.00  0.00    -0.346 N 
HETATM   61  N3  UNL     1      -3.251  -1.789  -1.160  1.00  0.00    -0.346 N 
HETATM   62  N4  UNL     1      -0.906  -0.151  -0.653  1.00  0.00    -0.337 N 
HETATM   63  N5  UNL     1       0.840   0.629   1.691  1.00  0.00    -0.344 N 
HETATM   64  N6  UNL     1       4.865   2.288  -1.940  1.00  0.00    -0.360 N 
ATOM     65  H6  UNL     1       5.454   1.706  -2.536  1.00  0.00     0.166 HD
HETATM   66  N7  UNL     1       3.942   4.045  -0.959  1.00  0.00    -0.354 N 
HETATM   67  N8  UNL     1       4.191   1.992   2.290  1.00  0.00    -0.346 N 
HETATM   68  N9  UNL     1       6.748   1.422   1.604  1.00  0.00    -0.344 N 
HETATM   69  N10 UNL     1       7.024  -0.392  -0.348  1.00  0.00    -0.344 N 
HETATM   70  N11 UNL     1       7.499   1.079  -2.505  1.00  0.00     0.092 N 
HETATM   71  S1  UNL     1      -4.978   3.600  -3.620  1.00  0.00    -0.180 SA
HETATM   72  S2  UNL     1       8.755  -0.590  -4.911  1.00  0.00    -0.180 SA
HETATM   73  H51 UNL     1      -9.039   3.078  -4.272  1.00  0.00     0.167 HD
HETATM   74  H52 UNL     1      -8.636  -7.971  -1.757  1.00  0.00     0.217 HD
HETATM   75  H53 UNL     1      -1.785  -2.290   2.555  1.00  0.00     0.210 HD
HETATM   76  H54 UNL     1       6.498   5.087   3.145  1.00  0.00     0.210 HD
HETATM   77  H55 UNL     1       6.236  -3.308   1.994  1.00  0.00     0.210 HD
HETATM   78  H56 UNL     1      -7.450   0.220  -1.446  1.00  0.00     0.163 HD
HETATM   79  H57 UNL     1      -4.503  -0.904   0.576  1.00  0.00     0.163 HD
HETATM   80  H58 UNL     1      -2.861  -1.708  -0.227  1.00  0.00     0.163 HD
HETATM   81  H59 UNL     1       0.262   1.431   1.916  1.00  0.00     0.163 HD
HETATM   82  H60 UNL     1       3.761   5.014  -0.729  1.00  0.00     0.166 HD
HETATM   83  H61 UNL     1       4.551   1.040   2.278  1.00  0.00     0.163 HD
HETATM   84  H62 UNL     1       6.425   1.514   0.643  1.00  0.00     0.163 HD
HETATM   85  H63 UNL     1       7.783   0.270  -0.511  1.00  0.00     0.163 HD
HETATM   86  H64 UNL     1       7.780   1.476  -3.405  1.00  0.00     0.313 HD
HETATM   87  H65 UNL     1       6.675   1.649  -2.246  1.00  0.00     0.313 HD
HETATM   88  H66 UNL     1      -6.114   3.889  -4.279  1.00  0.00     0.101 HD
HETATM   89  H67 UNL     1       9.508   0.348  -4.316  1.00  0.00     0.101 HD
ENDROOT
TORSDOF 35
