REMARK  12 active torsions:
REMARK  status: ('A' for Active; 'I' for Inactive)
REMARK    1  A    between atoms: C2_2  and  C3_3 
REMARK    2  A    between atoms: C3_3  and  C4_4 
REMARK    3  A    between atoms: C3_3  and  N1_40 
REMARK       I    between atoms: C6_6  and  N1_40 
REMARK       I    between atoms: C6_6  and  N2_41 
REMARK    4  A    between atoms: C7_7  and  N2_41 
REMARK    5  A    between atoms: C10_10  and  O2_48 
REMARK    6  A    between atoms: C13_13  and  O2_48 
REMARK    7  A    between atoms: C16_16  and  N3_42 
REMARK    8  A    between atoms: C19_19  and  C20_20 
REMARK       I    between atoms: C19_19  and  N3_42 
REMARK    9  A    between atoms: C22_22  and  N5_45 
REMARK   10  A    between atoms: C26_26  and  C33_33 
REMARK   11  A    between atoms: C33_33  and  N6_46 
REMARK   12  A    between atoms: C36_36  and  O4_50 
ROOT
HETATM    1  C19 UNL     1      -1.028   2.227  -0.407  1.00  0.00     0.257 C 
HETATM    2  N3  UNL     1      -0.086   1.804   0.514  1.00  0.00    -0.323 N 
HETATM    3  O3  UNL     1      -0.858   3.020  -1.325  1.00  0.00    -0.267 OA
HETATM    4  H43 UNL     1      -0.334   1.028   1.115  1.00  0.00     0.169 HD
ENDROOT
BRANCH   1   5
HETATM    5  C20 UNL     1      -2.366   1.606  -0.274  1.00  0.00     0.047 A 
HETATM    6  C21 UNL     1      -2.928   1.310   0.955  1.00  0.00     0.106 A 
HETATM    7  N4  UNL     1      -4.145   0.733   1.109  1.00  0.00    -0.351 N 
HETATM    8  C22 UNL     1      -4.876   0.453  -0.002  1.00  0.00     0.111 A 
ATOM      9  H4  UNL     1      -4.504   0.514   2.038  1.00  0.00     0.166 HD
HETATM   10  C23 UNL     1      -4.390   0.752  -1.277  1.00  0.00     0.050 A 
HETATM   11  C24 UNL     1      -3.126   1.336  -1.409  1.00  0.00     0.022 A 
BRANCH   8  12
HETATM   12  N5  UNL     1      -6.172  -0.161   0.160  1.00  0.00    -0.307 N 
HETATM   13  C25 UNL     1      -7.014  -0.548  -0.870  1.00  0.00     0.108 A 
HETATM   14  C26 UNL     1      -8.175  -1.093  -0.358  1.00  0.00    -0.002 A 
HETATM   15  C27 UNL     1      -8.045  -1.056   1.061  1.00  0.00     0.001 A 
HETATM   16  C28 UNL     1      -8.895  -1.467   2.112  1.00  0.00     0.014 A 
HETATM   17  C32 UNL     1      -6.802  -0.485   1.369  1.00  0.00     0.051 A 
HETATM   18  C29 UNL     1      -8.497  -1.309   3.440  1.00  0.00     0.001 A 
HETATM   19  C30 UNL     1      -7.264  -0.746   3.735  1.00  0.00     0.002 A 
HETATM   20  C31 UNL     1      -6.405  -0.327   2.714  1.00  0.00     0.031 A 
BRANCH  14  21
HETATM   21  C33 UNL     1      -9.324  -1.644  -1.150  1.00  0.00     0.313 C 
BRANCH  21  22
HETATM   22  N6  UNL     1     -10.533  -0.838  -0.941  1.00  0.00     0.092 N 
HETATM   23  C34 UNL     1     -11.736  -1.607  -1.283  1.00  0.00     0.275 C 
HETATM   24  C35 UNL     1     -12.947  -0.704  -1.487  1.00  0.00     0.062 C 
HETATM   25  C36 UNL     1     -12.728   0.220  -2.685  1.00  0.00     0.121 C 
HETATM   26  C37 UNL     1     -11.255   0.576  -2.888  1.00  0.00     0.062 C 
HETATM   27  C38 UNL     1     -10.479   0.490  -1.574  1.00  0.00     0.275 C 
BRANCH  25  28
HETATM   28  O4  UNL     1     -13.484   1.417  -2.510  1.00  0.00    -0.395 OA
HETATM   29  H44 UNL     1     -14.407   1.162  -2.341  1.00  0.00     0.210 HD
ENDBRANCH  25  28
ENDBRANCH  21  22
ENDBRANCH  14  21
ENDBRANCH   8  12
ENDBRANCH   1   5
BRANCH   2  30
HETATM   30  C16 UNL     1       1.244   2.260   0.647  1.00  0.00     0.035 A 
HETATM   31  C15 UNL     1       1.787   3.316  -0.092  1.00  0.00     0.039 A 
HETATM   32  C14 UNL     1       3.120   3.721   0.094  1.00  0.00    -0.026 A 
HETATM   33  C13 UNL     1       3.913   3.039   1.026  1.00  0.00     0.082 A 
HETATM   34  C39 UNL     1       3.683   4.858  -0.710  1.00  0.00     0.051 C 
HETATM   35  C18 UNL     1       3.373   2.003   1.790  1.00  0.00     0.040 A 
HETATM   36  C17 UNL     1       2.046   1.613   1.594  1.00  0.00     0.032 A 
BRANCH  33  37
HETATM   37  O2  UNL     1       5.209   3.465   1.221  1.00  0.00    -0.310 OA
BRANCH  37  38
HETATM   38  C10 UNL     1       6.206   2.521   1.124  1.00  0.00     0.076 A 
HETATM   39  C9  UNL     1       6.232   1.528   0.145  1.00  0.00     0.039 A 
HETATM   40  C8  UNL     1       7.298   0.622   0.094  1.00  0.00     0.032 A 
HETATM   41  C7  UNL     1       8.348   0.710   1.010  1.00  0.00     0.036 A 
HETATM   42  C12 UNL     1       8.328   1.730   1.970  1.00  0.00     0.032 A 
HETATM   43  C11 UNL     1       7.263   2.635   2.024  1.00  0.00     0.039 A 
BRANCH  41  44
HETATM   44  N2  UNL     1       9.458  -0.158   1.013  1.00  0.00    -0.309 N 
HETATM   45  C6  UNL     1       9.618  -1.317   0.285  1.00  0.00     0.321 C 
HETATM   46  N1  UNL     1      10.888  -1.832   0.475  1.00  0.00    -0.338 N 
HETATM   47  O1  UNL     1       8.783  -1.860  -0.424  1.00  0.00    -0.247 OA
HETATM   48  H41 UNL     1      11.602  -1.145   0.667  1.00  0.00     0.164 HD
HETATM   49  H42 UNL     1      10.145  -0.009   1.736  1.00  0.00     0.170 HD
BRANCH  46  50
HETATM   50  C3  UNL     1      11.324  -3.033  -0.233  1.00  0.00     0.085 C 
BRANCH  50  51
HETATM   51  C2  UNL     1      12.490  -3.703   0.514  1.00  0.00     0.021 C 
HETATM   52  C1  UNL     1      12.069  -4.258   1.870  1.00  0.00     0.007 C 
ENDBRANCH  50  51
BRANCH  50  53
HETATM   53  C4  UNL     1      11.675  -2.726  -1.703  1.00  0.00     0.021 C 
HETATM   54  C5  UNL     1      12.851  -1.777  -1.896  1.00  0.00     0.007 C 
ENDBRANCH  50  53
ENDBRANCH  46  50
ENDBRANCH  41  44
ENDBRANCH  37  38
ENDBRANCH  33  37
ENDBRANCH   2  30
TORSDOF 12
