REMARK  15 active torsions:
REMARK  status: ('A' for Active; 'I' for Inactive)
REMARK    1  A    between atoms: C2_2  and  O1_35 
REMARK    2  A    between atoms: C4_4  and  O8_42 
REMARK    3  A    between atoms: C5_5  and  C31_31 
REMARK    4  A    between atoms: C7_7  and  C8_8 
REMARK       I    between atoms: C8_8  and  N1_43 
REMARK    5  A    between atoms: C9_9  and  N1_43 
REMARK    6  A    between atoms: C12_12  and  N2_44 
REMARK    7  A    between atoms: C15_15  and  C16_16 
REMARK       I    between atoms: C15_15  and  N2_44 
REMARK    8  A    between atoms: C17_17  and  O6_40 
REMARK    9  A    between atoms: C19_19  and  O5_39 
REMARK   10  A    between atoms: C20_20  and  C22_22 
REMARK       I    between atoms: C22_22  and  N3_45 
REMARK   11  A    between atoms: C23_23  and  N3_45 
REMARK   12  A    between atoms: C26_26  and  N4_46 
REMARK       I    between atoms: C31_31  and  N5_47 
REMARK   13  A    between atoms: C32_32  and  C33_33 
REMARK   14  A    between atoms: C32_32  and  N5_47 
REMARK   15  A    between atoms: C33_33  and  N6_48 
ROOT
HETATM    1  C9  UNL     1       2.791  -0.632  -0.560  1.00  0.00     0.084 C 
HETATM    2  C10 UNL     1       1.824  -0.014  -1.583  1.00  0.00     0.027 C 
HETATM    3  C11 UNL     1       1.089   1.194  -1.007  1.00  0.00     0.027 C 
HETATM    4  C12 UNL     1       0.227   0.807   0.206  1.00  0.00     0.084 C 
HETATM    5  C13 UNL     1       0.802  -0.384   0.993  1.00  0.00     0.027 C 
HETATM    6  C14 UNL     1       2.320  -0.446   0.894  1.00  0.00     0.027 C 
ENDROOT
BRANCH   4   7
HETATM    7  N2  UNL     1      -1.135   0.508  -0.214  1.00  0.00    -0.352 N 
HETATM    8  C15 UNL     1      -2.204   0.609   0.649  1.00  0.00     0.254 C 
HETATM    9  O3  UNL     1      -2.117   1.090   1.773  1.00  0.00    -0.268 OA
HETATM   10  H42 UNL     1      -1.273  -0.020  -1.070  1.00  0.00     0.163 HD
BRANCH   8  11
HETATM   11  C16 UNL     1      -3.518   0.110   0.149  1.00  0.00     0.066 A 
HETATM   12  C17 UNL     1      -3.650  -0.876  -0.833  1.00  0.00     0.086 A 
HETATM   13  C18 UNL     1      -4.916  -1.265  -1.291  1.00  0.00     0.075 A 
HETATM   14  C19 UNL     1      -6.079  -0.710  -0.741  1.00  0.00     0.086 A 
HETATM   15  C20 UNL     1      -5.960   0.265   0.274  1.00  0.00     0.066 A 
HETATM   16  C21 UNL     1      -4.678   0.657   0.710  1.00  0.00     0.040 A 
BRANCH  12  17
HETATM   17  O6  UNL     1      -2.554  -1.462  -1.419  1.00  0.00    -0.355 OA
HETATM   18  C30 UNL     1      -2.262  -2.709  -0.777  1.00  0.00     0.210 C 
ENDBRANCH  12  17
BRANCH  14  19
HETATM   19  O5  UNL     1      -7.343  -1.071  -1.138  1.00  0.00    -0.355 OA
HETATM   20  C29 UNL     1      -7.473  -2.113  -2.101  1.00  0.00     0.210 C 
ENDBRANCH  14  19
BRANCH  15  21
HETATM   21  C22 UNL     1      -7.119   0.940   0.948  1.00  0.00     0.254 C 
HETATM   22  O4  UNL     1      -6.940   1.591   1.973  1.00  0.00    -0.268 OA
HETATM   23  N3  UNL     1      -8.360   0.805   0.367  1.00  0.00    -0.352 N 
HETATM   24  H43 UNL     1      -8.443   0.128  -0.384  1.00  0.00     0.163 HD
BRANCH  23  25
HETATM   25  C23 UNL     1      -9.577   1.279   1.012  1.00  0.00     0.084 C 
HETATM   26  C24 UNL     1     -10.010   0.288   2.110  1.00  0.00     0.027 C 
HETATM   27  C25 UNL     1     -11.519   0.308   2.319  1.00  0.00     0.037 C 
HETATM   28  C26 UNL     1     -12.263  -0.136   1.049  1.00  0.00     0.218 C 
HETATM   29  C27 UNL     1     -11.541   0.286  -0.243  1.00  0.00     0.037 C 
HETATM   30  C28 UNL     1     -10.675   1.526  -0.037  1.00  0.00     0.027 C 
BRANCH  28  31
HETATM   31  N4  UNL     1     -13.628   0.390   1.096  1.00  0.00     0.082 N 
HETATM   32  H44 UNL     1     -13.611   1.409   1.065  1.00  0.00     0.313 HD
HETATM   33  H45 UNL     1     -14.142   0.092   0.268  1.00  0.00     0.313 HD
ENDBRANCH  28  31
ENDBRANCH  23  25
ENDBRANCH  15  21
ENDBRANCH   8  11
ENDBRANCH   4   7
BRANCH   1  34
HETATM   34  N1  UNL     1       4.125  -0.073  -0.720  1.00  0.00    -0.352 N 
HETATM   35  C8  UNL     1       5.254  -0.748  -0.309  1.00  0.00     0.254 C 
HETATM   36  O2  UNL     1       5.238  -1.908   0.085  1.00  0.00    -0.268 OA
HETATM   37  H41 UNL     1       4.216   0.922  -0.901  1.00  0.00     0.163 HD
BRANCH  35  38
HETATM   38  C7  UNL     1       6.541   0.001  -0.372  1.00  0.00     0.066 A 
HETATM   39  C2  UNL     1       6.634   1.392  -0.272  1.00  0.00     0.086 A 
HETATM   40  C3  UNL     1       7.873   2.035  -0.382  1.00  0.00     0.075 A 
HETATM   41  C4  UNL     1       9.053   1.296  -0.549  1.00  0.00     0.086 A 
HETATM   42  C5  UNL     1       8.978  -0.112  -0.602  1.00  0.00     0.066 A 
HETATM   43  C6  UNL     1       7.720  -0.741  -0.518  1.00  0.00     0.040 A 
BRANCH  39  44
HETATM   44  O1  UNL     1       5.519   2.179  -0.115  1.00  0.00    -0.355 OA
HETATM   45  C1  UNL     1       5.328   2.490   1.270  1.00  0.00     0.210 C 
ENDBRANCH  39  44
BRANCH  41  46
HETATM   46  O8  UNL     1      10.291   1.879  -0.652  1.00  0.00    -0.355 OA
HETATM   47  C34 UNL     1      10.349   3.290  -0.847  1.00  0.00     0.210 C 
ENDBRANCH  41  46
BRANCH  42  48
HETATM   48  C31 UNL     1      10.160  -1.025  -0.767  1.00  0.00     0.254 C 
HETATM   49  O7  UNL     1       9.985  -2.211  -1.028  1.00  0.00    -0.268 OA
HETATM   50  N5  UNL     1      11.411  -0.484  -0.591  1.00  0.00    -0.355 N 
HETATM   51  H46 UNL     1      11.469   0.520  -0.455  1.00  0.00     0.162 HD
BRANCH  50  52
HETATM   52  C32 UNL     1      12.650  -1.214  -0.811  1.00  0.00     0.152 C 
BRANCH  52  53
HETATM   53  C33 UNL     1      12.946  -2.268   0.272  1.00  0.00     0.286 C 
BRANCH  53  54
HETATM   54  N6  UNL     1      12.262  -3.538   0.030  1.00  0.00     0.079 N 
HETATM   55  H47 UNL     1      12.104  -4.019   0.913  1.00  0.00     0.312 HD
HETATM   56  H48 UNL     1      11.322  -3.331  -0.341  1.00  0.00     0.312 HD
ENDBRANCH  53  54
ENDBRANCH  52  53
ENDBRANCH  50  52
ENDBRANCH  42  48
ENDBRANCH  35  38
ENDBRANCH   1  34
TORSDOF 15
