REMARK  0 active torsions:
REMARK  status: ('A' for Active; 'I' for Inactive)
REMARK       I    between atoms: C2_2  and  C3_3 
REMARK       I    between atoms: C3_3  and  C5_5 
REMARK       I    between atoms: C5_5  and  C6_6 
REMARK       I    between atoms: C5_5  and  N3_75 
REMARK       I    between atoms: C6_6  and  N1_73 
REMARK       I    between atoms: C7_7  and  C8_8 
REMARK       I    between atoms: C7_7  and  C9_9 
REMARK       I    between atoms: C7_7  and  N1_73 
REMARK       I    between atoms: C8_8  and  O2_56 
REMARK       I    between atoms: C9_9  and  N2_74 
REMARK       I    between atoms: C10_10  and  C11_11 
REMARK       I    between atoms: C10_10  and  C14_14 
REMARK       I    between atoms: C10_10  and  N2_74 
REMARK       I    between atoms: C14_14  and  O5_59 
REMARK       I    between atoms: C15_15  and  C16_16 
REMARK       I    between atoms: C15_15  and  N3_75 
REMARK       I    between atoms: C16_16  and  C17_17 
REMARK       I    between atoms: C16_16  and  N4_76 
REMARK       I    between atoms: C17_17  and  C18_18 
REMARK       I    between atoms: C21_21  and  O7_61 
REMARK       I    between atoms: C24_24  and  C25_25 
REMARK       I    between atoms: C24_24  and  N4_76 
REMARK       I    between atoms: C25_25  and  C26_26 
REMARK       I    between atoms: C25_25  and  N5_77 
REMARK       I    between atoms: C26_26  and  O9_63 
REMARK       I    between atoms: C28_28  and  C29_29 
REMARK       I    between atoms: C28_28  and  N5_77 
REMARK       I    between atoms: C29_29  and  C30_30 
REMARK       I    between atoms: C29_29  and  N6_78 
REMARK       I    between atoms: C30_30  and  O11_65 
REMARK       I    between atoms: C32_32  and  C33_33 
REMARK       I    between atoms: C32_32  and  N6_78 
REMARK       I    between atoms: C37_37  and  C38_38 
REMARK       I    between atoms: C37_37  and  N7_79 
REMARK       I    between atoms: C38_38  and  C39_39 
REMARK       I    between atoms: C38_38  and  N9_81 
REMARK       I    between atoms: C39_39  and  C40_40 
REMARK       I    between atoms: C40_40  and  N8_80 
REMARK       I    between atoms: C41_41  and  C42_42 
REMARK       I    between atoms: C41_41  and  N9_81 
REMARK       I    between atoms: C42_42  and  C43_43 
REMARK       I    between atoms: C42_42  and  N11_83 
REMARK       I    between atoms: C43_43  and  C44_44 
REMARK       I    between atoms: C44_44  and  C45_45 
REMARK       I    between atoms: C45_45  and  N10_82 
REMARK       I    between atoms: C46_46  and  C47_47 
REMARK       I    between atoms: C46_46  and  N11_83 
REMARK       I    between atoms: C47_47  and  C48_48 
REMARK       I    between atoms: C47_47  and  N12_84 
REMARK       I    between atoms: C48_48  and  C49_49 
REMARK       I    between atoms: C52_52  and  O18_72 
ROOT
HETATM    1  C1  UNL     1      -9.932  -4.650  -2.640  1.00  0.00     0.005 C 
HETATM    2  C2  UNL     1      -9.297  -3.358  -2.143  1.00  0.00     0.002 C 
HETATM    3  C3  UNL     1      -7.912  -3.559  -1.490  1.00  0.00     0.013 C 
HETATM    4  C4  UNL     1      -7.993  -4.472  -0.259  1.00  0.00     0.012 C 
HETATM    5  C5  UNL     1      -7.238  -2.185  -1.235  1.00  0.00     0.180 C 
HETATM    6  C6  UNL     1      -7.965  -1.279  -0.209  1.00  0.00     0.241 C 
HETATM    7  C7  UNL     1      -8.438   1.086   0.343  1.00  0.00     0.200 C 
HETATM    8  C8  UNL     1      -7.609   2.364   0.519  1.00  0.00     0.199 C 
HETATM    9  C9  UNL     1      -9.727   1.423  -0.439  1.00  0.00     0.243 C 
HETATM   10  C10 UNL     1     -11.734   2.874  -0.468  1.00  0.00     0.185 C 
HETATM   11  C11 UNL     1     -12.837   3.191   0.568  1.00  0.00     0.010 C 
HETATM   12  C12 UNL     1     -14.204   3.387  -0.093  1.00  0.00     0.012 C 
HETATM   13  C13 UNL     1     -12.509   4.391   1.461  1.00  0.00     0.012 C 
HETATM   14  C14 UNL     1     -11.355   4.098  -1.321  1.00  0.00     0.163 C 
HETATM   15  C15 UNL     1      -4.916  -1.349  -1.034  1.00  0.00     0.241 C 
HETATM   16  C16 UNL     1      -3.520  -1.577  -0.409  1.00  0.00     0.180 C 
HETATM   17  C17 UNL     1      -3.539  -1.786   1.119  1.00  0.00     0.073 C 
HETATM   18  C18 UNL     1      -4.236  -0.701   1.911  1.00  0.00    -0.056 A 
HETATM   19  C19 UNL     1      -3.613   0.537   2.129  1.00  0.00     0.010 A 
HETATM   20  C20 UNL     1      -4.271   1.552   2.827  1.00  0.00     0.037 A 
HETATM   21  C21 UNL     1      -5.553   1.326   3.312  1.00  0.00     0.065 A 
HETATM   22  C22 UNL     1      -6.176   0.099   3.134  1.00  0.00     0.037 A 
HETATM   23  C23 UNL     1      -5.518  -0.915   2.438  1.00  0.00     0.010 A 
HETATM   24  C24 UNL     1      -1.286  -0.587  -0.866  1.00  0.00     0.243 C 
HETATM   25  C25 UNL     1      -0.541   0.666  -1.376  1.00  0.00     0.205 C 
HETATM   26  C26 UNL     1      -1.043   1.153  -2.751  1.00  0.00     0.146 C 
HETATM   27  C27 UNL     1      -0.980   0.087  -3.840  1.00  0.00     0.042 C 
HETATM   28  C28 UNL     1       1.841   1.339  -1.260  1.00  0.00     0.243 C 
HETATM   29  C29 UNL     1       3.269   0.815  -1.008  1.00  0.00     0.205 C 
HETATM   30  C30 UNL     1       4.035   0.688  -2.343  1.00  0.00     0.146 C 
HETATM   31  C31 UNL     1       4.312   2.027  -3.019  1.00  0.00     0.042 C 
HETATM   32  C32 UNL     1       3.011  -0.615   1.009  1.00  0.00     0.236 C 
HETATM   33  C33 UNL     1       3.160  -2.047   1.556  1.00  0.00     0.158 C 
HETATM   34  C34 UNL     1       3.380  -2.153   3.057  1.00  0.00     0.031 C 
HETATM   35  C35 UNL     1       3.878  -3.587   3.241  1.00  0.00     0.017 C 
HETATM   36  C36 UNL     1       4.138  -4.122   1.828  1.00  0.00     0.099 C 
HETATM   37  C37 UNL     1       5.436  -2.451   0.716  1.00  0.00     0.223 C 
HETATM   38  C38 UNL     1       6.102  -3.017  -0.580  1.00  0.00     0.179 C 
HETATM   39  C39 UNL     1       6.632  -4.444  -0.454  1.00  0.00     0.137 C 
HETATM   40  C40 UNL     1       5.608  -5.482  -0.845  1.00  0.00     0.217 C 
HETATM   41  C41 UNL     1       8.363  -1.969  -0.393  1.00  0.00     0.241 C 
HETATM   42  C42 UNL     1       9.090  -0.636  -0.640  1.00  0.00     0.177 C 
HETATM   43  C43 UNL     1      10.600  -0.775  -0.439  1.00  0.00     0.044 C 
HETATM   44  C44 UNL     1      11.346   0.494  -0.854  1.00  0.00     0.105 C 
HETATM   45  C45 UNL     1      12.827   0.394  -0.567  1.00  0.00     0.215 C 
HETATM   46  C46 UNL     1       7.652   1.290  -0.002  1.00  0.00     0.251 C 
HETATM   47  C47 UNL     1       6.998   2.057   1.172  1.00  0.00     0.313 C 
HETATM   48  C48 UNL     1       7.912   2.302   2.388  1.00  0.00     0.083 C 
HETATM   49  C49 UNL     1       9.237   2.958   2.066  1.00  0.00    -0.056 A 
HETATM   50  C50 UNL     1       9.301   4.152   1.332  1.00  0.00     0.010 A 
HETATM   51  C51 UNL     1      10.535   4.721   1.006  1.00  0.00     0.037 A 
HETATM   52  C52 UNL     1      11.706   4.103   1.427  1.00  0.00     0.065 A 
HETATM   53  C53 UNL     1      11.664   2.943   2.188  1.00  0.00     0.037 A 
HETATM   54  C54 UNL     1      10.432   2.373   2.511  1.00  0.00     0.010 A 
HETATM   55  O1  UNL     1      -8.630  -1.706   0.730  1.00  0.00    -0.271 OA
HETATM   56  O2  UNL     1      -8.071   3.111   1.650  1.00  0.00    -0.398 OA
HETATM   57  O3  UNL     1      -9.993   0.944  -1.540  1.00  0.00    -0.271 OA
HETATM   58  O4  UNL     1     -12.093   4.710  -2.077  1.00  0.00    -0.648 OA
HETATM   59  O5  UNL     1     -10.086   4.528  -1.139  1.00  0.00    -0.775 OA
HETATM   60  O6  UNL     1      -5.169  -0.372  -1.743  1.00  0.00    -0.271 OA
HETATM   61  O7  UNL     1      -6.261   2.314   3.933  1.00  0.00    -0.361 OA
HETATM   62  O8  UNL     1      -0.690  -1.595  -0.481  1.00  0.00    -0.271 OA
HETATM   63  O9  UNL     1      -2.394   1.621  -2.636  1.00  0.00    -0.393 OA
HETATM   64  O10 UNL     1       1.590   2.522  -1.476  1.00  0.00    -0.271 OA
HETATM   65  O11 UNL     1       5.295   0.022  -2.107  1.00  0.00    -0.393 OA
HETATM   66  O12 UNL     1       2.568   0.310   1.686  1.00  0.00    -0.272 OA
HETATM   67  O13 UNL     1       5.933  -1.560   1.407  1.00  0.00    -0.277 OA
HETATM   68  O14 UNL     1       4.477  -5.242  -1.244  1.00  0.00    -0.274 OA
HETATM   69  O15 UNL     1       8.790  -2.826   0.378  1.00  0.00    -0.271 OA
HETATM   70  O16 UNL     1      13.424  -0.654  -0.354  1.00  0.00    -0.274 OA
HETATM   71  O17 UNL     1       7.333   1.505  -1.174  1.00  0.00    -0.271 OA
HETATM   72  O18 UNL     1      12.930   4.598   1.089  1.00  0.00    -0.361 OA
HETATM   73  N1  UNL     1      -7.692   0.063  -0.377  1.00  0.00    -0.344 N 
HETATM   74  N2  UNL     1     -10.560   2.315   0.213  1.00  0.00    -0.344 N 
HETATM   75  N3  UNL     1      -5.847  -2.341  -0.794  1.00  0.00    -0.346 N 
HETATM   76  N4  UNL     1      -2.652  -0.474  -0.812  1.00  0.00    -0.346 N 
HETATM   77  N5  UNL     1       0.885   0.353  -1.371  1.00  0.00    -0.344 N 
HETATM   78  N6  UNL     1       3.212  -0.507  -0.353  1.00  0.00    -0.344 N 
HETATM   79  N7  UNL     1       4.146  -2.956   0.954  1.00  0.00    -0.238 NA
HETATM   80  N8  UNL     1       6.039  -6.770  -0.701  1.00  0.00    -0.370 N 
HETATM   81  N9  UNL     1       7.126  -2.052  -1.004  1.00  0.00    -0.346 N 
HETATM   82  N10 UNL     1      13.495   1.583  -0.610  1.00  0.00    -0.370 N 
HETATM   83  N11 UNL     1       8.526   0.289   0.344  1.00  0.00    -0.346 N 
HETATM   84  N12 UNL     1       5.771   1.340   1.542  1.00  0.00     0.092 N 
HETATM   85  H61 UNL     1      -7.654   2.705   2.440  1.00  0.00     0.209 HD
HETATM   86  H62 UNL     1     -10.012   5.296  -1.743  1.00  0.00     0.167 HD
HETATM   87  H63 UNL     1      -5.645   3.037   4.148  1.00  0.00     0.217 HD
HETATM   88  H64 UNL     1      -2.632   2.024  -3.491  1.00  0.00     0.210 HD
HETATM   89  H65 UNL     1       5.924   0.726  -1.817  1.00  0.00     0.210 HD
HETATM   90  H66 UNL     1      12.809   5.491   0.721  1.00  0.00     0.217 HD
HETATM   91  H67 UNL     1      -7.217   0.334  -1.236  1.00  0.00     0.163 HD
HETATM   92  H68 UNL     1     -10.088   2.927   0.878  1.00  0.00     0.163 HD
HETATM   93  H69 UNL     1      -5.694  -2.944   0.001  1.00  0.00     0.163 HD
HETATM   94  H70 UNL     1      -3.087   0.305  -1.318  1.00  0.00     0.163 HD
HETATM   95  H71 UNL     1       1.137  -0.543  -0.957  1.00  0.00     0.163 HD
HETATM   96  H72 UNL     1       3.775  -1.229  -0.786  1.00  0.00     0.163 HD
HETATM   97  H73 UNL     1       7.021  -6.993  -0.599  1.00  0.00     0.159 HD
HETATM   98  H74 UNL     1       5.424  -7.499  -1.039  1.00  0.00     0.159 HD
HETATM   99  H75 UNL     1       6.754  -1.189  -1.402  1.00  0.00     0.163 HD
HETATM  100  H76 UNL     1      14.463   1.547  -0.315  1.00  0.00     0.159 HD
HETATM  101  H77 UNL     1      13.007   2.449  -0.411  1.00  0.00     0.159 HD
HETATM  102  H78 UNL     1       8.467  -0.069   1.291  1.00  0.00     0.163 HD
HETATM  103  H79 UNL     1       5.961   0.347   1.733  1.00  0.00     0.313 HD
HETATM  104  H80 UNL     1       5.350   1.724   2.386  1.00  0.00     0.313 HD
ENDROOT
TORSDOF 40
