REMARK  0 active torsions:
REMARK  status: ('A' for Active; 'I' for Inactive)
REMARK       I    between atoms: C2_2  and  C3_3 
REMARK       I    between atoms: C3_3  and  C5_5 
REMARK       I    between atoms: C5_5  and  C6_6 
REMARK       I    between atoms: C5_5  and  N5_60 
REMARK       I    between atoms: C6_6  and  N1_56 
REMARK       I    between atoms: C7_7  and  C8_8 
REMARK       I    between atoms: C7_7  and  C15_15 
REMARK       I    between atoms: C7_7  and  N1_56 
REMARK       I    between atoms: C8_8  and  C9_9 
REMARK       I    between atoms: C12_12  and  O2_42 
REMARK       I    between atoms: C15_15  and  N2_57 
REMARK       I    between atoms: C16_16  and  C17_17 
REMARK       I    between atoms: C16_16  and  C18_18 
REMARK       I    between atoms: C16_16  and  N2_57 
REMARK       I    between atoms: C17_17  and  O4_44 
REMARK       I    between atoms: C18_18  and  N3_58 
REMARK       I    between atoms: C19_19  and  C20_20 
REMARK       I    between atoms: C19_19  and  C22_22 
REMARK       I    between atoms: C19_19  and  N3_58 
REMARK       I    between atoms: C20_20  and  C21_21 
REMARK       I    between atoms: C21_21  and  N4_59 
REMARK       I    between atoms: C22_22  and  O8_48 
REMARK       I    between atoms: C23_23  and  C24_24 
REMARK       I    between atoms: C23_23  and  N5_60 
REMARK       I    between atoms: C28_28  and  C29_29 
REMARK       I    between atoms: C28_28  and  N6_61 
REMARK       I    between atoms: C29_29  and  C30_30 
REMARK       I    between atoms: C29_29  and  N7_62 
REMARK       I    between atoms: C30_30  and  C31_31 
REMARK       I    between atoms: C31_31  and  O12_52 
REMARK       I    between atoms: C32_32  and  C33_33 
REMARK       I    between atoms: C32_32  and  N7_62 
REMARK       I    between atoms: C33_33  and  C34_34 
REMARK       I    between atoms: C33_33  and  N11_67 
REMARK       I    between atoms: C34_34  and  C35_35 
REMARK       I    between atoms: C35_35  and  C36_36 
REMARK       I    between atoms: C36_36  and  N8_63 
REMARK       I    between atoms: C37_37  and  N9_65 
REMARK       I    between atoms: C37_37  and  N10_66 
REMARK       I    between atoms: C38_38  and  C39_39 
REMARK       I    between atoms: C38_38  and  N11_67 
REMARK       I    between atoms: C39_39  and  C40_40 
REMARK       I    between atoms: C39_39  and  N12_68 
REMARK       I    between atoms: C40_40  and  O15_55 
ROOT
HETATM    1  C1  UNL     1       0.618  -4.315  -5.701  1.00  0.00     0.005 C 
HETATM    2  C2  UNL     1       0.939  -4.052  -4.235  1.00  0.00     0.002 C 
HETATM    3  C3  UNL     1       2.159  -3.125  -4.017  1.00  0.00     0.013 C 
HETATM    4  C4  UNL     1       3.436  -3.764  -4.578  1.00  0.00     0.012 C 
HETATM    5  C5  UNL     1       2.324  -2.792  -2.514  1.00  0.00     0.180 C 
HETATM    6  C6  UNL     1       3.503  -1.812  -2.264  1.00  0.00     0.241 C 
HETATM    7  C7  UNL     1       4.072   0.556  -1.920  1.00  0.00     0.180 C 
HETATM    8  C8  UNL     1       3.725   1.984  -2.384  1.00  0.00     0.073 C 
HETATM    9  C9  UNL     1       2.243   2.299  -2.435  1.00  0.00    -0.056 A 
HETATM   10  C10 UNL     1       1.520   2.058  -3.613  1.00  0.00     0.010 A 
HETATM   11  C11 UNL     1       0.136   2.229  -3.642  1.00  0.00     0.037 A 
HETATM   12  C12 UNL     1      -0.532   2.640  -2.494  1.00  0.00     0.065 A 
HETATM   13  C13 UNL     1       0.172   2.932  -1.333  1.00  0.00     0.037 A 
HETATM   14  C14 UNL     1       1.559   2.763  -1.303  1.00  0.00     0.010 A 
HETATM   15  C15 UNL     1       3.993   0.438  -0.386  1.00  0.00     0.241 C 
HETATM   16  C16 UNL     1       5.302  -0.258   1.584  1.00  0.00     0.200 C 
HETATM   17  C17 UNL     1       5.003  -1.766   1.598  1.00  0.00     0.199 C 
HETATM   18  C18 UNL     1       6.713   0.036   2.126  1.00  0.00     0.243 C 
HETATM   19  C19 UNL     1       8.190   0.004   4.106  1.00  0.00     0.191 C 
HETATM   20  C20 UNL     1       8.101   0.425   5.571  1.00  0.00     0.138 C 
HETATM   21  C21 UNL     1       8.073   1.924   5.738  1.00  0.00     0.217 C 
HETATM   22  C22 UNL     1       8.850  -1.369   4.053  1.00  0.00     0.164 C 
HETATM   23  C23 UNL     1       0.875  -2.035  -0.636  1.00  0.00     0.241 C 
HETATM   24  C24 UNL     1      -0.128  -0.915  -0.271  1.00  0.00     0.179 C 
HETATM   25  C25 UNL     1      -0.306  -0.765   1.243  1.00  0.00     0.037 C 
HETATM   26  C26 UNL     1      -1.535  -1.617   1.530  1.00  0.00     0.022 C 
HETATM   27  C27 UNL     1      -2.420  -1.322   0.331  1.00  0.00     0.127 C 
HETATM   28  C28 UNL     1      -1.831  -0.933  -2.103  1.00  0.00     0.243 C 
HETATM   29  C29 UNL     1      -3.338  -0.902  -2.450  1.00  0.00     0.186 C 
HETATM   30  C30 UNL     1      -3.601  -1.026  -3.951  1.00  0.00     0.144 C 
HETATM   31  C31 UNL     1      -3.112   0.140  -4.764  1.00  0.00     0.141 C 
HETATM   32  C32 UNL     1      -5.272   0.279  -1.456  1.00  0.00     0.241 C 
HETATM   33  C33 UNL     1      -5.801   1.517  -0.679  1.00  0.00     0.176 C 
HETATM   34  C34 UNL     1      -4.751   2.449  -0.049  1.00  0.00     0.036 C 
HETATM   35  C35 UNL     1      -5.325   3.736   0.568  1.00  0.00     0.022 C 
HETATM   36  C36 UNL     1      -5.791   3.602   2.017  1.00  0.00     0.121 C 
HETATM   37  C37 UNL     1      -4.729   2.590   3.883  1.00  0.00     0.121 C 
HETATM   38  C38 UNL     1      -6.479   0.224   1.324  1.00  0.00     0.253 C 
HETATM   39  C39 UNL     1      -7.665  -0.377   2.121  1.00  0.00     0.332 C 
HETATM   40  C40 UNL     1      -8.786   0.628   2.441  1.00  0.00     0.209 C 
HETATM   41  O1  UNL     1       4.641  -2.181  -1.978  1.00  0.00    -0.271 OA
HETATM   42  O2  UNL     1      -1.894   2.735  -2.466  1.00  0.00    -0.361 OA
HETATM   43  O3  UNL     1       2.929   0.402   0.231  1.00  0.00    -0.271 OA
HETATM   44  O4  UNL     1       5.817  -2.471   0.659  1.00  0.00    -0.398 OA
HETATM   45  O5  UNL     1       7.636   0.399   1.396  1.00  0.00    -0.271 OA
HETATM   46  O6  UNL     1       8.172   2.740   4.832  1.00  0.00    -0.274 OA
HETATM   47  O7  UNL     1       8.274  -2.443   4.159  1.00  0.00    -0.648 OA
HETATM   48  O8  UNL     1      10.192  -1.318   3.951  1.00  0.00    -0.775 OA
HETATM   49  O9  UNL     1       1.484  -2.711   0.188  1.00  0.00    -0.271 OA
HETATM   50  O10 UNL     1      -0.967  -0.790  -2.973  1.00  0.00    -0.271 OA
HETATM   51  O11 UNL     1      -2.946   1.294  -4.400  1.00  0.00    -0.650 OA
HETATM   52  O12 UNL     1      -2.915  -0.201  -6.054  1.00  0.00    -0.776 OA
HETATM   53  O13 UNL     1      -6.028  -0.652  -1.755  1.00  0.00    -0.271 OA
HETATM   54  O14 UNL     1      -5.311  -0.067   1.589  1.00  0.00    -0.271 OA
HETATM   55  O15 UNL     1      -8.381   1.616   3.397  1.00  0.00    -0.398 OA
HETATM   56  N1  UNL     1       3.186  -0.475  -2.458  1.00  0.00    -0.346 N 
HETATM   57  N2  UNL     1       5.210   0.283   0.231  1.00  0.00    -0.344 N 
HETATM   58  N3  UNL     1       6.860  -0.120   3.494  1.00  0.00    -0.344 N 
HETATM   59  N4  UNL     1       7.925   2.338   7.031  1.00  0.00    -0.370 N 
HETATM   60  N5  UNL     1       1.126  -2.125  -1.992  1.00  0.00    -0.346 N 
HETATM   61  N6  UNL     1      -1.490  -1.139  -0.779  1.00  0.00    -0.337 N 
HETATM   62  N7  UNL     1      -3.958   0.276  -1.846  1.00  0.00    -0.346 N 
HETATM   63  N8  UNL     1      -4.634   3.358   2.868  1.00  0.00    -0.372 N 
ATOM     64  H8  UNL     1      -3.742   3.804   2.651  1.00  0.00     0.161 HD
HETATM   65  N9  UNL     1      -3.635   2.372   4.646  1.00  0.00    -0.279 NA
HETATM   66  N10 UNL     1      -5.768   1.887   4.384  1.00  0.00    -0.279 NA
HETATM   67  N11 UNL     1      -6.824   1.019   0.246  1.00  0.00    -0.346 N 
HETATM   68  N12 UNL     1      -7.151  -0.980   3.378  1.00  0.00     0.094 N 
HETATM   69  H44 UNL     1      -2.235   2.402  -3.326  1.00  0.00     0.217 HD
HETATM   70  H45 UNL     1       5.413  -2.355  -0.229  1.00  0.00     0.209 HD
HETATM   71  H46 UNL     1      10.464  -2.256   3.867  1.00  0.00     0.167 HD
HETATM   72  H47 UNL     1      -2.634   0.622  -6.504  1.00  0.00     0.167 HD
HETATM   73  H48 UNL     1      -9.200   2.051   3.696  1.00  0.00     0.209 HD
HETATM   74  H49 UNL     1       2.197  -0.282  -2.342  1.00  0.00     0.163 HD
HETATM   75  H50 UNL     1       6.051   0.152  -0.326  1.00  0.00     0.163 HD
HETATM   76  H51 UNL     1       6.221  -0.763   3.946  1.00  0.00     0.163 HD
HETATM   77  H52 UNL     1       7.961   3.336   7.201  1.00  0.00     0.159 HD
HETATM   78  H53 UNL     1       8.004   1.715   7.823  1.00  0.00     0.159 HD
HETATM   79  H54 UNL     1       0.555  -1.550  -2.616  1.00  0.00     0.163 HD
HETATM   80  H55 UNL     1      -3.349   1.062  -1.631  1.00  0.00     0.163 HD
HETATM   81  H56 UNL     1      -3.501   1.382   4.815  1.00  0.00     0.126 HD
HETATM   82  H57 UNL     1      -2.823   2.758   4.174  1.00  0.00     0.126 HD
HETATM   83  H58 UNL     1      -6.683   2.097   3.982  1.00  0.00     0.126 HD
HETATM   84  H59 UNL     1      -5.806   1.928   5.395  1.00  0.00     0.126 HD
HETATM   85  H60 UNL     1      -7.699   0.774  -0.200  1.00  0.00     0.163 HD
HETATM   86  H61 UNL     1      -6.809  -0.193   3.944  1.00  0.00     0.314 HD
HETATM   87  H62 UNL     1      -6.285  -1.471   3.132  1.00  0.00     0.314 HD
ENDROOT
TORSDOF 34
