REMARK  13 active torsions:
REMARK  status: ('A' for Active; 'I' for Inactive)
REMARK    1  A    between atoms: C2_2  and  O1_36 
REMARK    2  A    between atoms: C3_3  and  C4_4 
REMARK    3  A    between atoms: C3_3  and  O1_36 
REMARK    4  A    between atoms: C4_4  and  O2_37 
REMARK    5  A    between atoms: C5_5  and  O2_37 
REMARK    6  A    between atoms: C6_6  and  O4_39 
REMARK       I    between atoms: C13_13  and  N1_42 
REMARK       I    between atoms: C13_13  and  N2_43 
REMARK    7  A    between atoms: C15_15  and  O4_39 
REMARK    8  A    between atoms: C17_17  and  N4_46 
REMARK    9  A    between atoms: C20_20  and  C21_21 
REMARK       I    between atoms: C20_20  and  N4_46 
REMARK   10  A    between atoms: C24_24  and  C27_27 
REMARK   11  A    between atoms: C32_32  and  C33_33 
REMARK   12  A    between atoms: C32_32  and  N5_47 
REMARK   13  A    between atoms: C33_33  and  O6_41 
ROOT
HETATM    1  C15 UNL     1      -5.039   2.027   2.309  1.00  0.00     0.081 A 
HETATM    2  C16 UNL     1      -3.818   1.741   1.699  1.00  0.00     0.085 A 
HETATM    3  C17 UNL     1      -2.886   2.759   1.591  1.00  0.00     0.110 A 
HETATM    4  C18 UNL     1      -4.317   4.263   2.608  1.00  0.00     0.092 A 
HETATM    5  C19 UNL     1      -5.306   3.313   2.757  1.00  0.00     0.054 A 
HETATM    6  N3  UNL     1      -3.115   4.013   2.043  1.00  0.00    -0.352 N 
ATOM      7  H3  UNL     1      -2.407   4.743   1.961  1.00  0.00     0.166 HD
ENDROOT
BRANCH   3   8
HETATM    8  N4  UNL     1      -1.634   2.622   0.990  1.00  0.00    -0.309 N 
HETATM    9  C20 UNL     1      -1.060   1.493   0.458  1.00  0.00     0.257 C 
HETATM   10  O5  UNL     1      -1.523   0.358   0.476  1.00  0.00    -0.267 OA
HETATM   11  H43 UNL     1      -1.113   3.486   1.021  1.00  0.00     0.170 HD
BRANCH   9  12
HETATM   12  C21 UNL     1       0.272   1.704  -0.175  1.00  0.00     0.032 A 
HETATM   13  C22 UNL     1       1.214   0.672  -0.108  1.00  0.00     0.017 A 
HETATM   14  C23 UNL     1       2.473   0.830  -0.694  1.00  0.00     0.008 A 
HETATM   15  C24 UNL     1       2.807   2.015  -1.366  1.00  0.00    -0.054 A 
HETATM   16  C25 UNL     1       1.848   3.037  -1.444  1.00  0.00     0.008 A 
HETATM   17  C26 UNL     1       0.588   2.884  -0.857  1.00  0.00     0.017 A 
BRANCH  15  18
HETATM   18  C27 UNL     1       4.168   2.206  -2.014  1.00  0.00     0.022 C 
HETATM   19  C28 UNL     1       5.312   2.147  -0.993  1.00  0.00     0.039 C 
HETATM   20  C29 UNL     1       6.666   2.311  -1.684  1.00  0.00     0.273 C 
HETATM   21  N5  UNL     1       6.856   1.284  -2.722  1.00  0.00     0.091 N 
HETATM   22  C30 UNL     1       5.810   1.389  -3.749  1.00  0.00     0.273 C 
HETATM   23  C31 UNL     1       4.418   1.198  -3.143  1.00  0.00     0.039 C 
BRANCH  21  24
HETATM   24  C32 UNL     1       8.201   1.373  -3.322  1.00  0.00     0.309 C 
BRANCH  24  25
HETATM   25  C33 UNL     1       9.216   0.312  -2.805  1.00  0.00     0.077 C 
HETATM   26  C34 UNL     1       8.728  -1.115  -3.077  1.00  0.00     0.047 C 
HETATM   27  C35 UNL     1       9.541   0.477  -1.321  1.00  0.00     0.047 C 
BRANCH  25  28
HETATM   28  O6  UNL     1      10.453   0.496  -3.515  1.00  0.00    -0.389 OA
HETATM   29  H41 UNL     1      10.299   0.254  -4.445  1.00  0.00     0.210 HD
ENDBRANCH  25  28
ENDBRANCH  24  25
ENDBRANCH  21  24
ENDBRANCH  15  18
ENDBRANCH   9  12
ENDBRANCH   3   8
BRANCH   1  30
HETATM   30  O4  UNL     1      -6.062   1.112   2.445  1.00  0.00    -0.308 OA
BRANCH  30  31
HETATM   31  C6  UNL     1      -5.696  -0.182   2.750  1.00  0.00     0.110 A 
HETATM   32  C5  UNL     1      -5.870  -1.187   1.797  1.00  0.00     0.104 A 
HETATM   33  C12 UNL     1      -5.556  -2.513   2.119  1.00  0.00     0.070 A 
HETATM   34  C11 UNL     1      -5.044  -2.806   3.403  1.00  0.00     0.056 A 
HETATM   35  C8  UNL     1      -4.873  -1.797   4.358  1.00  0.00    -0.005 A 
HETATM   36  N1  UNL     1      -4.654  -4.025   3.984  1.00  0.00    -0.274 N 
HETATM   37  C7  UNL     1      -5.213  -0.470   4.032  1.00  0.00     0.054 A 
HETATM   38  C9  UNL     1      -4.355  -2.400   5.526  1.00  0.00     0.031 A 
HETATM   39  C10 UNL     1      -4.212  -3.742   5.273  1.00  0.00     0.103 A 
HETATM   40  C13 UNL     1      -4.688  -5.297   3.348  1.00  0.00     0.326 C 
HETATM   41  O3  UNL     1      -4.914  -5.396   2.150  1.00  0.00    -0.246 OA
HETATM   42  N2  UNL     1      -4.473  -6.350   4.214  1.00  0.00    -0.347 N 
HETATM   43  C14 UNL     1      -4.575  -7.704   3.730  1.00  0.00     0.151 C 
HETATM   44  H42 UNL     1      -4.587  -6.211   5.207  1.00  0.00     0.163 HD
BRANCH  32  45
HETATM   45  O2  UNL     1      -6.372  -0.799   0.580  1.00  0.00    -0.346 OA
BRANCH  45  46
HETATM   46  C4  UNL     1      -5.953  -1.583  -0.541  1.00  0.00     0.201 C 
BRANCH  46  47
HETATM   47  C3  UNL     1      -6.221  -0.800  -1.830  1.00  0.00     0.194 C 
BRANCH  47  48
HETATM   48  O1  UNL     1      -5.481   0.419  -1.947  1.00  0.00    -0.389 OA
BRANCH  48  49
HETATM   49  C2  UNL     1      -4.077   0.230  -2.099  1.00  0.00     0.163 C 
HETATM   50  C1  UNL     1      -3.450   1.572  -2.425  1.00  0.00     0.033 C 
ENDBRANCH  48  49
ENDBRANCH  47  48
ENDBRANCH  46  47
ENDBRANCH  45  46
ENDBRANCH  32  45
ENDBRANCH  30  31
ENDBRANCH   1  30
TORSDOF 13
