REMARK  26 active torsions:
REMARK  status: ('A' for Active; 'I' for Inactive)
REMARK    1  A    between atoms: C3_3  and  C16_16 
REMARK    2  A    between atoms: C5_5  and  S1_50 
REMARK    3  A    between atoms: C8_8  and  N1_62 
REMARK    4  A    between atoms: C11_11  and  N2_63 
REMARK    5  A    between atoms: C14_14  and  N3_64 
REMARK    6  A    between atoms: C18_18  and  C22_22 
REMARK    7  A    between atoms: C22_22  and  O4_56 
REMARK    8  A    between atoms: C23_23  and  C24_24 
REMARK    9  A    between atoms: C23_23  and  N4_65 
REMARK   10  A    between atoms: C24_24  and  S2_51 
REMARK   11  A    between atoms: C25_25  and  C26_26 
REMARK   12  A    between atoms: C25_25  and  S2_51 
REMARK   13  A    between atoms: C26_26  and  N5_66 
REMARK   14  A    between atoms: C27_27  and  C28_28 
REMARK       I    between atoms: C27_27  and  N5_66 
REMARK   15  A    between atoms: C33_33  and  C34_34 
REMARK   16  A    between atoms: C33_33  and  N6_67 
REMARK       I    between atoms: C34_34  and  N7_68 
REMARK   17  A    between atoms: C35_35  and  N7_68 
REMARK   18  A    between atoms: C39_39  and  S3_52 
REMARK   19  A    between atoms: C42_42  and  N8_69 
REMARK   20  A    between atoms: C45_45  and  N9_70 
REMARK   21  A    between atoms: C48_48  and  N10_71 
REMARK   22  A    between atoms: S1_50  and  N1_62 
REMARK   23  A    between atoms: S3_52  and  N8_69 
REMARK   24  A    between atoms: O4_56  and  N4_65 
REMARK   25  A    between atoms: N2_63  and  N3_64 
REMARK   26  A    between atoms: N9_70  and  N10_71 
ROOT
HETATM    1  C26 UNL     1       0.947  -1.941   5.315  1.00  0.00     0.133 C 
ENDROOT
BRANCH   1   2
HETATM    2  C25 UNL     1       1.565  -0.544   5.163  1.00  0.00     0.093 C 
BRANCH   2   3
HETATM    3  S2  UNL     1       0.421   0.602   4.296  1.00  0.00    -0.166 SA
BRANCH   3   4
HETATM    4  C24 UNL     1       0.804   2.161   5.186  1.00  0.00     0.090 C 
BRANCH   4   5
HETATM    5  C23 UNL     1       2.240   2.670   5.010  1.00  0.00     0.127 C 
BRANCH   5   6
HETATM    6  N4  UNL     1       2.561   2.927   3.602  1.00  0.00    -0.205 NA
HETATM    7  H50 UNL     1       2.605   2.031   3.111  1.00  0.00     0.153 HD
BRANCH   6   8
HETATM    8  O4  UNL     1       3.967   3.330   3.604  1.00  0.00    -0.301 OA
BRANCH   8   9
HETATM    9  C22 UNL     1       4.117   4.575   2.903  1.00  0.00     0.232 C 
BRANCH   9  10
HETATM   10  C18 UNL     1       4.675   4.320   1.524  1.00  0.00    -0.032 A 
HETATM   11  C17 UNL     1       3.878   3.704   0.548  1.00  0.00     0.021 A 
HETATM   12  C16 UNL     1       4.382   3.408  -0.729  1.00  0.00    -0.024 A 
HETATM   13  C21 UNL     1       5.701   3.773  -1.031  1.00  0.00     0.012 A 
HETATM   14  C20 UNL     1       6.498   4.403  -0.074  1.00  0.00     0.002 A 
HETATM   15  C19 UNL     1       5.991   4.668   1.199  1.00  0.00     0.009 A 
BRANCH  12  16
HETATM   16  C3  UNL     1       3.539   2.689  -1.704  1.00  0.00    -0.013 A 
HETATM   17  C2  UNL     1       2.884   3.405  -2.739  1.00  0.00    -0.050 A 
HETATM   18  C1  UNL     1       3.077   4.891  -2.918  1.00  0.00     0.049 C 
HETATM   19  C7  UNL     1       2.035   2.731  -3.626  1.00  0.00     0.009 A 
HETATM   20  C6  UNL     1       1.792   1.371  -3.475  1.00  0.00     0.026 A 
HETATM   21  C5  UNL     1       2.428   0.649  -2.458  1.00  0.00     0.086 A 
HETATM   22  C4  UNL     1       3.340   1.282  -1.582  1.00  0.00    -0.027 A 
HETATM   23  C15 UNL     1       4.071   0.513  -0.504  1.00  0.00     0.050 C 
BRANCH  21  24
HETATM   24  S1  UNL     1       1.952  -1.061  -2.268  1.00  0.00     0.263 S 
HETATM   25  O1  UNL     1       0.686  -1.269  -2.949  1.00  0.00    -0.200 OA
HETATM   26  O2  UNL     1       1.998  -1.402  -0.861  1.00  0.00    -0.200 OA
BRANCH  24  27
HETATM   27  N1  UNL     1       3.164  -1.935  -3.044  1.00  0.00    -0.281 N 
HETATM   28  H47 UNL     1       3.962  -2.123  -2.436  1.00  0.00     0.179 HD
BRANCH  27  29
HETATM   29  C8  UNL     1       3.471  -1.593  -4.393  1.00  0.00     0.042 A 
HETATM   30  C9  UNL     1       4.670  -0.941  -4.676  1.00  0.00     0.032 A 
HETATM   31  C10 UNL     1       4.946  -0.527  -5.983  1.00  0.00     0.027 A 
HETATM   32  C11 UNL     1       4.019  -0.729  -7.015  1.00  0.00     0.027 A 
HETATM   33  C12 UNL     1       2.843  -1.434  -6.718  1.00  0.00     0.027 A 
HETATM   34  C13 UNL     1       2.561  -1.848  -5.414  1.00  0.00     0.032 A 
BRANCH  32  35
HETATM   35  N2  UNL     1       4.279  -0.377  -8.365  1.00  0.00    -0.204 NA
HETATM   36  H48 UNL     1       3.390  -0.244  -8.867  1.00  0.00     0.153 HD
BRANCH  35  37
HETATM   37  N3  UNL     1       5.082   0.775  -8.498  1.00  0.00    -0.294 N 
HETATM   38  H49 UNL     1       6.067   0.601  -8.674  1.00  0.00     0.183 HD
BRANCH  37  39
HETATM   39  C14 UNL     1       4.472   1.886  -9.045  1.00  0.00     0.364 C 
HETATM   40  O3  UNL     1       3.267   2.010  -9.223  1.00  0.00    -0.282 OA
ENDBRANCH  37  39
ENDBRANCH  35  37
ENDBRANCH  32  35
ENDBRANCH  27  29
ENDBRANCH  24  27
ENDBRANCH  21  24
ENDBRANCH  12  16
ENDBRANCH   9  10
ENDBRANCH   8   9
ENDBRANCH   6   8
ENDBRANCH   5   6
ENDBRANCH   4   5
ENDBRANCH   3   4
ENDBRANCH   2   3
ENDBRANCH   1   2
BRANCH   1  41
HETATM   41  N5  UNL     1       0.458  -2.489   4.059  1.00  0.00    -0.356 N 
HETATM   42  C27 UNL     1       1.308  -3.060   3.142  1.00  0.00     0.253 C 
HETATM   43  O5  UNL     1       2.482  -3.327   3.355  1.00  0.00    -0.268 OA
HETATM   44  H51 UNL     1      -0.512  -2.293   3.844  1.00  0.00     0.162 HD
BRANCH  42  45
HETATM   45  C28 UNL     1       0.729  -3.348   1.817  1.00  0.00     0.047 A 
HETATM   46  C29 UNL     1      -0.095  -2.417   1.199  1.00  0.00     0.108 A 
HETATM   47  N6  UNL     1      -0.630  -2.669  -0.023  1.00  0.00    -0.357 N 
HETATM   48  C30 UNL     1      -0.330  -3.812  -0.681  1.00  0.00     0.091 A 
HETATM   49  C31 UNL     1       0.519  -4.758  -0.111  1.00  0.00     0.018 A 
HETATM   50  C32 UNL     1       1.058  -4.524   1.149  1.00  0.00     0.020 A 
BRANCH  47  51
HETATM   51  C33 UNL     1      -1.507  -1.662  -0.663  1.00  0.00     0.230 C 
BRANCH  51  52
HETATM   52  C34 UNL     1      -2.664  -1.254   0.231  1.00  0.00     0.240 C 
HETATM   53  O6  UNL     1      -2.991  -1.948   1.189  1.00  0.00    -0.271 OA
HETATM   54  N7  UNL     1      -3.241  -0.046  -0.149  1.00  0.00    -0.325 N 
HETATM   55  H52 UNL     1      -3.106   0.223  -1.117  1.00  0.00     0.169 HD
BRANCH  54  56
HETATM   56  C35 UNL     1      -4.325   0.602   0.509  1.00  0.00     0.048 C 
HETATM   57  C36 UNL     1      -5.256   1.286  -0.317  1.00  0.00    -0.035 C 
HETATM   58  C37 UNL     1      -6.403   1.856   0.251  1.00  0.00     0.011 C 
HETATM   59  C49 UNL     1      -5.090   1.405  -1.812  1.00  0.00     0.050 C 
HETATM   60  C38 UNL     1      -6.658   1.715   1.607  1.00  0.00     0.026 C 
HETATM   61  C39 UNL     1      -5.735   1.058   2.431  1.00  0.00     0.088 C 
HETATM   62  C40 UNL     1      -4.501   0.599   1.915  1.00  0.00    -0.011 C 
HETATM   63  C41 UNL     1      -3.379   0.237   2.854  1.00  0.00     0.052 C 
BRANCH  61  64
HETATM   64  S3  UNL     1      -6.286   0.758   4.117  1.00  0.00     0.263 S 
HETATM   65  O7  UNL     1      -6.996   1.944   4.547  1.00  0.00    -0.200 OA
HETATM   66  O8  UNL     1      -5.213   0.204   4.913  1.00  0.00    -0.200 OA
BRANCH  64  67
HETATM   67  N8  UNL     1      -7.464  -0.449   3.898  1.00  0.00    -0.281 N 
HETATM   68  H53 UNL     1      -8.393  -0.048   3.781  1.00  0.00     0.179 HD
BRANCH  67  69
HETATM   69  C42 UNL     1      -7.118  -1.576   3.099  1.00  0.00     0.042 A 
HETATM   70  C43 UNL     1      -7.657  -1.695   1.819  1.00  0.00     0.032 A 
HETATM   71  C44 UNL     1      -7.210  -2.709   0.967  1.00  0.00     0.027 A 
HETATM   72  C45 UNL     1      -6.220  -3.616   1.375  1.00  0.00     0.027 A 
HETATM   73  C46 UNL     1      -5.746  -3.523   2.691  1.00  0.00     0.027 A 
HETATM   74  C47 UNL     1      -6.174  -2.497   3.540  1.00  0.00     0.032 A 
BRANCH  72  75
HETATM   75  N9  UNL     1      -5.836  -4.634   0.465  1.00  0.00    -0.204 NA
HETATM   76  H54 UNL     1      -5.733  -4.250  -0.479  1.00  0.00     0.153 HD
BRANCH  75  77
HETATM   77  N10 UNL     1      -4.737  -5.399   0.862  1.00  0.00    -0.294 N 
HETATM   78  H55 UNL     1      -4.960  -6.228   1.407  1.00  0.00     0.183 HD
BRANCH  77  79
HETATM   79  C48 UNL     1      -3.569  -5.305   0.142  1.00  0.00     0.364 C 
HETATM   80  O9  UNL     1      -3.294  -4.474  -0.719  1.00  0.00    -0.282 OA
ENDBRANCH  77  79
ENDBRANCH  75  77
ENDBRANCH  72  75
ENDBRANCH  67  69
ENDBRANCH  64  67
ENDBRANCH  61  64
ENDBRANCH  54  56
ENDBRANCH  51  52
ENDBRANCH  47  51
ENDBRANCH  42  45
ENDBRANCH   1  41
TORSDOF 26
