REMARK  23 active torsions:
REMARK  status: ('A' for Active; 'I' for Inactive)
REMARK    1  A    between atoms: C2_2  and  C3_3 
REMARK    2  A    between atoms: C3_3  and  C5_5 
REMARK    3  A    between atoms: C12_12  and  C38_38 
REMARK    4  A    between atoms: C18_18  and  C34_34 
REMARK    5  A    between atoms: C20_20  and  C24_24 
REMARK    6  A    between atoms: C24_24  and  C25_25 
REMARK    7  A    between atoms: C26_26  and  S1_86 
REMARK    8  A    between atoms: C34_34  and  C36_36 
REMARK    9  A    between atoms: C36_36  and  C37_37 
REMARK   10  A    between atoms: C36_36  and  O8_66 
REMARK   11  A    between atoms: C37_37  and  O7_65 
REMARK   12  A    between atoms: C38_38  and  C39_39 
REMARK       I    between atoms: C39_39  and  N9_81 
REMARK   13  A    between atoms: C40_40  and  C41_41 
REMARK   14  A    between atoms: C40_40  and  N9_81 
REMARK   15  A    between atoms: C44_44  and  N10_82 
REMARK   16  A    between atoms: C47_47  and  C48_48 
REMARK       I    between atoms: C47_47  and  N10_82 
REMARK   17  A    between atoms: C48_48  and  N11_83 
REMARK   18  A    between atoms: C50_50  and  C51_51 
REMARK       I    between atoms: C50_50  and  N11_83 
REMARK   19  A    between atoms: C51_51  and  N12_84 
REMARK   20  A    between atoms: C52_52  and  C53_53 
REMARK       I    between atoms: C52_52  and  N12_84 
REMARK   21  A    between atoms: C53_53  and  C54_54 
REMARK   22  A    between atoms: C54_54  and  N13_85 
REMARK   23  A    between atoms: C57_57  and  S2_87 
ROOT
HETATM    1  C5  UNL     1      -7.277  -3.884   0.385  1.00  0.00     0.180 C 
HETATM    2  C6  UNL     1      -6.888  -3.748  -1.109  1.00  0.00     0.241 C 
HETATM    3  C7  UNL     1      -5.117  -3.076  -2.651  1.00  0.00     0.173 C 
HETATM    4  C8  UNL     1      -3.802  -2.210  -2.616  1.00  0.00     0.002 A 
HETATM    5  C9  UNL     1      -3.563  -0.919  -2.281  1.00  0.00     0.023 A 
HETATM    6  C10 UNL     1      -2.104  -1.147  -2.555  1.00  0.00     0.177 A 
HETATM    7  C11 UNL     1      -1.176  -0.958  -1.285  1.00  0.00     0.240 C 
HETATM    8  C12 UNL     1       0.554   0.560  -0.292  1.00  0.00     0.179 C 
HETATM    9  C13 UNL     1       0.361   1.987   0.287  1.00  0.00     0.223 C 
HETATM   10  C14 UNL     1      -1.520   2.867  -1.162  1.00  0.00     0.100 C 
HETATM   11  C15 UNL     1      -2.187   4.066  -0.497  1.00  0.00     0.035 C 
HETATM   12  C16 UNL     1      -1.252   3.875   0.705  1.00  0.00     0.067 C 
HETATM   13  C17 UNL     1      -1.881   3.778   2.105  1.00  0.00     0.034 C 
HETATM   14  C18 UNL     1      -2.322   2.367   2.539  1.00  0.00     0.085 C 
HETATM   15  C19 UNL     1      -3.393   1.760   1.637  1.00  0.00     0.223 C 
HETATM   16  C20 UNL     1      -5.755   1.749   1.075  1.00  0.00     0.180 C 
HETATM   17  C21 UNL     1      -6.115   0.809   2.247  1.00  0.00     0.241 C 
HETATM   18  C22 UNL     1      -5.828  -1.525   3.043  1.00  0.00     0.225 C 
HETATM   19  C23 UNL     1      -6.194  -2.869   2.406  1.00  0.00     0.236 C 
HETATM   20  O1  UNL     1      -7.550  -4.232  -2.024  1.00  0.00    -0.271 OA
HETATM   21  O2  UNL     1      -1.130  -1.731  -0.323  1.00  0.00    -0.271 OA
HETATM   22  O3  UNL     1       1.219   2.490   1.019  1.00  0.00    -0.277 OA
HETATM   23  O4  UNL     1      -3.251   0.662   1.098  1.00  0.00    -0.273 OA
HETATM   24  O5  UNL     1      -6.570   1.200   3.320  1.00  0.00    -0.271 OA
HETATM   25  O6  UNL     1      -6.092  -3.934   3.007  1.00  0.00    -0.272 OA
HETATM   26  N1  UNL     1      -5.668  -3.137  -1.323  1.00  0.00    -0.354 N 
HETATM   27  N2  UNL     1      -2.535  -2.505  -2.842  1.00  0.00    -0.279 NA
HETATM   28  N3  UNL     1      -0.352   0.151  -1.362  1.00  0.00    -0.346 N 
HETATM   29  N4  UNL     1      -0.874   2.581   0.119  1.00  0.00    -0.247 NA
HETATM   30  N5  UNL     1      -4.567   2.467   1.525  1.00  0.00    -0.347 N 
HETATM   31  N6  UNL     1      -5.707  -0.491   2.026  1.00  0.00    -0.351 N 
HETATM   32  N7  UNL     1      -6.727  -2.761   1.142  1.00  0.00    -0.346 N 
HETATM   33  H66 UNL     1      -5.041  -3.051  -0.531  1.00  0.00     0.162 HD
HETATM   34  H67 UNL     1      -2.082  -3.189  -2.231  1.00  0.00     0.128 HD
HETATM   35  H68 UNL     1      -0.327   0.707  -2.211  1.00  0.00     0.163 HD
HETATM   36  H69 UNL     1      -4.723   3.160   2.262  1.00  0.00     0.163 HD
HETATM   37  H70 UNL     1      -4.903  -0.580   1.400  1.00  0.00     0.163 HD
HETATM   38  H71 UNL     1      -6.854  -1.823   0.770  1.00  0.00     0.163 HD
ENDROOT
BRANCH   8  39
HETATM   39  C38 UNL     1       2.016   0.363  -0.700  1.00  0.00     0.137 C 
BRANCH  39  40
HETATM   40  C39 UNL     1       2.394   1.281  -1.845  1.00  0.00     0.220 C 
HETATM   41  O9  UNL     1       1.564   1.815  -2.577  1.00  0.00    -0.274 OA
HETATM   42  N9  UNL     1       3.751   1.406  -2.023  1.00  0.00    -0.357 N 
HETATM   43  H73 UNL     1       4.368   1.127  -1.270  1.00  0.00     0.162 HD
BRANCH  42  44
HETATM   44  C40 UNL     1       4.284   2.320  -3.006  1.00  0.00     0.161 C 
BRANCH  44  45
HETATM   45  C41 UNL     1       5.770   2.141  -3.146  1.00  0.00    -0.040 A 
HETATM   46  C42 UNL     1       6.659   2.957  -2.437  1.00  0.00     0.011 A 
HETATM   47  C43 UNL     1       8.042   2.770  -2.544  1.00  0.00     0.030 A 
HETATM   48  C44 UNL     1       8.560   1.761  -3.356  1.00  0.00     0.034 A 
HETATM   49  C45 UNL     1       7.672   0.936  -4.057  1.00  0.00     0.030 A 
HETATM   50  C46 UNL     1       6.290   1.121  -3.951  1.00  0.00     0.011 A 
BRANCH  48  51
HETATM   51  N10 UNL     1       9.935   1.504  -3.514  1.00  0.00    -0.325 N 
HETATM   52  C47 UNL     1      11.001   2.175  -2.933  1.00  0.00     0.244 C 
HETATM   53  O10 UNL     1      10.931   3.188  -2.242  1.00  0.00    -0.271 OA
HETATM   54  H74 UNL     1      10.184   0.739  -4.131  1.00  0.00     0.169 HD
BRANCH  52  55
HETATM   55  C48 UNL     1      12.370   1.607  -3.366  1.00  0.00     0.172 C 
HETATM   56  C49 UNL     1      12.772   2.259  -4.687  1.00  0.00     0.042 C 
BRANCH  55  57
HETATM   57  N11 UNL     1      12.302   0.147  -3.484  1.00  0.00    -0.347 N 
HETATM   58  C50 UNL     1      13.458  -0.608  -3.578  1.00  0.00     0.236 C 
HETATM   59  O11 UNL     1      14.581  -0.133  -3.705  1.00  0.00    -0.272 OA
HETATM   60  H75 UNL     1      11.564  -0.319  -2.948  1.00  0.00     0.163 HD
BRANCH  58  61
HETATM   61  C51 UNL     1      13.216  -2.113  -3.440  1.00  0.00     0.225 C 
BRANCH  61  62
HETATM   62  N12 UNL     1      13.065  -2.480  -2.043  1.00  0.00    -0.352 N 
HETATM   63  C52 UNL     1      11.883  -2.261  -1.373  1.00  0.00     0.219 C 
HETATM   64  O12 UNL     1      10.915  -1.731  -1.913  1.00  0.00    -0.274 OA
HETATM   65  H76 UNL     1      13.907  -2.674  -1.513  1.00  0.00     0.162 HD
BRANCH  63  66
HETATM   66  C53 UNL     1      11.910  -2.706   0.069  1.00  0.00     0.123 C 
BRANCH  66  67
HETATM   67  C54 UNL     1      10.580  -2.415   0.756  1.00  0.00     0.144 C 
BRANCH  67  68
HETATM   68  N13 UNL     1      10.581  -2.868   2.137  1.00  0.00    -0.287 N 
HETATM   69  C55 UNL     1      11.094  -2.137   3.168  1.00  0.00     0.228 C 
HETATM   70  C56 UNL     1      10.912  -2.894   4.450  1.00  0.00     0.128 C 
HETATM   71  O13 UNL     1      11.610  -1.033   3.085  1.00  0.00    -0.273 OA
HETATM   72  C57 UNL     1      10.483  -4.282   3.999  1.00  0.00     0.145 C 
HETATM   73  C58 UNL     1      10.234  -4.132   2.517  1.00  0.00     0.240 C 
HETATM   74  O14 UNL     1       9.836  -5.024   1.780  1.00  0.00    -0.272 OA
BRANCH  72  75
HETATM   75  S2  UNL     1      11.785  -5.527   4.269  1.00  0.00    -0.167 SA
HETATM   76  H77 UNL     1      11.198  -6.503   3.554  1.00  0.00     0.102 HD
ENDBRANCH  72  75
ENDBRANCH  67  68
ENDBRANCH  66  67
ENDBRANCH  63  66
ENDBRANCH  61  62
ENDBRANCH  58  61
ENDBRANCH  55  57
ENDBRANCH  52  55
ENDBRANCH  48  51
ENDBRANCH  44  45
ENDBRANCH  42  44
ENDBRANCH  39  40
ENDBRANCH   8  39
BRANCH  14  77
HETATM   77  C34 UNL     1      -2.710   2.224   4.056  1.00  0.00     0.025 C 
HETATM   78  C35 UNL     1      -1.428   2.024   4.880  1.00  0.00     0.013 C 
BRANCH  77  79
HETATM   79  C36 UNL     1      -3.595   3.368   4.631  1.00  0.00     0.146 C 
BRANCH  79  80
HETATM   80  C37 UNL     1      -3.951   3.226   6.124  1.00  0.00     0.196 C 
BRANCH  80  81
HETATM   81  O7  UNL     1      -2.863   3.597   6.957  1.00  0.00    -0.398 OA
HETATM   82  H64 UNL     1      -3.172   3.535   7.877  1.00  0.00     0.209 HD
ENDBRANCH  80  81
ENDBRANCH  79  80
BRANCH  79  83
HETATM   83  O8  UNL     1      -4.818   3.441   3.887  1.00  0.00    -0.393 OA
HETATM   84  H65 UNL     1      -5.405   2.709   4.186  1.00  0.00     0.210 HD
ENDBRANCH  79  83
ENDBRANCH  77  79
ENDBRANCH  14  77
BRANCH  16  85
HETATM   85  C24 UNL     1      -6.918   2.684   0.736  1.00  0.00     0.077 C 
BRANCH  85  86
HETATM   86  C25 UNL     1      -8.051   1.952   0.072  1.00  0.00    -0.010 A 
HETATM   87  C26 UNL     1      -9.299   1.680   0.591  1.00  0.00     0.077 A 
HETATM   88  N8  UNL     1     -10.027   0.995  -0.337  1.00  0.00    -0.350 N 
HETATM   89  C27 UNL     1      -9.264   0.757  -1.455  1.00  0.00     0.043 A 
HETATM   90  H72 UNL     1     -10.985   0.702  -0.214  1.00  0.00     0.166 HD
HETATM   91  C28 UNL     1      -9.576   0.060  -2.627  1.00  0.00     0.030 A 
HETATM   92  C32 UNL     1      -8.028   1.369  -1.242  1.00  0.00    -0.000 A 
HETATM   93  C29 UNL     1      -8.590  -0.019  -3.615  1.00  0.00     0.002 A 
HETATM   94  C30 UNL     1      -7.352   0.592  -3.442  1.00  0.00     0.001 A 
HETATM   95  C31 UNL     1      -7.061   1.294  -2.266  1.00  0.00     0.014 A 
BRANCH  87  96
HETATM   96  S1  UNL     1     -10.044   2.072   2.103  1.00  0.00    -0.116 SA
HETATM   97  C33 UNL     1     -10.050   0.454   2.910  1.00  0.00     0.097 C 
ENDBRANCH  87  96
ENDBRANCH  85  86
ENDBRANCH  16  85
BRANCH   1  98
HETATM   98  C3  UNL     1      -8.811  -4.036   0.569  1.00  0.00     0.013 C 
HETATM   99  C4  UNL     1      -9.153  -4.507   1.988  1.00  0.00     0.012 C 
BRANCH  98 100
HETATM  100  C2  UNL     1      -9.564  -2.737   0.208  1.00  0.00     0.002 C 
HETATM  101  C1  UNL     1     -11.079  -2.893   0.189  1.00  0.00     0.005 C 
ENDBRANCH  98 100
ENDBRANCH   1  98
TORSDOF 23
