REMARK  0 active torsions:
REMARK  status: ('A' for Active; 'I' for Inactive)
REMARK       I    between atoms: C2_2  and  C3_3 
REMARK       I    between atoms: C2_2  and  O23_84 
REMARK       I    between atoms: C3_3  and  C4_4 
REMARK       I    between atoms: C3_3  and  N13_99 
REMARK       I    between atoms: C4_4  and  N1_85 
REMARK       I    between atoms: C5_5  and  C6_6 
REMARK       I    between atoms: C5_5  and  C10_10 
REMARK       I    between atoms: C5_5  and  N1_85 
REMARK       I    between atoms: C6_6  and  C7_7 
REMARK       I    between atoms: C7_7  and  C8_8 
REMARK       I    between atoms: C8_8  and  N2_86 
REMARK       I    between atoms: C9_9  and  N3_87 
REMARK       I    between atoms: C9_9  and  N4_89 
REMARK       I    between atoms: C10_10  and  N5_90 
REMARK       I    between atoms: C11_11  and  C12_12 
REMARK       I    between atoms: C11_11  and  C16_16 
REMARK       I    between atoms: C11_11  and  N5_90 
REMARK       I    between atoms: C12_12  and  C13_13 
REMARK       I    between atoms: C13_13  and  C14_14 
REMARK       I    between atoms: C14_14  and  N6_91 
REMARK       I    between atoms: C15_15  and  N7_92 
REMARK       I    between atoms: C15_15  and  N8_94 
REMARK       I    between atoms: C16_16  and  N9_95 
REMARK       I    between atoms: C17_17  and  C18_18 
REMARK       I    between atoms: C17_17  and  N9_95 
REMARK       I    between atoms: C18_18  and  N10_96 
REMARK       I    between atoms: C19_19  and  C20_20 
REMARK       I    between atoms: C19_19  and  C22_22 
REMARK       I    between atoms: C19_19  and  N10_96 
REMARK       I    between atoms: C20_20  and  C21_21 
REMARK       I    between atoms: C21_21  and  O6_67 
REMARK       I    between atoms: C22_22  and  N11_97 
REMARK       I    between atoms: C23_23  and  C24_24 
REMARK       I    between atoms: C23_23  and  C31_31 
REMARK       I    between atoms: C23_23  and  N11_97 
REMARK       I    between atoms: C24_24  and  C25_25 
REMARK       I    between atoms: C28_28  and  O8_69 
REMARK       I    between atoms: C31_31  and  N12_98 
REMARK       I    between atoms: C32_32  and  C33_33 
REMARK       I    between atoms: C32_32  and  N12_98 
REMARK       I    between atoms: C33_33  and  O11_72 
REMARK       I    between atoms: C34_34  and  C35_35 
REMARK       I    between atoms: C34_34  and  N13_99 
REMARK       I    between atoms: C35_35  and  C36_36 
REMARK       I    between atoms: C35_35  and  N14_100 
REMARK       I    between atoms: C36_36  and  C37_37 
REMARK       I    between atoms: C37_37  and  O14_75 
REMARK       I    between atoms: C38_38  and  C39_39 
REMARK       I    between atoms: C38_38  and  N14_100 
REMARK       I    between atoms: C39_39  and  C40_40 
REMARK       I    between atoms: C39_39  and  N15_101 
REMARK       I    between atoms: C40_40  and  O16_77 
REMARK       I    between atoms: C41_41  and  C42_42 
REMARK       I    between atoms: C41_41  and  N15_101 
REMARK       I    between atoms: C42_42  and  C43_43 
REMARK       I    between atoms: C42_42  and  N16_102 
REMARK       I    between atoms: C43_43  and  C44_44 
REMARK       I    between atoms: C47_47  and  O18_79 
REMARK       I    between atoms: C50_50  and  C51_51 
REMARK       I    between atoms: C50_50  and  N16_102 
REMARK       I    between atoms: C51_51  and  N17_103 
REMARK       I    between atoms: C53_53  and  C54_54 
REMARK       I    between atoms: C53_53  and  N17_103 
REMARK       I    between atoms: C54_54  and  C55_55 
REMARK       I    between atoms: C54_54  and  N18_104 
REMARK       I    between atoms: C55_55  and  O21_82 
REMARK       I    between atoms: C56_56  and  C57_57 
REMARK       I    between atoms: C56_56  and  N18_104 
REMARK       I    between atoms: C57_57  and  C58_58 
REMARK       I    between atoms: C57_57  and  N21_108 
REMARK       I    between atoms: C58_58  and  C59_59 
ROOT
HETATM    1  C1  UNL     1       2.461   4.869   0.059  1.00  0.00     0.042 C 
HETATM    2  C2  UNL     1       1.794   4.156   1.231  1.00  0.00     0.146 C 
HETATM    3  C3  UNL     1       0.300   4.535   1.366  1.00  0.00     0.205 C 
HETATM    4  C4  UNL     1      -0.376   3.735   2.516  1.00  0.00     0.243 C 
HETATM    5  C5  UNL     1      -0.091   3.186   4.983  1.00  0.00     0.176 C 
HETATM    6  C6  UNL     1      -0.836   1.845   4.924  1.00  0.00     0.036 C 
HETATM    7  C7  UNL     1      -0.138   0.747   4.115  1.00  0.00     0.023 C 
HETATM    8  C8  UNL     1      -1.110  -0.378   3.760  1.00  0.00     0.138 C 
HETATM    9  C9  UNL     1       0.375  -2.293   3.409  1.00  0.00     0.665 C 
HETATM   10  C10 UNL     1       1.173   3.077   5.866  1.00  0.00     0.241 C 
HETATM   11  C11 UNL     1       3.629   2.666   5.755  1.00  0.00     0.176 C 
HETATM   12  C12 UNL     1       3.878   1.638   6.870  1.00  0.00     0.036 C 
HETATM   13  C13 UNL     1       3.155   0.288   6.772  1.00  0.00     0.022 C 
HETATM   14  C14 UNL     1       3.652  -0.588   5.629  1.00  0.00     0.122 C 
HETATM   15  C15 UNL     1       3.609  -3.018   5.155  1.00  0.00     0.143 C 
HETATM   16  C16 UNL     1       4.639   2.672   4.575  1.00  0.00     0.240 C 
HETATM   17  C17 UNL     1       6.880   3.378   3.910  1.00  0.00     0.225 C 
HETATM   18  C18 UNL     1       7.235   2.431   2.757  1.00  0.00     0.236 C 
HETATM   19  C19 UNL     1       7.475   0.053   2.149  1.00  0.00     0.186 C 
HETATM   20  C20 UNL     1       8.522  -1.005   2.467  1.00  0.00     0.144 C 
HETATM   21  C21 UNL     1       8.695  -1.964   1.323  1.00  0.00     0.141 C 
HETATM   22  C22 UNL     1       6.070  -0.545   2.307  1.00  0.00     0.241 C 
HETATM   23  C23 UNL     1       4.088  -1.471   1.143  1.00  0.00     0.180 C 
HETATM   24  C24 UNL     1       3.129  -0.291   0.884  1.00  0.00     0.073 C 
HETATM   25  C25 UNL     1       3.488   0.511  -0.352  1.00  0.00    -0.056 A 
HETATM   26  C26 UNL     1       3.015   0.126  -1.613  1.00  0.00     0.010 A 
HETATM   27  C27 UNL     1       3.408   0.820  -2.758  1.00  0.00     0.037 A 
HETATM   28  C28 UNL     1       4.274   1.900  -2.644  1.00  0.00     0.065 A 
HETATM   29  C29 UNL     1       4.751   2.303  -1.403  1.00  0.00     0.037 A 
HETATM   30  C30 UNL     1       4.353   1.612  -0.257  1.00  0.00     0.010 A 
HETATM   31  C31 UNL     1       3.887  -2.611   0.123  1.00  0.00     0.241 C 
HETATM   32  C32 UNL     1       5.106  -4.133  -1.368  1.00  0.00     0.232 C 
HETATM   33  C33 UNL     1       5.468  -3.314  -2.604  1.00  0.00     0.158 C 
HETATM   34  C34 UNL     1      -1.569   4.936  -0.203  1.00  0.00     0.241 C 
HETATM   35  C35 UNL     1      -2.380   4.309  -1.366  1.00  0.00     0.186 C 
HETATM   36  C36 UNL     1      -3.871   4.491  -1.105  1.00  0.00     0.144 C 
HETATM   37  C37 UNL     1      -4.302   5.893  -1.423  1.00  0.00     0.141 C 
HETATM   38  C38 UNL     1      -1.185   2.413  -2.480  1.00  0.00     0.243 C 
HETATM   39  C39 UNL     1      -0.742   0.943  -2.325  1.00  0.00     0.200 C 
HETATM   40  C40 UNL     1      -0.325   0.342  -3.674  1.00  0.00     0.199 C 
HETATM   41  C41 UNL     1      -1.637  -0.339  -0.381  1.00  0.00     0.241 C 
HETATM   42  C42 UNL     1      -2.888  -1.042   0.200  1.00  0.00     0.180 C 
HETATM   43  C43 UNL     1      -2.627  -2.560   0.343  1.00  0.00     0.073 C 
HETATM   44  C44 UNL     1      -2.962  -3.363  -0.899  1.00  0.00    -0.056 A 
HETATM   45  C45 UNL     1      -2.153  -3.297  -2.041  1.00  0.00     0.010 A 
HETATM   46  C46 UNL     1      -2.556  -3.913  -3.227  1.00  0.00     0.037 A 
HETATM   47  C47 UNL     1      -3.761  -4.605  -3.267  1.00  0.00     0.065 A 
HETATM   48  C48 UNL     1      -4.541  -4.744  -2.128  1.00  0.00     0.037 A 
HETATM   49  C49 UNL     1      -4.145  -4.121  -0.945  1.00  0.00     0.010 A 
HETATM   50  C50 UNL     1      -4.665   0.508  -0.625  1.00  0.00     0.240 C 
HETATM   51  C51 UNL     1      -5.917   0.598  -1.524  1.00  0.00     0.172 C 
HETATM   52  C52 UNL     1      -7.156   0.517  -0.644  1.00  0.00     0.042 C 
HETATM   53  C53 UNL     1      -5.058  -0.469  -3.598  1.00  0.00     0.243 C 
HETATM   54  C54 UNL     1      -5.358  -1.552  -4.663  1.00  0.00     0.200 C 
HETATM   55  C55 UNL     1      -4.146  -1.755  -5.586  1.00  0.00     0.199 C 
HETATM   56  C56 UNL     1      -7.830  -1.428  -4.924  1.00  0.00     0.252 C 
HETATM   57  C57 UNL     1      -8.985  -1.349  -5.948  1.00  0.00     0.314 C 
HETATM   58  C58 UNL     1      -9.334  -2.756  -6.475  1.00  0.00     0.103 C 
HETATM   59  C59 UNL     1      -8.168  -3.498  -7.046  1.00  0.00     0.028 A 
HETATM   60  C60 UNL     1      -7.479  -3.375  -8.232  1.00  0.00     0.114 A 
HETATM   61  C61 UNL     1      -6.496  -4.938  -7.160  1.00  0.00     0.180 A 
HETATM   62  O1  UNL     1      -1.451   3.154   2.382  1.00  0.00    -0.271 OA
HETATM   63  O2  UNL     1       1.169   3.291   7.074  1.00  0.00    -0.271 OA
HETATM   64  O3  UNL     1       4.266   2.664   3.398  1.00  0.00    -0.271 OA
HETATM   65  O4  UNL     1       7.403   2.829   1.607  1.00  0.00    -0.272 OA
HETATM   66  O5  UNL     1       7.949  -2.125   0.371  1.00  0.00    -0.650 OA
HETATM   67  O6  UNL     1       9.810  -2.707   1.457  1.00  0.00    -0.776 OA
HETATM   68  O7  UNL     1       5.535  -0.602   3.414  1.00  0.00    -0.271 OA
HETATM   69  O8  UNL     1       4.644   2.540  -3.789  1.00  0.00    -0.361 OA
HETATM   70  O9  UNL     1       2.789  -2.929  -0.331  1.00  0.00    -0.271 OA
HETATM   71  O10 UNL     1       5.537  -3.744  -3.746  1.00  0.00    -0.649 OA
HETATM   72  O11 UNL     1       5.759  -2.019  -2.347  1.00  0.00    -0.775 OA
HETATM   73  O12 UNL     1      -1.861   6.012   0.313  1.00  0.00    -0.271 OA
HETATM   74  O13 UNL     1      -3.851   6.625  -2.287  1.00  0.00    -0.650 OA
HETATM   75  O14 UNL     1      -5.354   6.287  -0.677  1.00  0.00    -0.776 OA
HETATM   76  O15 UNL     1      -0.691   3.159  -3.322  1.00  0.00    -0.271 OA
HETATM   77  O16 UNL     1      -1.443  -0.057  -4.470  1.00  0.00    -0.398 OA
HETATM   78  O17 UNL     1      -0.585  -0.251   0.252  1.00  0.00    -0.271 OA
HETATM   79  O18 UNL     1      -4.239  -5.115  -4.439  1.00  0.00    -0.361 OA
HETATM   80  O19 UNL     1      -4.224   1.461   0.011  1.00  0.00    -0.271 OA
HETATM   81  O20 UNL     1      -4.110   0.313  -3.654  1.00  0.00    -0.271 OA
HETATM   82  O21 UNL     1      -4.181  -3.051  -6.201  1.00  0.00    -0.398 OA
HETATM   83  O22 UNL     1      -8.021  -1.704  -3.740  1.00  0.00    -0.271 OA
HETATM   84  O23 UNL     1       2.517   4.529   2.418  1.00  0.00    -0.393 OA
HETATM   85  N1  UNL     1       0.336   3.737   3.692  1.00  0.00    -0.346 N 
HETATM   86  N2  UNL     1      -0.451  -1.351   2.904  1.00  0.00    -0.227 N 
HETATM   87  N3  UNL     1       0.409  -2.654   4.642  1.00  0.00    -0.235 N 
ATOM     88  H3  UNL     1      -0.167  -2.280   5.396  1.00  0.00     0.174 HD
HETATM   89  N4  UNL     1       1.199  -2.807   2.480  1.00  0.00    -0.235 N 
HETATM   90  N5  UNL     1       2.289   2.627   5.192  1.00  0.00    -0.346 N 
HETATM   91  N6  UNL     1       3.092  -1.921   5.754  1.00  0.00    -0.367 N 
HETATM   92  N7  UNL     1       4.657  -3.131   4.428  1.00  0.00    -0.376 N 
ATOM     93  H7  UNL     1       5.028  -4.002   4.047  1.00  0.00     0.158 HD
HETATM   94  N8  UNL     1       2.872  -4.118   5.417  1.00  0.00    -0.274 NA
HETATM   95  N9  UNL     1       5.976   2.812   4.913  1.00  0.00    -0.351 N 
HETATM   96  N10 UNL     1       7.495   1.133   3.148  1.00  0.00    -0.346 N 
HETATM   97  N11 UNL     1       5.491  -1.033   1.170  1.00  0.00    -0.346 N 
HETATM   98  N12 UNL     1       5.043  -3.314  -0.171  1.00  0.00    -0.349 N 
HETATM   99  N13 UNL     1      -0.432   4.231   0.140  1.00  0.00    -0.344 N 
HETATM  100  N14 UNL     1      -2.049   2.878  -1.508  1.00  0.00    -0.345 N 
HETATM  101  N15 UNL     1      -1.761   0.131  -1.667  1.00  0.00    -0.344 N 
HETATM  102  N16 UNL     1      -4.109  -0.748  -0.555  1.00  0.00    -0.346 N 
HETATM  103  N17 UNL     1      -5.930  -0.478  -2.522  1.00  0.00    -0.346 N 
HETATM  104  N18 UNL     1      -6.564  -1.217  -5.433  1.00  0.00    -0.344 N 
HETATM  105  N19 UNL     1      -6.395  -4.212  -8.250  1.00  0.00    -0.360 N 
ATOM    106  H19 UNL     1      -5.664  -4.261  -8.960  1.00  0.00     0.166 HD
HETATM  107  N20 UNL     1      -7.544  -4.531  -6.385  1.00  0.00    -0.355 N 
HETATM  108  N21 UNL     1      -8.693  -0.380  -7.027  1.00  0.00     0.092 N 
HETATM  109  H59 UNL     1       9.822  -3.308   0.683  1.00  0.00     0.167 HD
HETATM  110  H60 UNL     1       5.159   3.328  -3.550  1.00  0.00     0.217 HD
HETATM  111  H61 UNL     1       5.913  -1.620  -3.230  1.00  0.00     0.167 HD
HETATM  112  H62 UNL     1      -5.499   7.217  -0.953  1.00  0.00     0.167 HD
HETATM  113  H63 UNL     1      -2.102   0.664  -4.452  1.00  0.00     0.209 HD
HETATM  114  H64 UNL     1      -3.883  -4.556  -5.167  1.00  0.00     0.217 HD
HETATM  115  H65 UNL     1      -4.749  -2.999  -6.999  1.00  0.00     0.209 HD
HETATM  116  H66 UNL     1       3.350   4.006   2.408  1.00  0.00     0.210 HD
HETATM  117  H67 UNL     1       1.138   4.371   3.704  1.00  0.00     0.163 HD
HETATM  118  H68 UNL     1      -0.151  -0.950   2.014  1.00  0.00     0.177 HD
HETATM  119  H69 UNL     1       1.125  -3.391   4.730  1.00  0.00     0.174 HD
HETATM  120  H70 UNL     1       1.734  -3.622   2.759  1.00  0.00     0.174 HD
HETATM  121  H71 UNL     1       0.819  -2.907   1.545  1.00  0.00     0.174 HD
HETATM  122  H72 UNL     1       2.219   2.563   4.177  1.00  0.00     0.163 HD
HETATM  123  H73 UNL     1       2.068  -1.912   5.712  1.00  0.00     0.162 HD
HETATM  124  H74 UNL     1       5.062  -2.194   4.293  1.00  0.00     0.158 HD
HETATM  125  H75 UNL     1       2.599  -4.152   6.394  1.00  0.00     0.127 HD
HETATM  126  H76 UNL     1       3.414  -4.941   5.171  1.00  0.00     0.127 HD
HETATM  127  H77 UNL     1       6.161   3.091   5.869  1.00  0.00     0.163 HD
HETATM  128  H78 UNL     1       7.068   0.885   4.039  1.00  0.00     0.163 HD
HETATM  129  H79 UNL     1       5.914  -0.811   0.271  1.00  0.00     0.163 HD
HETATM  130  H80 UNL     1       5.914  -2.880   0.127  1.00  0.00     0.163 HD
HETATM  131  H81 UNL     1      -0.471   3.253  -0.120  1.00  0.00     0.163 HD
HETATM  132  H82 UNL     1      -2.430   2.234  -0.814  1.00  0.00     0.163 HD
HETATM  133  H83 UNL     1      -2.642   0.011  -2.161  1.00  0.00     0.163 HD
HETATM  134  H84 UNL     1      -4.469  -1.437  -1.206  1.00  0.00     0.163 HD
HETATM  135  H85 UNL     1      -6.822  -0.951  -2.690  1.00  0.00     0.163 HD
HETATM  136  H86 UNL     1      -6.486  -1.275  -6.439  1.00  0.00     0.163 HD
HETATM  137  H87 UNL     1      -7.791  -4.918  -5.483  1.00  0.00     0.166 HD
HETATM  138  H88 UNL     1      -8.006  -0.741  -7.681  1.00  0.00     0.313 HD
HETATM  139  H89 UNL     1      -8.322   0.481  -6.625  1.00  0.00     0.313 HD
ENDROOT
TORSDOF 55
