REMARK  25 active torsions:
REMARK  status: ('A' for Active; 'I' for Inactive)
REMARK    1  A    between atoms: C3_3  and  N10_62 
REMARK    2  A    between atoms: C5_5  and  C6_6 
REMARK       I    between atoms: C6_6  and  N2_54 
REMARK    3  A    between atoms: C7_7  and  N2_54 
REMARK    4  A    between atoms: C9_9  and  C11_11 
REMARK       I    between atoms: C11_11  and  N4_56 
REMARK    5  A    between atoms: C12_12  and  N4_56 
REMARK    6  A    between atoms: C14_14  and  C16_16 
REMARK       I    between atoms: C16_16  and  N6_58 
REMARK    7  A    between atoms: C17_17  and  N6_58 
REMARK    8  A    between atoms: C19_19  and  C21_21 
REMARK       I    between atoms: C21_21  and  N8_60 
REMARK    9  A    between atoms: C22_22  and  C23_23 
REMARK   10  A    between atoms: C22_22  and  N8_60 
REMARK   11  A    between atoms: C23_23  and  C24_24 
REMARK   12  A    between atoms: C24_24  and  N9_61 
REMARK   13  A    between atoms: C30_30  and  C31_31 
REMARK       I    between atoms: C30_30  and  N10_62 
REMARK   14  A    between atoms: C31_31  and  C32_32 
REMARK   15  A    between atoms: C32_32  and  C33_33 
REMARK   16  A    between atoms: C33_33  and  N11_63 
REMARK   17  A    between atoms: C34_34  and  C35_35 
REMARK       I    between atoms: C34_34  and  N11_63 
REMARK   18  A    between atoms: C36_36  and  N14_67 
REMARK   19  A    between atoms: C39_39  and  C40_40 
REMARK       I    between atoms: C39_39  and  N14_67 
REMARK   20  A    between atoms: C40_40  and  C41_41 
REMARK   21  A    between atoms: C41_41  and  N15_68 
REMARK   22  A    between atoms: C42_42  and  C43_43 
REMARK       I    between atoms: C42_42  and  N15_68 
REMARK   23  A    between atoms: C44_44  and  N18_72 
REMARK   24  A    between atoms: C47_47  and  C48_48 
REMARK       I    between atoms: C47_47  and  N18_72 
REMARK   25  A    between atoms: C50_50  and  N20_74 
ROOT
HETATM    1  C30 UNL     1       2.179   4.135   1.509  1.00  0.00     0.222 C 
HETATM    2  N10 UNL     1       1.047   4.540   2.197  1.00  0.00    -0.326 N 
HETATM    3  O5  UNL     1       2.208   3.374   0.548  1.00  0.00    -0.273 OA
HETATM    4  H60 UNL     1       1.148   5.183   2.970  1.00  0.00     0.169 HD
ENDROOT
BRANCH   2   5
HETATM    5  C3  UNL     1      -0.241   4.144   1.897  1.00  0.00     0.052 A 
HETATM    6  C2  UNL     1      -1.340   4.583   2.593  1.00  0.00     0.120 A 
HETATM    7  N1  UNL     1      -2.457   4.001   2.045  1.00  0.00    -0.354 N 
HETATM    8  C1  UNL     1      -3.804   4.239   2.523  1.00  0.00     0.156 C 
HETATM    9  C5  UNL     1      -2.104   3.184   0.983  1.00  0.00     0.105 A 
HETATM   10  C4  UNL     1      -0.717   3.266   0.895  1.00  0.00     0.066 A 
BRANCH   9  11
HETATM   11  C6  UNL     1      -3.053   2.415   0.177  1.00  0.00     0.273 C 
HETATM   12  N2  UNL     1      -2.496   1.817  -0.939  1.00  0.00    -0.320 N 
HETATM   13  H56 UNL     1      -1.518   1.974  -1.136  1.00  0.00     0.169 HD
HETATM   14  O1  UNL     1      -4.242   2.332   0.478  1.00  0.00    -0.266 OA
BRANCH  12  15
HETATM   15  C7  UNL     1      -3.174   1.032  -1.850  1.00  0.00     0.053 A 
HETATM   16  C8  UNL     1      -2.569   0.487  -2.956  1.00  0.00     0.120 A 
HETATM   17  N3  UNL     1      -3.509  -0.236  -3.649  1.00  0.00    -0.354 N 
HETATM   18  C9  UNL     1      -4.737  -0.167  -3.011  1.00  0.00     0.105 A 
HETATM   19  C29 UNL     1      -3.228  -0.950  -4.879  1.00  0.00     0.156 C 
HETATM   20  C10 UNL     1      -4.526   0.618  -1.880  1.00  0.00     0.066 A 
BRANCH  18  21
HETATM   21  C11 UNL     1      -5.955  -0.825  -3.488  1.00  0.00     0.273 C 
HETATM   22  N4  UNL     1      -7.099  -0.459  -2.800  1.00  0.00    -0.320 N 
HETATM   23  H57 UNL     1      -7.015   0.233  -2.071  1.00  0.00     0.169 HD
HETATM   24  O2  UNL     1      -5.935  -1.621  -4.423  1.00  0.00    -0.266 OA
BRANCH  22  25
HETATM   25  C12 UNL     1      -8.379  -0.928  -3.035  1.00  0.00     0.053 A 
HETATM   26  C13 UNL     1      -8.796  -1.842  -3.968  1.00  0.00     0.120 A 
HETATM   27  N5  UNL     1     -10.155  -1.994  -3.851  1.00  0.00    -0.354 N 
HETATM   28  C14 UNL     1     -10.641  -1.203  -2.824  1.00  0.00     0.105 A 
HETATM   29  C28 UNL     1     -10.938  -2.881  -4.688  1.00  0.00     0.156 C 
HETATM   30  C15 UNL     1      -9.535  -0.524  -2.320  1.00  0.00     0.066 A 
BRANCH  28  31
HETATM   31  C16 UNL     1     -12.048  -1.136  -2.430  1.00  0.00     0.273 C 
HETATM   32  N6  UNL     1     -12.255  -0.554  -1.193  1.00  0.00    -0.320 N 
HETATM   33  H58 UNL     1     -11.451  -0.296  -0.642  1.00  0.00     0.169 HD
HETATM   34  O3  UNL     1     -12.942  -1.584  -3.141  1.00  0.00    -0.266 OA
BRANCH  32  35
HETATM   35  C17 UNL     1     -13.486  -0.346  -0.602  1.00  0.00     0.053 A 
HETATM   36  C18 UNL     1     -13.622   0.191   0.658  1.00  0.00     0.120 A 
HETATM   37  N7  UNL     1     -14.963   0.285   0.944  1.00  0.00    -0.354 N 
HETATM   38  C19 UNL     1     -15.704  -0.234  -0.098  1.00  0.00     0.104 A 
HETATM   39  C27 UNL     1     -15.487   0.922   2.134  1.00  0.00     0.156 C 
HETATM   40  C20 UNL     1     -14.792  -0.587  -1.084  1.00  0.00     0.066 A 
BRANCH  38  41
HETATM   41  C21 UNL     1     -17.147  -0.344  -0.183  1.00  0.00     0.268 C 
HETATM   42  N8  UNL     1     -17.746  -0.773   0.985  1.00  0.00    -0.356 N 
HETATM   43  H59 UNL     1     -17.142  -1.309   1.595  1.00  0.00     0.162 HD
HETATM   44  O4  UNL     1     -17.780  -0.121  -1.209  1.00  0.00    -0.266 OA
BRANCH  42  45
HETATM   45  C22 UNL     1     -19.138  -1.173   1.001  1.00  0.00     0.125 C 
BRANCH  45  46
HETATM   46  C23 UNL     1     -19.795  -0.976   2.367  1.00  0.00     0.050 C 
BRANCH  46  47
HETATM   47  C24 UNL     1     -19.048  -1.606   3.552  1.00  0.00     0.273 C 
BRANCH  47  48
HETATM   48  N9  UNL     1     -18.655  -3.009   3.356  1.00  0.00     0.080 N 
HETATM   49  C25 UNL     1     -17.765  -3.441   4.438  1.00  0.00     0.309 C 
HETATM   50  C26 UNL     1     -19.820  -3.898   3.298  1.00  0.00     0.309 C 
ENDBRANCH  47  48
ENDBRANCH  46  47
ENDBRANCH  45  46
ENDBRANCH  42  45
ENDBRANCH  38  41
ENDBRANCH  32  35
ENDBRANCH  28  31
ENDBRANCH  22  25
ENDBRANCH  18  21
ENDBRANCH  12  15
ENDBRANCH   9  11
ENDBRANCH   2   5
BRANCH   1  51
HETATM   51  C31 UNL     1       3.438   4.742   2.107  1.00  0.00     0.105 C 
BRANCH  51  52
HETATM   52  C32 UNL     1       4.686   4.409   1.293  1.00  0.00     0.029 C 
BRANCH  52  53
HETATM   53  C33 UNL     1       5.939   4.981   1.946  1.00  0.00     0.123 C 
BRANCH  53  54
HETATM   54  N11 UNL     1       7.116   4.718   1.154  1.00  0.00    -0.354 N 
HETATM   55  C34 UNL     1       7.510   5.521   0.105  1.00  0.00     0.285 C 
HETATM   56  O6  UNL     1       6.945   6.575  -0.172  1.00  0.00    -0.264 OA
HETATM   57  H61 UNL     1       7.607   3.831   1.235  1.00  0.00     0.162 HD
BRANCH  55  58
HETATM   58  C35 UNL     1       8.648   4.982  -0.625  1.00  0.00     0.178 A 
HETATM   59  N12 UNL     1       9.232   3.830  -0.311  1.00  0.00    -0.323 N 
HETATM   60  C36 UNL     1      10.243   3.672  -1.217  1.00  0.00     0.125 A 
ATOM     61  H12 UNL     1       8.979   3.197   0.447  1.00  0.00     0.169 HD
HETATM   62  C37 UNL     1      10.288   4.724  -2.095  1.00  0.00     0.140 A 
HETATM   63  N13 UNL     1       9.270   5.550  -1.712  1.00  0.00    -0.339 N 
HETATM   64  C38 UNL     1       8.916   6.797  -2.346  1.00  0.00     0.157 C 
BRANCH  60  65
HETATM   65  N14 UNL     1      11.028   2.554  -1.137  1.00  0.00    -0.312 N 
HETATM   66  C39 UNL     1      12.083   2.254  -1.974  1.00  0.00     0.224 C 
HETATM   67  O7  UNL     1      12.485   2.943  -2.906  1.00  0.00    -0.273 OA
HETATM   68  H62 UNL     1      10.773   1.926  -0.388  1.00  0.00     0.170 HD
BRANCH  66  69
HETATM   69  C40 UNL     1      12.732   0.937  -1.599  1.00  0.00     0.123 C 
BRANCH  69  70
HETATM   70  C41 UNL     1      13.853   0.568  -2.557  1.00  0.00     0.132 C 
BRANCH  70  71
HETATM   71  N15 UNL     1      14.481  -0.677  -2.169  1.00  0.00    -0.354 N 
HETATM   72  C42 UNL     1      15.184  -1.464  -3.057  1.00  0.00     0.285 C 
HETATM   73  O8  UNL     1      15.173  -1.288  -4.272  1.00  0.00    -0.264 OA
HETATM   74  H63 UNL     1      14.721  -0.849  -1.192  1.00  0.00     0.162 HD
BRANCH  72  75
HETATM   75  C43 UNL     1      15.942  -2.508  -2.388  1.00  0.00     0.178 A 
HETATM   76  N16 UNL     1      15.974  -2.630  -1.069  1.00  0.00    -0.323 N 
HETATM   77  C44 UNL     1      16.775  -3.697  -0.805  1.00  0.00     0.125 A 
ATOM     78  H16 UNL     1      15.494  -2.042  -0.388  1.00  0.00     0.169 HD
HETATM   79  C45 UNL     1      17.254  -4.247  -1.971  1.00  0.00     0.140 A 
HETATM   80  N17 UNL     1      16.717  -3.480  -2.971  1.00  0.00    -0.339 N 
HETATM   81  C46 UNL     1      16.930  -3.665  -4.386  1.00  0.00     0.157 C 
BRANCH  77  82
HETATM   82  N18 UNL     1      17.070  -4.156   0.453  1.00  0.00    -0.306 N 
HETATM   83  C47 UNL     1      16.571  -3.621   1.624  1.00  0.00     0.274 C 
HETATM   84  O9  UNL     1      15.775  -2.689   1.688  1.00  0.00    -0.266 OA
HETATM   85  H64 UNL     1      17.670  -4.962   0.501  1.00  0.00     0.170 HD
BRANCH  83  86
HETATM   86  C48 UNL     1      17.064  -4.289   2.830  1.00  0.00     0.105 A 
HETATM   87  C49 UNL     1      18.133  -5.168   2.995  1.00  0.00     0.066 A 
HETATM   88  C50 UNL     1      18.210  -5.544   4.357  1.00  0.00     0.054 A 
HETATM   89  C51 UNL     1      17.199  -4.887   5.010  1.00  0.00     0.120 A 
HETATM   90  N19 UNL     1      16.519  -4.125   4.094  1.00  0.00    -0.354 N 
HETATM   91  C52 UNL     1      15.382  -3.290   4.426  1.00  0.00     0.156 C 
BRANCH  88  92
HETATM   92  N20 UNL     1      19.072  -6.372   4.983  1.00  0.00    -0.328 N 
HETATM   93  I1  UNL     1      20.548  -7.331   4.090  1.00  0.00     0.057 I 
HETATM   94  H65 UNL     1      18.976  -6.511   5.985  1.00  0.00     0.172 HD
ENDBRANCH  88  92
ENDBRANCH  83  86
ENDBRANCH  77  82
ENDBRANCH  72  75
ENDBRANCH  70  71
ENDBRANCH  69  70
ENDBRANCH  66  69
ENDBRANCH  60  65
ENDBRANCH  55  58
ENDBRANCH  53  54
ENDBRANCH  52  53
ENDBRANCH  51  52
ENDBRANCH   1  51
TORSDOF 25
