REMARK  19 active torsions:
REMARK  status: ('A' for Active; 'I' for Inactive)
REMARK    1  A    between atoms: C3_3  and  C11_11 
REMARK    2  A    between atoms: C7_7  and  O3_40 
REMARK    3  A    between atoms: C11_11  and  C12_12 
REMARK       I    between atoms: C12_12  and  N1_49 
REMARK    4  A    between atoms: C16_16  and  C18_18 
REMARK       I    between atoms: C18_18  and  N2_50 
REMARK    5  A    between atoms: C19_19  and  C20_20 
REMARK    6  A    between atoms: C19_19  and  N2_50 
REMARK    7  A    between atoms: C20_20  and  C21_21 
REMARK    8  A    between atoms: C21_21  and  C22_22 
REMARK    9  A    between atoms: C22_22  and  C23_23 
REMARK   10  A    between atoms: C23_23  and  C24_24 
REMARK       I    between atoms: C24_24  and  N3_51 
REMARK   11  A    between atoms: C25_25  and  C26_26 
REMARK   12  A    between atoms: C25_25  and  C33_33 
REMARK   13  A    between atoms: C25_25  and  N3_51 
REMARK   14  A    between atoms: C26_26  and  C27_27 
REMARK       I    between atoms: C33_33  and  N4_52 
REMARK   15  A    between atoms: C34_34  and  C35_35 
REMARK   16  A    between atoms: C34_34  and  N4_52 
REMARK       I    between atoms: C35_35  and  N5_53 
REMARK   17  A    between atoms: C36_36  and  C37_37 
REMARK   18  A    between atoms: C36_36  and  N5_53 
REMARK   19  A    between atoms: C37_37  and  O10_47 
ROOT
HETATM    1  C20 UNL     1       1.502  -3.438   4.046  1.00  0.00     0.020 C 
ENDROOT
BRANCH   1   2
HETATM    2  C19 UNL     1       0.273  -2.538   3.933  1.00  0.00     0.122 C 
BRANCH   2   3
HETATM    3  N2  UNL     1      -0.294  -2.610   2.601  1.00  0.00    -0.361 N 
HETATM    4  C18 UNL     1      -1.175  -3.607   2.238  1.00  0.00     0.223 C 
HETATM    5  O5  UNL     1      -1.611  -4.434   3.029  1.00  0.00    -0.273 OA
HETATM    6  H41 UNL     1       0.274  -2.195   1.861  1.00  0.00     0.162 HD
BRANCH   4   7
HETATM    7  C16 UNL     1      -1.561  -3.558   0.764  1.00  0.00     0.096 C 
HETATM    8  C15 UNL     1      -2.304  -4.823   0.307  1.00  0.00     0.017 C 
HETATM    9  C14 UNL     1      -3.208  -4.585  -0.906  1.00  0.00     0.021 C 
HETATM   10  C13 UNL     1      -2.772  -3.379  -1.729  1.00  0.00     0.126 C 
HETATM   11  N1  UNL     1      -2.754  -2.162  -0.920  1.00  0.00    -0.351 N 
HETATM   12  C12 UNL     1      -3.110  -0.957  -1.520  1.00  0.00     0.224 C 
HETATM   13  C17 UNL     1      -2.396  -2.303   0.496  1.00  0.00     0.139 C 
HETATM   14  O4  UNL     1      -3.291  -0.869  -2.737  1.00  0.00    -0.273 OA
BRANCH  12  15
HETATM   15  C11 UNL     1      -3.221   0.270  -0.612  1.00  0.00     0.148 C 
BRANCH  15  16
HETATM   16  C3  UNL     1      -4.138   1.303  -1.230  1.00  0.00     0.033 A 
HETATM   17  C2  UNL     1      -3.744   2.422  -1.877  1.00  0.00    -0.036 A 
HETATM   18  C1  UNL     1      -2.302   2.778  -2.133  1.00  0.00     0.050 C 
HETATM   19  C10 UNL     1      -4.773   3.343  -2.399  1.00  0.00     0.006 A 
HETATM   20  C5  UNL     1      -6.117   3.002  -2.262  1.00  0.00     0.093 A 
HETATM   21  C9  UNL     1      -4.481   4.559  -3.034  1.00  0.00     0.041 A 
HETATM   22  C6  UNL     1      -7.155   3.809  -2.738  1.00  0.00     0.076 A 
HETATM   23  O2  UNL     1      -6.507   1.817  -1.620  1.00  0.00    -0.274 OA
HETATM   24  C7  UNL     1      -6.841   5.005  -3.371  1.00  0.00     0.090 A 
HETATM   25  C8  UNL     1      -5.505   5.384  -3.518  1.00  0.00     0.068 A 
HETATM   26 CL1  UNL     1      -5.070   6.865  -4.292  1.00  0.00    -0.081 Cl
HETATM   27  C4  UNL     1      -5.577   0.958  -1.063  1.00  0.00     0.295 A 
HETATM   28  O1  UNL     1      -5.934  -0.041  -0.446  1.00  0.00    -0.259 OA
BRANCH  24  29
HETATM   29  O3  UNL     1      -7.839   5.810  -3.845  1.00  0.00    -0.359 OA
HETATM   30  H39 UNL     1      -8.700   5.395  -3.673  1.00  0.00     0.217 HD
ENDBRANCH  24  29
ENDBRANCH  15  16
ENDBRANCH  12  15
ENDBRANCH   4   7
ENDBRANCH   2   3
ENDBRANCH   1   2
BRANCH   1  31
HETATM   31  C21 UNL     1       2.460  -2.942   5.129  1.00  0.00     0.002 C 
BRANCH  31  32
HETATM   32  C22 UNL     1       3.825  -3.644   5.130  1.00  0.00     0.009 C 
BRANCH  32  33
HETATM   33  C23 UNL     1       4.549  -3.675   3.781  1.00  0.00     0.103 C 
BRANCH  33  34
HETATM   34  C24 UNL     1       4.630  -2.311   3.119  1.00  0.00     0.218 C 
HETATM   35  O6  UNL     1       4.902  -1.283   3.731  1.00  0.00    -0.274 OA
HETATM   36  N3  UNL     1       4.388  -2.333   1.761  1.00  0.00    -0.347 N 
HETATM   37  H42 UNL     1       3.874  -3.131   1.404  1.00  0.00     0.163 HD
BRANCH  36  38
HETATM   38  C25 UNL     1       4.195  -1.081   1.028  1.00  0.00     0.180 C 
BRANCH  38  39
HETATM   39  C26 UNL     1       4.736  -1.204  -0.403  1.00  0.00     0.073 C 
BRANCH  39  40
HETATM   40  C27 UNL     1       4.767   0.104  -1.159  1.00  0.00    -0.056 A 
HETATM   41  C28 UNL     1       5.663   1.119  -0.793  1.00  0.00     0.007 A 
HETATM   42  C29 UNL     1       5.688   2.326  -1.493  1.00  0.00     0.001 A 
HETATM   43  C30 UNL     1       4.826   2.528  -2.568  1.00  0.00     0.000 A 
HETATM   44  C31 UNL     1       3.934   1.525  -2.941  1.00  0.00     0.001 A 
HETATM   45  C32 UNL     1       3.902   0.320  -2.240  1.00  0.00     0.007 A 
ENDBRANCH  39  40
ENDBRANCH  38  39
BRANCH  38  46
HETATM   46  C33 UNL     1       2.678  -0.784   0.999  1.00  0.00     0.241 C 
HETATM   47  O7  UNL     1       1.823  -1.671   0.974  1.00  0.00    -0.271 OA
HETATM   48  N4  UNL     1       2.352   0.553   0.942  1.00  0.00    -0.351 N 
HETATM   49  H43 UNL     1       3.053   1.225   1.238  1.00  0.00     0.163 HD
BRANCH  48  50
HETATM   50  C34 UNL     1       0.965   0.988   0.972  1.00  0.00     0.225 C 
BRANCH  50  51
HETATM   51  C35 UNL     1       0.776   2.424   0.478  1.00  0.00     0.235 C 
HETATM   52  O8  UNL     1      -0.279   3.033   0.638  1.00  0.00    -0.272 OA
HETATM   53  N5  UNL     1       1.852   2.948  -0.209  1.00  0.00    -0.350 N 
HETATM   54  H44 UNL     1       2.476   2.269  -0.637  1.00  0.00     0.163 HD
BRANCH  53  55
HETATM   55  C36 UNL     1       1.745   4.240  -0.868  1.00  0.00     0.232 C 
BRANCH  55  56
HETATM   56  C37 UNL     1       1.153   4.103  -2.262  1.00  0.00     0.158 C 
HETATM   57  O9  UNL     1       0.949   3.067  -2.876  1.00  0.00    -0.649 OA
BRANCH  56  58
HETATM   58  O10 UNL     1       0.892   5.297  -2.831  1.00  0.00    -0.775 OA
HETATM   59  H40 UNL     1       0.522   5.076  -3.712  1.00  0.00     0.167 HD
ENDBRANCH  56  58
ENDBRANCH  55  56
ENDBRANCH  53  55
ENDBRANCH  50  51
ENDBRANCH  48  50
ENDBRANCH  38  46
ENDBRANCH  36  38
ENDBRANCH  33  34
ENDBRANCH  32  33
ENDBRANCH  31  32
ENDBRANCH   1  31
TORSDOF 19
