REMARK  11 active torsions:
REMARK  status: ('A' for Active; 'I' for Inactive)
REMARK    1  A    between atoms: C2_2  and  C5_5 
REMARK    2  A    between atoms: C5_5  and  C6_6 
REMARK    3  A    between atoms: C5_5  and  N6_49 
REMARK       I    between atoms: C6_6  and  N1_44 
REMARK    4  A    between atoms: C11_11  and  C12_12 
REMARK       I    between atoms: C12_12  and  N2_45 
REMARK    5  A    between atoms: C15_15  and  N3_46 
REMARK    6  A    between atoms: C17_17  and  C18_18 
REMARK       I    between atoms: C17_17  and  N3_46 
REMARK    7  A    between atoms: C21_21  and  C24_24 
REMARK       I    between atoms: C24_24  and  N4_47 
REMARK    8  A    between atoms: C25_25  and  N4_47 
REMARK    9  A    between atoms: C30_30  and  C32_32 
REMARK   10  A    between atoms: C35_35  and  C36_36 
REMARK       I    between atoms: C35_35  and  N6_49 
REMARK   11  A    between atoms: C36_36  and  N7_50 
ROOT
HETATM    1  C6  UNL     1      -6.211   0.903   0.098  1.00  0.00     0.244 C 
HETATM    2  C7  UNL     1      -3.923   0.649  -0.658  1.00  0.00     0.166 C 
HETATM    3  C8  UNL     1      -2.706   1.426  -1.104  1.00  0.00    -0.032 A 
HETATM    4  C9  UNL     1      -2.808   2.717  -1.643  1.00  0.00    -0.048 A 
HETATM    5  C10 UNL     1      -4.151   3.392  -1.750  1.00  0.00     0.074 C 
HETATM    6  C11 UNL     1      -5.308   2.382  -1.780  1.00  0.00     0.183 C 
HETATM    7  C13 UNL     1      -1.650   3.392  -2.042  1.00  0.00     0.010 A 
HETATM    8  C14 UNL     1      -0.400   2.779  -1.929  1.00  0.00     0.030 A 
HETATM    9  C15 UNL     1      -0.284   1.487  -1.404  1.00  0.00     0.035 A 
HETATM   10  C16 UNL     1      -1.440   0.820  -0.998  1.00  0.00     0.039 A 
HETATM   11  O1  UNL     1      -6.056  -0.121   0.776  1.00  0.00    -0.271 OA
HETATM   12  N1  UNL     1      -5.172   1.413  -0.671  1.00  0.00    -0.332 N 
ENDROOT
BRANCH   9  13
HETATM   13  N3  UNL     1       1.014   0.936  -1.333  1.00  0.00    -0.323 N 
HETATM   14  C17 UNL     1       1.380  -0.279  -0.783  1.00  0.00     0.256 C 
HETATM   15  O3  UNL     1       0.654  -1.065  -0.185  1.00  0.00    -0.267 OA
HETATM   16  H39 UNL     1       1.756   1.533  -1.671  1.00  0.00     0.169 HD
BRANCH  14  17
HETATM   17  C18 UNL     1       2.828  -0.618  -0.906  1.00  0.00     0.032 A 
HETATM   18  C19 UNL     1       3.424  -1.373   0.114  1.00  0.00     0.018 A 
HETATM   19  C20 UNL     1       4.777  -1.719   0.042  1.00  0.00     0.018 A 
HETATM   20  C21 UNL     1       5.546  -1.308  -1.054  1.00  0.00     0.032 A 
HETATM   21  C22 UNL     1       4.941  -0.585  -2.092  1.00  0.00     0.018 A 
HETATM   22  C23 UNL     1       3.587  -0.241  -2.021  1.00  0.00     0.018 A 
BRANCH  20  23
HETATM   23  C24 UNL     1       6.993  -1.654  -1.179  1.00  0.00     0.256 C 
HETATM   24  O4  UNL     1       7.447  -1.827  -2.303  1.00  0.00    -0.267 OA
HETATM   25  N4  UNL     1       7.689  -1.699   0.015  1.00  0.00    -0.323 N 
HETATM   26  H40 UNL     1       7.201  -1.396   0.846  1.00  0.00     0.169 HD
BRANCH  25  27
HETATM   27  C25 UNL     1       9.046  -2.041   0.201  1.00  0.00     0.035 A 
HETATM   28  C26 UNL     1       9.563  -1.929   1.500  1.00  0.00     0.039 A 
HETATM   29  C27 UNL     1      10.899  -2.260   1.784  1.00  0.00    -0.022 A 
HETATM   30  C28 UNL     1      11.734  -2.690   0.741  1.00  0.00    -0.048 A 
HETATM   31  C31 UNL     1      11.434  -2.079   3.185  1.00  0.00     0.309 C 
HETATM   32  C29 UNL     1      13.163  -3.079   1.026  1.00  0.00     0.082 C 
HETATM   33  C33 UNL     1      11.217  -2.814  -0.552  1.00  0.00     0.010 A 
HETATM   34  C30 UNL     1      13.652  -2.549   2.381  1.00  0.00     0.285 C 
HETATM   35  N5  UNL     1      12.671  -2.824   3.447  1.00  0.00     0.099 N 
HETATM   36  H41 UNL     1      13.053  -2.503   4.338  1.00  0.00     0.317 HD
HETATM   37  C34 UNL     1       9.883  -2.490  -0.819  1.00  0.00     0.030 A 
BRANCH  34  38
HETATM   38  C32 UNL     1      14.954  -3.240   2.746  1.00  0.00     0.267 C 
HETATM   39  O5  UNL     1      15.923  -2.647   3.216  1.00  0.00    -0.305 OA
ENDBRANCH  34  38
ENDBRANCH  25  27
ENDBRANCH  20  23
ENDBRANCH  14  17
ENDBRANCH   9  13
BRANCH   6  40
HETATM   40  C12 UNL     1      -5.427   1.723  -3.178  1.00  0.00     0.238 C 
HETATM   41  O2  UNL     1      -5.015   2.243  -4.213  1.00  0.00    -0.271 OA
HETATM   42  N2  UNL     1      -6.160   0.573  -3.259  1.00  0.00    -0.368 N 
HETATM   43  H37 UNL     1      -6.922   0.397  -2.603  1.00  0.00     0.159 HD
HETATM   44  H38 UNL     1      -6.355   0.256  -4.200  1.00  0.00     0.159 HD
ENDBRANCH   6  40
BRANCH   1  45
HETATM   45  C5  UNL     1      -7.576   1.647   0.156  1.00  0.00     0.184 C 
BRANCH  45  46
HETATM   46  C2  UNL     1      -7.673   2.678   1.327  1.00  0.00    -0.022 C 
HETATM   47  C1  UNL     1      -9.073   3.332   1.315  1.00  0.00     0.017 C 
HETATM   48  C3  UNL     1      -6.634   3.804   1.161  1.00  0.00     0.017 C 
HETATM   49  C4  UNL     1      -7.456   2.028   2.708  1.00  0.00     0.017 C 
ENDBRANCH  45  46
BRANCH  45  50
HETATM   50  N6  UNL     1      -8.602   0.607   0.264  1.00  0.00    -0.346 N 
HETATM   51  C35 UNL     1      -8.980  -0.122  -0.844  1.00  0.00     0.246 C 
HETATM   52  O6  UNL     1      -8.617   0.167  -1.983  1.00  0.00    -0.272 OA
HETATM   53  H42 UNL     1      -8.611   0.040   1.112  1.00  0.00     0.163 HD
BRANCH  51  54
HETATM   54  C36 UNL     1      -9.853  -1.347  -0.535  1.00  0.00     0.371 C 
BRANCH  54  55
HETATM   55  N7  UNL     1     -10.298  -1.335   0.876  1.00  0.00     0.087 N 
HETATM   56  C37 UNL     1     -11.066  -2.537   1.174  1.00  0.00     0.307 C 
HETATM   57  H43 UNL     1     -10.896  -0.517   1.013  1.00  0.00     0.315 HD
ENDBRANCH  54  55
ENDBRANCH  51  54
ENDBRANCH  45  50
ENDBRANCH   1  45
TORSDOF 11
