REMARK  19 active torsions:
REMARK  status: ('A' for Active; 'I' for Inactive)
REMARK    1  A    between atoms: C3_3  and  C22_22 
REMARK    2  A    between atoms: C6_6  and  C7_7 
REMARK    3  A    between atoms: C7_7  and  C8_8 
REMARK       I    between atoms: C8_8  and  N1_42 
REMARK    4  A    between atoms: C9_9  and  N1_42 
REMARK    5  A    between atoms: C11_11  and  C13_13 
REMARK       I    between atoms: C13_13  and  N3_44 
REMARK    6  A    between atoms: C14_14  and  N3_44 
REMARK    7  A    between atoms: C16_16  and  C18_18 
REMARK       I    between atoms: C18_18  and  N5_46 
REMARK    8  A    between atoms: C19_19  and  C20_20 
REMARK    9  A    between atoms: C19_19  and  N5_46 
REMARK   10  A    between atoms: C20_20  and  C21_21 
REMARK   11  A    between atoms: C21_21  and  N7_49 
REMARK       I    between atoms: C22_22  and  N8_50 
REMARK   12  A    between atoms: C23_23  and  N8_50 
REMARK   13  A    between atoms: C25_25  and  C27_27 
REMARK       I    between atoms: C27_27  and  N10_52 
REMARK   14  A    between atoms: C28_28  and  N10_52 
REMARK   15  A    between atoms: C30_30  and  C32_32 
REMARK       I    between atoms: C32_32  and  N12_54 
REMARK   16  A    between atoms: C33_33  and  C34_34 
REMARK   17  A    between atoms: C33_33  and  N12_54 
REMARK   18  A    between atoms: C34_34  and  C35_35 
REMARK   19  A    between atoms: C35_35  and  N13_55 
ROOT
HETATM    1  C1  UNL     1      -1.198  -5.442  -0.567  1.00  0.00     0.008 A 
HETATM    2  C2  UNL     1      -0.277  -4.615  -1.213  1.00  0.00     0.017 A 
HETATM    3  C3  UNL     1       0.556  -3.769  -0.471  1.00  0.00     0.032 A 
HETATM    4  C4  UNL     1       0.446  -3.740   0.924  1.00  0.00     0.017 A 
HETATM    5  C5  UNL     1      -0.477  -4.568   1.569  1.00  0.00     0.008 A 
HETATM    6  C6  UNL     1      -1.309  -5.422   0.830  1.00  0.00    -0.049 A 
ENDROOT
BRANCH   6   7
HETATM    7  C7  UNL     1      -2.314  -6.306   1.533  1.00  0.00     0.141 C 
BRANCH   7   8
HETATM    8  C8  UNL     1      -3.339  -5.543   2.361  1.00  0.00     0.226 C 
HETATM    9  O1  UNL     1      -3.529  -5.835   3.539  1.00  0.00    -0.273 OA
HETATM   10  N1  UNL     1      -4.012  -4.572   1.635  1.00  0.00    -0.326 N 
HETATM   11  H23 UNL     1      -3.722  -4.404   0.680  1.00  0.00     0.169 HD
BRANCH  10  12
HETATM   12  C9  UNL     1      -5.008  -3.749   2.123  1.00  0.00     0.052 A 
HETATM   13  C10 UNL     1      -5.570  -3.747   3.375  1.00  0.00     0.118 A 
HETATM   14  N2  UNL     1      -6.521  -2.765   3.415  1.00  0.00    -0.359 N 
HETATM   15  C11 UNL     1      -6.593  -2.113   2.201  1.00  0.00     0.103 A 
HETATM   16  H24 UNL     1      -7.101  -2.531   4.213  1.00  0.00     0.165 HD
HETATM   17  C12 UNL     1      -5.653  -2.722   1.381  1.00  0.00     0.066 A 
BRANCH  15  18
HETATM   18  C13 UNL     1      -7.532  -1.023   1.995  1.00  0.00     0.272 C 
HETATM   19  O2  UNL     1      -8.291  -0.676   2.896  1.00  0.00    -0.266 OA
HETATM   20  N3  UNL     1      -7.478  -0.449   0.741  1.00  0.00    -0.320 N 
HETATM   21  H25 UNL     1      -6.811  -0.804   0.073  1.00  0.00     0.169 HD
BRANCH  20  22
HETATM   22  C14 UNL     1      -8.270   0.597   0.309  1.00  0.00     0.052 A 
HETATM   23  C15 UNL     1      -8.170   1.134  -0.954  1.00  0.00     0.118 A 
HETATM   24  N4  UNL     1      -9.088   2.146  -1.057  1.00  0.00    -0.359 N 
HETATM   25  C16 UNL     1      -9.790   2.279   0.122  1.00  0.00     0.102 A 
HETATM   26  H26 UNL     1      -9.247   2.727  -1.872  1.00  0.00     0.165 HD
HETATM   27  C17 UNL     1      -9.286   1.317   0.984  1.00  0.00     0.066 A 
BRANCH  25  28
HETATM   28  C18 UNL     1     -10.823   3.279   0.273  1.00  0.00     0.268 C 
HETATM   29  O3  UNL     1     -11.124   4.050  -0.636  1.00  0.00    -0.266 OA
HETATM   30  N5  UNL     1     -11.454   3.301   1.494  1.00  0.00    -0.355 N 
HETATM   31  H27 UNL     1     -11.181   2.631   2.199  1.00  0.00     0.162 HD
BRANCH  30  32
HETATM   32  C19 UNL     1     -12.497   4.258   1.817  1.00  0.00     0.130 C 
BRANCH  32  33
HETATM   33  C20 UNL     1     -13.830   3.933   1.145  1.00  0.00     0.089 C 
BRANCH  33  34
HETATM   34  C21 UNL     1     -14.223   5.034   0.183  1.00  0.00     0.049 C 
HETATM   35  N6  UNL     1     -15.042   5.975   0.523  1.00  0.00    -0.393 N 
HETATM   36  H28 UNL     1     -15.380   5.840   1.480  1.00  0.00     0.157 HD
ATOM     37  H6  UNL     1     -15.315   6.749  -0.082  1.00  0.00     0.157 HD
BRANCH  34  38
HETATM   38  N7  UNL     1     -13.682   5.054  -1.063  1.00  0.00    -0.293 NA
HETATM   39  H29 UNL     1     -13.787   5.959  -1.509  1.00  0.00     0.125 HD
HETATM   40  H30 UNL     1     -12.722   4.699  -1.128  1.00  0.00     0.125 HD
ENDBRANCH  34  38
ENDBRANCH  33  34
ENDBRANCH  32  33
ENDBRANCH  30  32
ENDBRANCH  25  28
ENDBRANCH  20  22
ENDBRANCH  15  18
ENDBRANCH  10  12
ENDBRANCH   7   8
ENDBRANCH   6   7
BRANCH   3  41
HETATM   41  C22 UNL     1       1.516  -2.900  -1.206  1.00  0.00     0.257 C 
HETATM   42  O4  UNL     1       1.218  -2.492  -2.327  1.00  0.00    -0.267 OA
HETATM   43  N8  UNL     1       2.709  -2.639  -0.553  1.00  0.00    -0.309 N 
HETATM   44  H31 UNL     1       2.917  -3.084   0.333  1.00  0.00     0.170 HD
BRANCH  43  45
HETATM   45  C23 UNL     1       3.690  -1.840  -1.102  1.00  0.00     0.108 A 
HETATM   46  C24 UNL     1       4.926  -1.513  -0.594  1.00  0.00     0.067 A 
HETATM   47  C25 UNL     1       5.587  -0.652  -1.530  1.00  0.00     0.051 A 
HETATM   48  C26 UNL     1       4.701  -0.494  -2.587  1.00  0.00     0.106 A 
HETATM   49  N9  UNL     1       3.565  -1.215  -2.314  1.00  0.00    -0.351 N 
HETATM   50  H32 UNL     1       2.742  -1.301  -2.902  1.00  0.00     0.166 HD
BRANCH  47  51
HETATM   51  C27 UNL     1       6.930  -0.083  -1.353  1.00  0.00     0.258 C 
HETATM   52  O5  UNL     1       7.573  -0.323  -0.335  1.00  0.00    -0.267 OA
HETATM   53  N10 UNL     1       7.359   0.707  -2.408  1.00  0.00    -0.309 N 
HETATM   54  H33 UNL     1       6.740   0.823  -3.195  1.00  0.00     0.170 HD
BRANCH  53  55
HETATM   55  C28 UNL     1       8.589   1.335  -2.436  1.00  0.00     0.108 A 
HETATM   56  C29 UNL     1       9.636   1.377  -1.538  1.00  0.00     0.067 A 
HETATM   57  C30 UNL     1      10.678   2.187  -2.086  1.00  0.00     0.051 A 
HETATM   58  C31 UNL     1      10.207   2.615  -3.316  1.00  0.00     0.106 A 
HETATM   59  N11 UNL     1       8.956   2.099  -3.515  1.00  0.00    -0.351 N 
HETATM   60  H34 UNL     1       8.392   2.260  -4.337  1.00  0.00     0.166 HD
BRANCH  57  61
HETATM   61  C32 UNL     1      11.986   2.545  -1.541  1.00  0.00     0.253 C 
HETATM   62  O6  UNL     1      12.762   3.292  -2.132  1.00  0.00    -0.268 OA
HETATM   63  N12 UNL     1      12.292   1.973  -0.326  1.00  0.00    -0.356 N 
HETATM   64  H35 UNL     1      11.663   1.297   0.081  1.00  0.00     0.162 HD
BRANCH  63  65
HETATM   65  C33 UNL     1      13.573   2.200   0.312  1.00  0.00     0.130 C 
BRANCH  65  66
HETATM   66  C34 UNL     1      14.676   1.346  -0.298  1.00  0.00     0.095 C 
BRANCH  66  67
HETATM   67  C35 UNL     1      16.021   1.874   0.142  1.00  0.00     0.069 C 
HETATM   68  N14 UNL     1      16.712   2.695  -0.696  1.00  0.00    -0.389 N 
HETATM   69  H37 UNL     1      16.173   3.140  -1.436  1.00  0.00     0.157 HD
HETATM   70  H38 UNL     1      17.387   3.320  -0.273  1.00  0.00     0.157 HD
BRANCH  67  71
HETATM   71  N13 UNL     1      16.468   1.558   1.309  1.00  0.00    -0.389 N 
HETATM   72  H36 UNL     1      17.394   1.971   1.442  1.00  0.00     0.157 HD
ATOM     73  H13 UNL     1      15.975   0.985   1.994  1.00  0.00     0.157 HD
ENDBRANCH  67  71
ENDBRANCH  66  67
ENDBRANCH  65  66
ENDBRANCH  63  65
ENDBRANCH  57  61
ENDBRANCH  53  55
ENDBRANCH  47  51
ENDBRANCH  43  45
ENDBRANCH   3  41
TORSDOF 19
