REMARK  0 active torsions:
REMARK  status: ('A' for Active; 'I' for Inactive)
REMARK       I    between atoms: C2_2  and  C3_3 
REMARK       I    between atoms: C2_2  and  N5_90 
REMARK       I    between atoms: C3_3  and  N1_86 
REMARK       I    between atoms: C4_4  and  C5_5 
REMARK       I    between atoms: C4_4  and  C8_8 
REMARK       I    between atoms: C4_4  and  N1_86 
REMARK       I    between atoms: C8_8  and  N2_87 
REMARK       I    between atoms: C9_9  and  C10_10 
REMARK       I    between atoms: C9_9  and  C13_13 
REMARK       I    between atoms: C9_9  and  N2_87 
REMARK       I    between atoms: C13_13  and  N3_88 
REMARK       I    between atoms: C14_14  and  C15_15 
REMARK       I    between atoms: C14_14  and  C18_18 
REMARK       I    between atoms: C14_14  and  N3_88 
REMARK       I    between atoms: C18_18  and  N4_89 
REMARK       I    between atoms: C19_19  and  C21_21 
REMARK       I    between atoms: C19_19  and  N4_89 
REMARK       I    between atoms: C21_21  and  O6_68 
REMARK       I    between atoms: C22_22  and  C23_23 
REMARK       I    between atoms: C22_22  and  N5_90 
REMARK       I    between atoms: C23_23  and  N6_91 
REMARK       I    between atoms: C25_25  and  C26_26 
REMARK       I    between atoms: C25_25  and  N6_91 
REMARK       I    between atoms: C30_30  and  C31_31 
REMARK       I    between atoms: C30_30  and  N7_92 
REMARK       I    between atoms: C31_31  and  C32_32 
REMARK       I    between atoms: C31_31  and  N8_93 
REMARK       I    between atoms: C32_32  and  C33_33 
REMARK       I    between atoms: C36_36  and  C37_37 
REMARK       I    between atoms: C36_36  and  N8_93 
REMARK       I    between atoms: C37_37  and  C38_38 
REMARK       I    between atoms: C37_37  and  N10_95 
REMARK       I    between atoms: C38_38  and  O11_73 
REMARK       I    between atoms: C40_40  and  O11_73 
REMARK       I    between atoms: C41_41  and  N9_94 
REMARK       I    between atoms: C42_42  and  O15_77 
REMARK       I    between atoms: C43_43  and  O14_76 
REMARK       I    between atoms: C44_44  and  C45_45 
REMARK       I    between atoms: C45_45  and  O13_75 
REMARK       I    between atoms: C46_46  and  O15_77 
REMARK       I    between atoms: C47_47  and  O20_82 
REMARK       I    between atoms: C48_48  and  O19_81 
REMARK       I    between atoms: C49_49  and  O18_80 
REMARK       I    between atoms: C50_50  and  C51_51 
REMARK       I    between atoms: C51_51  and  O17_79 
REMARK       I    between atoms: C52_52  and  N9_94 
REMARK       I    between atoms: C54_54  and  C55_55 
REMARK       I    between atoms: C54_54  and  N10_95 
REMARK       I    between atoms: C55_55  and  C56_56 
REMARK       I    between atoms: C55_55  and  N11_96 
REMARK       I    between atoms: C56_56  and  C57_57 
REMARK       I    between atoms: C60_60  and  O23_85 
ROOT
HETATM    1  C1  UNL     1       8.202   3.257  -1.977  1.00  0.00     0.042 C 
HETATM    2  C2  UNL     1       7.037   2.435  -1.444  1.00  0.00     0.172 C 
HETATM    3  C3  UNL     1       7.454   1.746  -0.132  1.00  0.00     0.240 C 
HETATM    4  C4  UNL     1       8.706  -0.136   0.870  1.00  0.00     0.180 C 
HETATM    5  C5  UNL     1       8.928  -1.630   0.558  1.00  0.00     0.009 C 
HETATM    6  C6  UNL     1       9.429  -2.378   1.800  1.00  0.00     0.012 C 
HETATM    7  C7  UNL     1       7.639  -2.298   0.064  1.00  0.00     0.012 C 
HETATM    8  C8  UNL     1      10.028   0.587   1.219  1.00  0.00     0.241 C 
HETATM    9  C9  UNL     1      10.934   2.675   2.223  1.00  0.00     0.180 C 
HETATM   10  C10 UNL     1      10.455   3.852   3.123  1.00  0.00     0.009 C 
HETATM   11  C11 UNL     1      11.532   4.930   3.305  1.00  0.00     0.012 C 
HETATM   12  C12 UNL     1       9.200   4.534   2.559  1.00  0.00     0.012 C 
HETATM   13  C13 UNL     1      12.252   2.079   2.795  1.00  0.00     0.241 C 
HETATM   14  C14 UNL     1      13.213   0.298   4.247  1.00  0.00     0.180 C 
HETATM   15  C15 UNL     1      12.695  -0.519   5.460  1.00  0.00     0.009 C 
HETATM   16  C16 UNL     1      11.914   0.373   6.437  1.00  0.00     0.012 C 
HETATM   17  C17 UNL     1      13.827  -1.207   6.232  1.00  0.00     0.012 C 
HETATM   18  C18 UNL     1      13.986  -0.608   3.249  1.00  0.00     0.241 C 
HETATM   19  C19 UNL     1      13.953  -1.804   1.103  1.00  0.00     0.178 C 
HETATM   20  C20 UNL     1      12.968  -2.708   0.374  1.00  0.00     0.043 C 
HETATM   21  C21 UNL     1      14.633  -0.877   0.086  1.00  0.00     0.163 C 
HETATM   22  C22 UNL     1       4.612   2.756  -1.241  1.00  0.00     0.240 C 
HETATM   23  C23 UNL     1       3.493   3.671  -0.680  1.00  0.00     0.172 C 
HETATM   24  C24 UNL     1       3.588   5.118  -1.155  1.00  0.00     0.042 C 
HETATM   25  C25 UNL     1       1.583   3.017  -2.150  1.00  0.00     0.241 C 
HETATM   26  C26 UNL     1       0.381   2.036  -2.230  1.00  0.00     0.179 C 
HETATM   27  C27 UNL     1      -0.379   2.181  -3.552  1.00  0.00     0.037 C 
HETATM   28  C28 UNL     1      -1.413   3.253  -3.227  1.00  0.00     0.022 C 
HETATM   29  C29 UNL     1      -1.835   2.879  -1.815  1.00  0.00     0.127 C 
HETATM   30  C30 UNL     1      -0.505   1.860   0.095  1.00  0.00     0.243 C 
HETATM   31  C31 UNL     1      -1.647   2.165   1.117  1.00  0.00     0.177 C 
HETATM   32  C32 UNL     1      -1.300   1.627   2.523  1.00  0.00     0.038 C 
HETATM   33  C33 UNL     1      -2.168   2.104   3.709  1.00  0.00    -0.020 C 
HETATM   34  C34 UNL     1      -2.256   3.627   3.805  1.00  0.00     0.009 C 
HETATM   35  C35 UNL     1      -3.564   1.484   3.738  1.00  0.00     0.009 C 
HETATM   36  C36 UNL     1      -3.321   0.450   0.415  1.00  0.00     0.243 C 
HETATM   37  C37 UNL     1      -4.829   0.248   0.145  1.00  0.00     0.205 C 
HETATM   38  C38 UNL     1      -5.185  -1.249  -0.002  1.00  0.00     0.152 C 
HETATM   39  C39 UNL     1      -5.110  -1.971   1.345  1.00  0.00     0.042 C 
HETATM   40  C40 UNL     1      -6.734  -2.299  -1.511  1.00  0.00     0.286 C 
HETATM   41  C41 UNL     1      -8.149  -2.050  -2.117  1.00  0.00     0.171 C 
HETATM   42  C42 UNL     1      -9.145  -3.005  -1.436  1.00  0.00     0.183 C 
HETATM   43  C43 UNL     1      -8.734  -4.467  -1.726  1.00  0.00     0.180 C 
HETATM   44  C44 UNL     1      -7.199  -4.617  -1.772  1.00  0.00     0.179 C 
HETATM   45  C45 UNL     1      -6.779  -6.010  -1.283  1.00  0.00     0.198 C 
HETATM   46  C46 UNL     1     -11.524  -3.380  -1.232  1.00  0.00     0.292 C 
HETATM   47  C47 UNL     1     -12.799  -2.511  -1.366  1.00  0.00     0.204 C 
HETATM   48  C48 UNL     1     -14.074  -3.366  -1.345  1.00  0.00     0.183 C 
HETATM   49  C49 UNL     1     -13.838  -4.698  -0.628  1.00  0.00     0.180 C 
HETATM   50  C50 UNL     1     -12.688  -5.476  -1.292  1.00  0.00     0.179 C 
HETATM   51  C51 UNL     1     -12.013  -6.428  -0.290  1.00  0.00     0.198 C 
HETATM   52  C52 UNL     1      -7.622  -1.329  -4.444  1.00  0.00     0.214 C 
HETATM   53  C53 UNL     1      -7.786  -1.666  -5.900  1.00  0.00     0.117 C 
HETATM   54  C54 UNL     1      -5.490   2.354  -1.031  1.00  0.00     0.252 C 
HETATM   55  C55 UNL     1      -5.811   2.967  -2.408  1.00  0.00     0.313 C 
HETATM   56  C56 UNL     1      -7.196   3.636  -2.431  1.00  0.00     0.083 C 
HETATM   57  C57 UNL     1      -8.381   2.756  -2.101  1.00  0.00    -0.056 A 
HETATM   58  C58 UNL     1      -8.773   2.576  -0.766  1.00  0.00     0.010 A 
HETATM   59  C59 UNL     1      -9.896   1.810  -0.453  1.00  0.00     0.037 A 
HETATM   60  C60 UNL     1     -10.637   1.225  -1.471  1.00  0.00     0.065 A 
HETATM   61  C61 UNL     1     -10.261   1.377  -2.801  1.00  0.00     0.037 A 
HETATM   62  C62 UNL     1      -9.131   2.140  -3.114  1.00  0.00     0.010 A 
HETATM   63  O1  UNL     1       7.234   2.233   0.979  1.00  0.00    -0.271 OA
HETATM   64  O2  UNL     1      11.110   0.296   0.715  1.00  0.00    -0.271 OA
HETATM   65  O3  UNL     1      13.343   2.623   2.640  1.00  0.00    -0.271 OA
HETATM   66  O4  UNL     1      15.129  -1.002   3.481  1.00  0.00    -0.271 OA
HETATM   67  O5  UNL     1      15.302  -1.236  -0.872  1.00  0.00    -0.648 OA
HETATM   68  O6  UNL     1      14.408   0.435   0.300  1.00  0.00    -0.775 OA
HETATM   69  O7  UNL     1       4.408   1.615  -1.653  1.00  0.00    -0.271 OA
HETATM   70  O8  UNL     1       2.013   3.627  -3.126  1.00  0.00    -0.271 OA
HETATM   71  O9  UNL     1       0.574   1.381   0.463  1.00  0.00    -0.271 OA
HETATM   72  O10 UNL     1      -2.505  -0.466   0.430  1.00  0.00    -0.271 OA
HETATM   73  O11 UNL     1      -6.549  -1.346  -0.459  1.00  0.00    -0.352 OA
HETATM   74  O12 UNL     1      -6.587  -3.618  -0.961  1.00  0.00    -0.349 OA
HETATM   75  O13 UNL     1      -7.233  -7.051  -2.144  1.00  0.00    -0.398 OA
HETATM   76  O14 UNL     1      -9.253  -4.917  -2.988  1.00  0.00    -0.390 OA
HETATM   77  O15 UNL     1     -10.469  -2.675  -1.888  1.00  0.00    -0.348 OA
HETATM   78  O16 UNL     1     -11.711  -4.618  -1.908  1.00  0.00    -0.348 OA
HETATM   79  O17 UNL     1     -11.002  -7.183  -0.955  1.00  0.00    -0.398 OA
HETATM   80  O18 UNL     1     -15.045  -5.469  -0.617  1.00  0.00    -0.390 OA
HETATM   81  O19 UNL     1     -15.124  -2.656  -0.672  1.00  0.00    -0.390 OA
HETATM   82  O20 UNL     1     -12.757  -1.752  -2.602  1.00  0.00    -0.388 OA
HETATM   83  O21 UNL     1      -7.011  -0.335  -4.066  1.00  0.00    -0.274 OA
HETATM   84  O22 UNL     1      -5.446   3.021   0.002  1.00  0.00    -0.271 OA
HETATM   85  O23 UNL     1     -11.739   0.509  -1.111  1.00  0.00    -0.361 OA
HETATM   86  N1  UNL     1       8.174   0.584  -0.285  1.00  0.00    -0.346 N 
HETATM   87  N2  UNL     1       9.879   1.642   2.106  1.00  0.00    -0.346 N 
HETATM   88  N3  UNL     1      12.085   0.970   3.594  1.00  0.00    -0.346 N 
HETATM   89  N4  UNL     1      13.262  -1.058   2.159  1.00  0.00    -0.345 N 
HETATM   90  N5  UNL     1       5.888   3.287  -1.167  1.00  0.00    -0.346 N 
HETATM   91  N6  UNL     1       2.186   3.068  -0.910  1.00  0.00    -0.346 N 
HETATM   92  N7  UNL     1      -0.644   2.306  -1.208  1.00  0.00    -0.337 N 
HETATM   93  N8  UNL     1      -2.970   1.763   0.660  1.00  0.00    -0.346 N 
HETATM   94  N9  UNL     1      -8.195  -2.224  -3.582  1.00  0.00    -0.349 N 
HETATM   95  N10 UNL     1      -5.194   1.013  -1.052  1.00  0.00    -0.344 N 
HETATM   96  N11 UNL     1      -5.575   1.993  -3.498  1.00  0.00     0.092 N 
HETATM   97  H83 UNL     1      14.931   0.898  -0.385  1.00  0.00     0.167 HD
HETATM   98  H84 UNL     1      -8.100  -6.794  -2.516  1.00  0.00     0.209 HD
HETATM   99  H85 UNL     1     -10.230  -4.950  -2.870  1.00  0.00     0.210 HD
HETATM  100  H86 UNL     1     -10.685  -7.862  -0.333  1.00  0.00     0.209 HD
HETATM  101  H87 UNL     1     -15.306  -5.649  -1.539  1.00  0.00     0.210 HD
HETATM  102  H88 UNL     1     -15.831  -3.304  -0.489  1.00  0.00     0.210 HD
HETATM  103  H89 UNL     1     -11.825  -1.829  -2.904  1.00  0.00     0.210 HD
HETATM  104  H90 UNL     1     -12.203   0.190  -1.909  1.00  0.00     0.217 HD
HETATM  105  H91 UNL     1       8.531   0.342  -1.203  1.00  0.00     0.163 HD
HETATM  106  H92 UNL     1       8.919   1.987   2.131  1.00  0.00     0.163 HD
HETATM  107  H93 UNL     1      11.201   0.484   3.519  1.00  0.00     0.163 HD
HETATM  108  H94 UNL     1      12.581  -0.385   1.808  1.00  0.00     0.163 HD
HETATM  109  H95 UNL     1       6.033   3.999  -0.461  1.00  0.00     0.163 HD
HETATM  110  H96 UNL     1       1.922   2.304  -0.283  1.00  0.00     0.163 HD
HETATM  111  H97 UNL     1      -3.732   2.438   0.736  1.00  0.00     0.163 HD
HETATM  112  H98 UNL     1      -8.673  -3.048  -3.943  1.00  0.00     0.163 HD
HETATM  113  H99 UNL     1      -5.043   0.615  -1.977  1.00  0.00     0.163 HD
HETATM  114  HA0 UNL     1      -6.308   1.262  -3.473  1.00  0.00     0.313 HD
HETATM  115  HA1 UNL     1      -5.739   2.452  -4.394  1.00  0.00     0.313 HD
ENDROOT
TORSDOF 42
