REMARK  29 active torsions:
REMARK  status: ('A' for Active; 'I' for Inactive)
REMARK    1  A    between atoms: C2_2  and  C3_3 
REMARK    2  A    between atoms: C2_2  and  N6_56 
REMARK    3  A    between atoms: C3_3  and  C4_4 
REMARK    4  A    between atoms: C4_4  and  C5_5 
REMARK    5  A    between atoms: C5_5  and  C6_6 
REMARK    6  A    between atoms: C5_5  and  C10_10 
REMARK    7  A    between atoms: C6_6  and  C7_7 
REMARK    8  A    between atoms: C7_7  and  C8_8 
REMARK    9  A    between atoms: C8_8  and  N1_50 
REMARK       I    between atoms: C9_9  and  N2_52 
REMARK       I    between atoms: C9_9  and  N3_53 
REMARK       I    between atoms: C10_10  and  N4_54 
REMARK   10  A    between atoms: C11_11  and  C12_12 
REMARK   11  A    between atoms: C11_11  and  C14_14 
REMARK   12  A    between atoms: C11_11  and  N4_54 
REMARK   13  A    between atoms: C12_12  and  C13_13 
REMARK   14  A    between atoms: C13_13  and  O4_42 
REMARK   15  A    between atoms: C14_14  and  C15_15 
REMARK   16  A    between atoms: C15_15  and  C16_16 
REMARK   17  A    between atoms: C16_16  and  C17_17 
REMARK   18  A    between atoms: C16_16  and  C20_20 
REMARK   19  A    between atoms: C17_17  and  N5_55 
REMARK       I    between atoms: C18_18  and  N5_55 
REMARK   20  A    between atoms: C20_20  and  O8_46 
REMARK   21  A    between atoms: C21_21  and  C22_22 
REMARK       I    between atoms: C21_21  and  N6_56 
REMARK   22  A    between atoms: C22_22  and  C23_23 
REMARK   23  A    between atoms: C23_23  and  C24_24 
REMARK   24  A    between atoms: C24_24  and  N7_57 
REMARK   25  A    between atoms: C25_25  and  C26_26 
REMARK       I    between atoms: C25_25  and  N7_57 
REMARK   26  A    between atoms: C29_29  and  N8_58 
REMARK   27  A    between atoms: C32_32  and  C33_33 
REMARK   28  A    between atoms: C32_32  and  N8_58 
REMARK   29  A    between atoms: C38_38  and  N13_66 
ROOT
HETATM    1  C1  UNL     1       0.367  -4.686  -3.663  1.00  0.00     0.040 C 
HETATM    2  C2  UNL     1       0.648  -3.331  -3.023  1.00  0.00     0.150 C 
ENDROOT
BRANCH   2   3
HETATM    3  C3  UNL     1       1.595  -3.493  -1.828  1.00  0.00     0.149 C 
HETATM    4  O1  UNL     1       2.535  -4.294  -1.853  1.00  0.00    -0.296 OA
BRANCH   3   5
HETATM    5  C4  UNL     1       1.441  -2.538  -0.661  1.00  0.00     0.094 C 
BRANCH   5   6
HETATM    6  C5  UNL     1       0.082  -2.645   0.055  1.00  0.00     0.085 C 
BRANCH   6   7
HETATM    7  C6  UNL     1       0.193  -3.660   1.211  1.00  0.00     0.016 C 
BRANCH   7   8
HETATM    8  C7  UNL     1      -1.104  -4.409   1.546  1.00  0.00     0.020 C 
BRANCH   8   9
HETATM    9  C8  UNL     1      -2.144  -3.599   2.311  1.00  0.00     0.121 C 
BRANCH   9  10
HETATM   10  N1  UNL     1      -2.886  -2.747   1.387  1.00  0.00    -0.372 N 
HETATM   11  C9  UNL     1      -3.778  -1.977   1.887  1.00  0.00     0.121 C 
HETATM   12  N2  UNL     1      -4.479  -1.146   1.090  1.00  0.00    -0.279 NA
HETATM   13  N3  UNL     1      -4.194  -1.842   3.171  1.00  0.00    -0.279 NA
HETATM   14  H40 UNL     1      -4.440  -0.169   1.400  1.00  0.00     0.126 HD
HETATM   15  H41 UNL     1      -4.093  -1.195   0.155  1.00  0.00     0.126 HD
HETATM   16  H42 UNL     1      -4.018  -2.673   3.726  1.00  0.00     0.126 HD
HETATM   17  H43 UNL     1      -5.189  -1.627   3.192  1.00  0.00     0.126 HD
ATOM     18  H1  UNL     1      -2.701  -2.764   0.384  1.00  0.00     0.161 HD
ENDBRANCH   9  10
ENDBRANCH   8   9
ENDBRANCH   7   8
ENDBRANCH   6   7
BRANCH   6  19
HETATM   19  C10 UNL     1      -0.288  -1.234   0.508  1.00  0.00     0.222 C 
HETATM   20  O2  UNL     1      -0.183  -0.844   1.666  1.00  0.00    -0.273 OA
HETATM   21  N4  UNL     1      -0.669  -0.393  -0.527  1.00  0.00    -0.349 N 
HETATM   22  H44 UNL     1      -0.442  -0.672  -1.483  1.00  0.00     0.163 HD
BRANCH  21  23
HETATM   23  C11 UNL     1      -0.769   1.053  -0.297  1.00  0.00     0.164 C 
BRANCH  23  24
HETATM   24  C12 UNL     1       0.618   1.695  -0.398  1.00  0.00     0.143 C 
BRANCH  24  25
HETATM   25  C13 UNL     1       0.838   2.863   0.518  1.00  0.00     0.141 C 
HETATM   26  O3  UNL     1       1.906   3.453   0.620  1.00  0.00    -0.650 OA
BRANCH  25  27
HETATM   27  O4  UNL     1      -0.212   3.181   1.286  1.00  0.00    -0.776 OA
HETATM   28  H38 UNL     1       0.161   3.573   2.114  1.00  0.00     0.167 HD
ENDBRANCH  25  27
ENDBRANCH  24  25
ENDBRANCH  23  24
BRANCH  23  29
HETATM   29  C14 UNL     1      -1.721   1.724  -1.307  1.00  0.00     0.150 C 
HETATM   30  O5  UNL     1      -1.641   2.930  -1.557  1.00  0.00    -0.296 OA
BRANCH  29  31
HETATM   31  C15 UNL     1      -2.809   0.864  -1.937  1.00  0.00     0.097 C 
BRANCH  31  32
HETATM   32  C16 UNL     1      -4.058   1.617  -2.405  1.00  0.00     0.108 C 
BRANCH  32  33
HETATM   33  C17 UNL     1      -4.963   2.087  -1.256  1.00  0.00     0.138 C 
BRANCH  33  34
HETATM   34  N5  UNL     1      -4.343   3.027  -0.343  1.00  0.00    -0.361 N 
HETATM   35  C18 UNL     1      -3.995   2.732   0.952  1.00  0.00     0.213 C 
HETATM   36  C19 UNL     1      -3.413   3.900   1.701  1.00  0.00     0.117 C 
HETATM   37  O6  UNL     1      -4.164   1.630   1.471  1.00  0.00    -0.274 OA
HETATM   38  H45 UNL     1      -4.082   3.934  -0.724  1.00  0.00     0.162 HD
ENDBRANCH  33  34
ENDBRANCH  32  33
BRANCH  32  39
HETATM   39  C20 UNL     1      -3.758   2.746  -3.365  1.00  0.00     0.145 C 
HETATM   40  O7  UNL     1      -4.215   3.877  -3.330  1.00  0.00    -0.650 OA
BRANCH  39  41
HETATM   41  O8  UNL     1      -2.951   2.368  -4.377  1.00  0.00    -0.776 OA
HETATM   42  H39 UNL     1      -2.821   3.195  -4.890  1.00  0.00     0.167 HD
ENDBRANCH  39  41
ENDBRANCH  32  39
ENDBRANCH  31  32
ENDBRANCH  29  31
ENDBRANCH  23  29
ENDBRANCH  21  23
ENDBRANCH   6  19
ENDBRANCH   5   6
ENDBRANCH   3   5
ENDBRANCH   2   3
BRANCH   2  43
HETATM   43  N6  UNL     1       1.247  -2.429  -3.995  1.00  0.00    -0.350 N 
HETATM   44  C21 UNL     1       1.019  -1.070  -3.951  1.00  0.00     0.218 C 
HETATM   45  O9  UNL     1       0.294  -0.551  -3.104  1.00  0.00    -0.274 OA
HETATM   46  H46 UNL     1       2.113  -2.733  -4.434  1.00  0.00     0.163 HD
BRANCH  44  47
HETATM   47  C22 UNL     1       1.641  -0.327  -5.119  1.00  0.00     0.104 C 
BRANCH  47  48
HETATM   48  C23 UNL     1       1.714   1.189  -4.940  1.00  0.00     0.029 C 
BRANCH  48  49
HETATM   49  C24 UNL     1       3.086   1.680  -4.481  1.00  0.00     0.123 C 
BRANCH  49  50
HETATM   50  N7  UNL     1       3.340   1.475  -3.073  1.00  0.00    -0.357 N 
HETATM   51  C25 UNL     1       3.981   0.355  -2.586  1.00  0.00     0.251 C 
HETATM   52  O10 UNL     1       4.225  -0.627  -3.278  1.00  0.00    -0.268 OA
HETATM   53  H47 UNL     1       3.045   2.203  -2.436  1.00  0.00     0.162 HD
BRANCH  51  54
HETATM   54  C26 UNL     1       4.332   0.371  -1.136  1.00  0.00     0.032 A 
HETATM   55  C27 UNL     1       4.487   1.558  -0.415  1.00  0.00     0.019 A 
HETATM   56  C28 UNL     1       4.742   1.523   0.963  1.00  0.00     0.024 A 
HETATM   57  C29 UNL     1       4.814   0.313   1.657  1.00  0.00     0.008 A 
HETATM   58  C30 UNL     1       4.763  -0.868   0.902  1.00  0.00     0.024 A 
HETATM   59  C31 UNL     1       4.524  -0.845  -0.477  1.00  0.00     0.019 A 
BRANCH  57  60
HETATM   60  N8  UNL     1       5.062   0.218   3.033  1.00  0.00    -0.287 NA
HETATM   61  H48 UNL     1       4.698  -0.668   3.393  1.00  0.00     0.128 HD
BRANCH  60  62
HETATM   62  C32 UNL     1       4.644   1.300   3.931  1.00  0.00     0.151 C 
BRANCH  62  63
HETATM   63  C33 UNL     1       3.137   1.397   4.033  1.00  0.00     0.038 A 
HETATM   64  C34 UNL     1       2.478   2.581   3.697  1.00  0.00     0.116 A 
HETATM   65  N9  UNL     1       1.125   2.715   3.699  1.00  0.00    -0.348 N 
HETATM   66  C35 UNL     1       0.436   1.597   4.044  1.00  0.00     0.140 A 
ATOM     67  H9  UNL     1       0.661   3.591   3.459  1.00  0.00     0.167 HD
HETATM   68  C36 UNL     1       1.094   0.423   4.397  1.00  0.00     0.146 A 
HETATM   69  N12 UNL     1      -0.956   1.727   3.956  1.00  0.00    -0.317 N 
HETATM   70  C37 UNL     1       0.240  -0.725   4.752  1.00  0.00     0.278 A 
HETATM   71  N10 UNL     1       2.449   0.290   4.422  1.00  0.00    -0.350 N 
HETATM   72  O11 UNL     1       0.679  -1.806   5.133  1.00  0.00    -0.265 OA
HETATM   73  N11 UNL     1      -1.113  -0.498   4.643  1.00  0.00    -0.298 N 
HETATM   74  C38 UNL     1      -1.663   0.678   4.224  1.00  0.00     0.159 A 
HETATM   75  H49 UNL     1      -1.712  -1.282   4.840  1.00  0.00     0.171 HD
ATOM     76  H10 UNL     1       2.912  -0.572   4.710  1.00  0.00     0.166 HD
ATOM     77  H12 UNL     1      -1.393   2.610   3.692  1.00  0.00     0.170 HD
BRANCH  74  78
HETATM   78  N13 UNL     1      -3.013   0.685   4.099  1.00  0.00    -0.274 NA
HETATM   79  H50 UNL     1      -3.323   1.424   3.470  1.00  0.00     0.127 HD
HETATM   80  H51 UNL     1      -3.399  -0.201   3.772  1.00  0.00     0.127 HD
ENDBRANCH  74  78
ENDBRANCH  62  63
ENDBRANCH  60  62
ENDBRANCH  57  60
ENDBRANCH  51  54
ENDBRANCH  49  50
ENDBRANCH  48  49
ENDBRANCH  47  48
ENDBRANCH  44  47
ENDBRANCH   2  43
TORSDOF 29
