REMARK  0 active torsions:
REMARK  status: ('A' for Active; 'I' for Inactive)
REMARK       I    between atoms: C2_2  and  C3_3 
REMARK       I    between atoms: C2_2  and  O13_64 
REMARK       I    between atoms: C3_3  and  C4_4 
REMARK       I    between atoms: C3_3  and  N1_65 
REMARK       I    between atoms: C4_4  and  O2_53 
REMARK       I    between atoms: C5_5  and  C6_6 
REMARK       I    between atoms: C5_5  and  N1_65 
REMARK       I    between atoms: C6_6  and  C7_7 
REMARK       I    between atoms: C6_6  and  N3_67 
REMARK       I    between atoms: C7_7  and  C8_8 
REMARK       I    between atoms: C16_16  and  C17_17 
REMARK       I    between atoms: C16_16  and  N3_67 
REMARK       I    between atoms: C17_17  and  C18_18 
REMARK       I    between atoms: C17_17  and  N5_69 
REMARK       I    between atoms: C18_18  and  C19_19 
REMARK       I    between atoms: C19_19  and  N4_68 
REMARK       I    between atoms: C20_20  and  C21_21 
REMARK       I    between atoms: C20_20  and  N5_69 
REMARK       I    between atoms: C21_21  and  C22_22 
REMARK       I    between atoms: C21_21  and  N6_70 
REMARK       I    between atoms: C25_25  and  C26_26 
REMARK       I    between atoms: C25_25  and  N6_70 
REMARK       I    between atoms: C26_26  and  N7_71 
REMARK       I    between atoms: C27_27  and  C28_28 
REMARK       I    between atoms: C27_27  and  N7_71 
REMARK       I    between atoms: C28_28  and  C29_29 
REMARK       I    between atoms: C28_28  and  N9_73 
REMARK       I    between atoms: C29_29  and  C30_30 
REMARK       I    between atoms: C30_30  and  C31_31 
REMARK       I    between atoms: C31_31  and  C32_32 
REMARK       I    between atoms: C32_32  and  N8_72 
REMARK       I    between atoms: C33_33  and  C34_34 
REMARK       I    between atoms: C33_33  and  N9_73 
REMARK       I    between atoms: C38_38  and  C39_39 
REMARK       I    between atoms: C38_38  and  N10_74 
REMARK       I    between atoms: C43_43  and  C44_44 
REMARK       I    between atoms: C43_43  and  N11_75 
REMARK       I    between atoms: C44_44  and  C45_45 
REMARK       I    between atoms: C44_44  and  N15_80 
REMARK       I    between atoms: C45_45  and  C46_46 
REMARK       I    between atoms: C46_46  and  C47_47 
REMARK       I    between atoms: C47_47  and  N12_76 
REMARK       I    between atoms: C48_48  and  N13_78 
REMARK       I    between atoms: C48_48  and  N14_79 
REMARK       I    between atoms: C49_49  and  C50_50 
REMARK       I    between atoms: C49_49  and  N15_80 
REMARK       I    between atoms: C50_50  and  N16_81 
ROOT
HETATM    1  C1  UNL     1     -10.691   0.893  -3.668  1.00  0.00     0.042 C 
HETATM    2  C2  UNL     1      -9.504   1.775  -4.040  1.00  0.00     0.147 C 
HETATM    3  C3  UNL     1      -8.996   2.667  -2.887  1.00  0.00     0.210 C 
HETATM    4  C4  UNL     1     -10.140   3.376  -2.154  1.00  0.00     0.166 C 
HETATM    5  C5  UNL     1      -6.880   1.578  -2.175  1.00  0.00     0.241 C 
HETATM    6  C6  UNL     1      -6.115   0.944  -1.000  1.00  0.00     0.181 C 
HETATM    7  C7  UNL     1      -5.586   2.022  -0.042  1.00  0.00     0.075 C 
HETATM    8  C8  UNL     1      -6.646   2.624   0.829  1.00  0.00    -0.028 A 
HETATM    9  C9  UNL     1      -7.181   2.052   1.967  1.00  0.00     0.096 A 
HETATM   10  C10 UNL     1      -8.229   4.022   1.686  1.00  0.00     0.042 A 
HETATM   11  C11 UNL     1      -9.068   5.136   1.810  1.00  0.00     0.030 A 
HETATM   12  C12 UNL     1      -8.960   6.139   0.843  1.00  0.00     0.002 A 
HETATM   13  C13 UNL     1      -8.043   6.034  -0.200  1.00  0.00     0.001 A 
HETATM   14  C14 UNL     1      -7.207   4.917  -0.305  1.00  0.00     0.014 A 
HETATM   15  C15 UNL     1      -7.302   3.885   0.652  1.00  0.00    -0.002 A 
HETATM   16  C16 UNL     1      -4.417  -0.864  -0.947  1.00  0.00     0.241 C 
HETATM   17  C17 UNL     1      -3.324  -1.605  -1.746  1.00  0.00     0.185 C 
HETATM   18  C18 UNL     1      -3.795  -2.121  -3.107  1.00  0.00     0.137 C 
HETATM   19  C19 UNL     1      -5.008  -3.019  -3.032  1.00  0.00     0.217 C 
HETATM   20  C20 UNL     1      -1.542  -3.232  -1.103  1.00  0.00     0.241 C 
HETATM   21  C21 UNL     1      -1.174  -4.352  -0.103  1.00  0.00     0.180 C 
HETATM   22  C22 UNL     1      -1.639  -5.750  -0.585  1.00  0.00     0.009 C 
HETATM   23  C23 UNL     1      -0.925  -6.165  -1.876  1.00  0.00     0.012 C 
HETATM   24  C24 UNL     1      -3.154  -5.873  -0.766  1.00  0.00     0.012 C 
HETATM   25  C25 UNL     1      -1.264  -4.647   2.360  1.00  0.00     0.236 C 
HETATM   26  C26 UNL     1      -1.673  -3.946   3.655  1.00  0.00     0.225 C 
HETATM   27  C27 UNL     1      -0.611  -1.756   3.370  1.00  0.00     0.240 C 
HETATM   28  C28 UNL     1       0.594  -0.865   3.736  1.00  0.00     0.176 C 
HETATM   29  C29 UNL     1       0.276   0.046   4.928  1.00  0.00     0.035 C 
HETATM   30  C30 UNL     1       0.267  -0.699   6.266  1.00  0.00     0.004 C 
HETATM   31  C31 UNL     1      -0.044   0.205   7.466  1.00  0.00     0.030 C 
HETATM   32  C32 UNL     1       0.945   1.345   7.724  1.00  0.00     0.267 C 
HETATM   33  C33 UNL     1       1.612  -0.617   1.516  1.00  0.00     0.241 C 
HETATM   34  C34 UNL     1       1.660   0.259   0.246  1.00  0.00     0.179 C 
HETATM   35  C35 UNL     1       0.300   0.220  -0.465  1.00  0.00     0.037 C 
HETATM   36  C36 UNL     1       0.657   0.131  -1.943  1.00  0.00     0.022 C 
HETATM   37  C37 UNL     1       1.930  -0.699  -1.943  1.00  0.00     0.127 C 
HETATM   38  C38 UNL     1       3.963  -0.181  -0.507  1.00  0.00     0.243 C 
HETATM   39  C39 UNL     1       4.892  -0.928  -1.496  1.00  0.00     0.179 C 
HETATM   40  C40 UNL     1       4.850  -2.435  -1.236  1.00  0.00     0.037 C 
HETATM   41  C41 UNL     1       5.928  -2.627  -0.173  1.00  0.00     0.022 C 
HETATM   42  C42 UNL     1       7.009  -1.645  -0.602  1.00  0.00     0.127 C 
HETATM   43  C43 UNL     1       6.773   0.636  -1.743  1.00  0.00     0.243 C 
HETATM   44  C44 UNL     1       8.196   1.101  -1.358  1.00  0.00     0.176 C 
HETATM   45  C45 UNL     1       9.321   0.243  -1.956  1.00  0.00     0.036 C 
HETATM   46  C46 UNL     1       9.172  -0.084  -3.449  1.00  0.00     0.022 C 
HETATM   47  C47 UNL     1       9.070   1.135  -4.366  1.00  0.00     0.121 C 
HETATM   48  C48 UNL     1      10.370   3.030  -4.870  1.00  0.00     0.121 C 
HETATM   49  C49 UNL     1       9.230   1.912   0.773  1.00  0.00     0.251 C 
HETATM   50  C50 UNL     1       8.984   1.955   2.298  1.00  0.00     0.304 C 
HETATM   51  C51 UNL     1      10.247   2.345   3.057  1.00  0.00     0.053 C 
HETATM   52  O1  UNL     1     -10.880   4.237  -2.600  1.00  0.00    -0.648 OA
HETATM   53  O2  UNL     1     -10.305   2.940  -0.881  1.00  0.00    -0.775 OA
HETATM   54  O3  UNL     1      -6.343   1.786  -3.265  1.00  0.00    -0.271 OA
HETATM   55  O4  UNL     1      -4.695  -1.153   0.217  1.00  0.00    -0.271 OA
HETATM   56  O5  UNL     1      -5.626  -3.288  -2.012  1.00  0.00    -0.274 OA
HETATM   57  O6  UNL     1      -0.837  -2.939  -2.067  1.00  0.00    -0.271 OA
HETATM   58  O7  UNL     1      -0.526  -5.627   2.354  1.00  0.00    -0.272 OA
HETATM   59  O8  UNL     1      -1.486  -1.400   2.578  1.00  0.00    -0.271 OA
HETATM   60  O9  UNL     1       2.113  -1.738   1.598  1.00  0.00    -0.271 OA
HETATM   61  O10 UNL     1       4.404   0.416   0.480  1.00  0.00    -0.271 OA
HETATM   62  O11 UNL     1       6.079   1.331  -2.495  1.00  0.00    -0.271 OA
HETATM   63  O12 UNL     1      10.155   2.500   0.222  1.00  0.00    -0.271 OA
HETATM   64  O13 UNL     1      -9.865   2.552  -5.184  1.00  0.00    -0.393 OA
HETATM   65  N1  UNL     1      -8.189   1.904  -1.927  1.00  0.00    -0.343 N 
HETATM   66  N2  UNL     1      -8.122   2.903   2.478  1.00  0.00    -0.365 N 
HETATM   67  N3  UNL     1      -5.017   0.184  -1.602  1.00  0.00    -0.346 N 
HETATM   68  N4  UNL     1      -5.407  -3.519  -4.239  1.00  0.00    -0.370 N 
HETATM   69  N5  UNL     1      -2.774  -2.658  -0.902  1.00  0.00    -0.346 N 
HETATM   70  N6  UNL     1      -1.708  -4.001   1.221  1.00  0.00    -0.346 N 
HETATM   71  N7  UNL     1      -0.647  -2.979   4.005  1.00  0.00    -0.351 N 
HETATM   72  N8  UNL     1       2.297   0.858   7.963  1.00  0.00     0.078 N 
HETATM   73  N9  UNL     1       0.890  -0.055   2.556  1.00  0.00    -0.346 N 
HETATM   74  N10 UNL     1       2.605  -0.270  -0.733  1.00  0.00    -0.337 N 
HETATM   75  N11 UNL     1       6.291  -0.564  -1.261  1.00  0.00    -0.337 N 
HETATM   76  N12 UNL     1      10.303   1.905  -4.266  1.00  0.00    -0.372 N 
ATOM     77  H12 UNL     1      11.095   1.555  -3.727  1.00  0.00     0.161 HD
HETATM   78  N13 UNL     1      11.502   3.762  -4.802  1.00  0.00    -0.279 NA
HETATM   79  N14 UNL     1       9.453   3.669  -5.629  1.00  0.00    -0.279 NA
HETATM   80  N15 UNL     1       8.274   1.188   0.098  1.00  0.00    -0.346 N 
HETATM   81  N16 UNL     1       8.477   0.645   2.768  1.00  0.00     0.091 N 
HETATM   82  H61 UNL     1     -10.999   3.535  -0.523  1.00  0.00     0.167 HD
HETATM   83  H62 UNL     1      -9.052   2.968  -5.525  1.00  0.00     0.210 HD
HETATM   84  H63 UNL     1      -8.546   1.877  -0.973  1.00  0.00     0.163 HD
HETATM   85  H64 UNL     1      -8.664   2.737   3.315  1.00  0.00     0.165 HD
HETATM   86  H65 UNL     1      -4.764   0.438  -2.552  1.00  0.00     0.163 HD
HETATM   87  H66 UNL     1      -6.162  -4.193  -4.221  1.00  0.00     0.159 HD
HETATM   88  H67 UNL     1      -4.793  -3.527  -5.043  1.00  0.00     0.159 HD
HETATM   89  H68 UNL     1      -3.379  -3.008  -0.160  1.00  0.00     0.163 HD
HETATM   90  H69 UNL     1      -1.910  -3.010   1.373  1.00  0.00     0.163 HD
HETATM   91  H70 UNL     1       0.238  -3.361   4.322  1.00  0.00     0.163 HD
HETATM   92  H71 UNL     1       2.682   0.460   7.108  1.00  0.00     0.312 HD
HETATM   93  H72 UNL     1       2.901   1.645   8.197  1.00  0.00     0.312 HD
HETATM   94  H73 UNL     1       0.185   0.625   2.297  1.00  0.00     0.163 HD
HETATM   95  H74 UNL     1      12.226   3.218  -4.342  1.00  0.00     0.126 HD
HETATM   96  H75 UNL     1      11.814   4.067  -5.715  1.00  0.00     0.126 HD
HETATM   97  H76 UNL     1       8.511   3.315  -5.519  1.00  0.00     0.126 HD
HETATM   98  H77 UNL     1       9.472   4.670  -5.468  1.00  0.00     0.126 HD
HETATM   99  H78 UNL     1       7.499   0.844   0.663  1.00  0.00     0.163 HD
HETATM  100  H79 UNL     1       9.209  -0.052   2.621  1.00  0.00     0.313 HD
HETATM  101  H80 UNL     1       8.337   0.691   3.777  1.00  0.00     0.313 HD
ENDROOT
TORSDOF 35
