REMARK  28 active torsions:
REMARK  status: ('A' for Active; 'I' for Inactive)
REMARK    1  A    between atoms: C1_1  and  N17_75 
REMARK    2  A    between atoms: C3_3  and  C6_6 
REMARK       I    between atoms: C6_6  and  N2_59 
REMARK    3  A    between atoms: C7_7  and  N2_59 
REMARK    4  A    between atoms: C9_9  and  C12_12 
REMARK       I    between atoms: C12_12  and  N4_61 
REMARK    5  A    between atoms: C13_13  and  C14_14 
REMARK    6  A    between atoms: C13_13  and  N4_61 
REMARK    7  A    between atoms: C14_14  and  C15_15 
REMARK    8  A    between atoms: C15_15  and  C16_16 
REMARK    9  A    between atoms: C15_15  and  N16_74 
REMARK       I    between atoms: C16_16  and  N5_62 
REMARK   10  A    between atoms: C17_17  and  N5_62 
REMARK   11  A    between atoms: C18_18  and  C21_21 
REMARK       I    between atoms: C21_21  and  N8_66 
REMARK   12  A    between atoms: C22_22  and  N8_66 
REMARK   13  A    between atoms: C24_24  and  C27_27 
REMARK       I    between atoms: C27_27  and  N10_68 
REMARK   14  A    between atoms: C28_28  and  N10_68 
REMARK   15  A    between atoms: C30_30  and  C33_33 
REMARK       I    between atoms: C33_33  and  N12_70 
REMARK   16  A    between atoms: C34_34  and  N12_70 
REMARK   17  A    between atoms: C36_36  and  C39_39 
REMARK       I    between atoms: C39_39  and  N14_72 
REMARK   18  A    between atoms: C40_40  and  C41_41 
REMARK   19  A    between atoms: C40_40  and  N14_72 
REMARK   20  A    between atoms: C41_41  and  C42_42 
REMARK   21  A    between atoms: C42_42  and  C43_43 
REMARK   22  A    between atoms: C43_43  and  C44_44 
REMARK   23  A    between atoms: C44_44  and  C45_45 
REMARK   24  A    between atoms: C45_45  and  C46_46 
REMARK   25  A    between atoms: C46_46  and  N15_73 
REMARK   26  A    between atoms: C47_47  and  C48_48 
REMARK       I    between atoms: C47_47  and  N17_75 
REMARK   27  A    between atoms: C50_50  and  N19_77 
REMARK   28  A    between atoms: C52_52  and  C53_53 
REMARK       I    between atoms: C52_52  and  N19_77 
ROOT
HETATM    1  C17 UNL     1       3.303   6.404   5.489  1.00  0.00     0.125 A 
HETATM    2  C18 UNL     1       2.203   4.878   4.462  1.00  0.00     0.178 A 
HETATM    3  C19 UNL     1       3.863   5.215   5.889  1.00  0.00     0.140 A 
HETATM    4  C20 UNL     1       3.446   2.838   5.249  1.00  0.00     0.157 C 
HETATM    5  N6  UNL     1       2.247   6.190   4.657  1.00  0.00    -0.323 N 
ATOM      6  H6  UNL     1       1.620   6.892   4.265  1.00  0.00     0.169 HD
HETATM    7  N7  UNL     1       3.162   4.251   5.219  1.00  0.00    -0.339 N 
ENDROOT
BRANCH   1   8
HETATM    8  N5  UNL     1       3.810   7.638   5.809  1.00  0.00    -0.310 N 
HETATM    9  C16 UNL     1       3.374   8.825   5.254  1.00  0.00     0.256 C 
HETATM   10  O3  UNL     1       2.340   9.002   4.609  1.00  0.00    -0.271 OA
HETATM   11  H61 UNL     1       4.718   7.614   6.256  1.00  0.00     0.170 HD
BRANCH   9  12
HETATM   12  C15 UNL     1       4.313  10.013   5.579  1.00  0.00     0.310 C 
BRANCH  12  13
HETATM   13  C14 UNL     1       4.788  10.727   4.303  1.00  0.00     0.065 C 
BRANCH  13  14
HETATM   14  C13 UNL     1       5.902   9.989   3.554  1.00  0.00     0.125 C 
BRANCH  14  15
HETATM   15  N4  UNL     1       5.429   8.838   2.814  1.00  0.00    -0.356 N 
HETATM   16  C12 UNL     1       5.637   7.544   3.237  1.00  0.00     0.268 C 
HETATM   17  O2  UNL     1       6.265   7.316   4.271  1.00  0.00    -0.266 OA
HETATM   18  H60 UNL     1       5.100   8.989   1.873  1.00  0.00     0.162 HD
BRANCH  16  19
HETATM   19  C9  UNL     1       5.077   6.492   2.402  1.00  0.00     0.104 A 
HETATM   20  C8  UNL     1       5.510   5.168   2.389  1.00  0.00     0.066 A 
HETATM   21  C7  UNL     1       4.705   4.425   1.499  1.00  0.00     0.053 A 
HETATM   22  C10 UNL     1       3.796   5.304   0.965  1.00  0.00     0.120 A 
HETATM   23  N3  UNL     1       3.980   6.532   1.557  1.00  0.00    -0.354 N 
HETATM   24  C11 UNL     1       3.046   7.622   1.369  1.00  0.00     0.156 C 
BRANCH  21  25
HETATM   25  N2  UNL     1       4.718   3.086   1.168  1.00  0.00    -0.320 N 
HETATM   26  C6  UNL     1       5.555   2.134   1.713  1.00  0.00     0.273 C 
HETATM   27  O1  UNL     1       6.437   2.356   2.535  1.00  0.00    -0.266 OA
HETATM   28  H59 UNL     1       4.080   2.801   0.440  1.00  0.00     0.169 HD
BRANCH  26  29
HETATM   29  C3  UNL     1       5.322   0.800   1.186  1.00  0.00     0.105 A 
HETATM   30  C2  UNL     1       6.295  -0.105   0.785  1.00  0.00     0.066 A 
HETATM   31  C1  UNL     1       5.659  -1.276   0.309  1.00  0.00     0.053 A 
HETATM   32  C4  UNL     1       4.309  -1.079   0.464  1.00  0.00     0.120 A 
HETATM   33  N1  UNL     1       4.110   0.153   1.035  1.00  0.00    -0.354 N 
HETATM   34  C5  UNL     1       2.818   0.622   1.492  1.00  0.00     0.156 C 
BRANCH  31  35
HETATM   35  N17 UNL     1       6.316  -2.381  -0.200  1.00  0.00    -0.320 N 
HETATM   36  C47 UNL     1       5.723  -3.544  -0.660  1.00  0.00     0.273 C 
HETATM   37  O8  UNL     1       4.512  -3.746  -0.662  1.00  0.00    -0.266 OA
HETATM   38  H70 UNL     1       7.323  -2.321  -0.207  1.00  0.00     0.169 HD
BRANCH  36  39
HETATM   39  C48 UNL     1       6.671  -4.547  -1.149  1.00  0.00     0.105 A 
HETATM   40  C51 UNL     1       8.045  -4.456  -1.361  1.00  0.00     0.066 A 
HETATM   41  C50 UNL     1       8.520  -5.697  -1.844  1.00  0.00     0.053 A 
HETATM   42  C49 UNL     1       7.434  -6.532  -1.930  1.00  0.00     0.120 A 
HETATM   43  N18 UNL     1       6.324  -5.838  -1.516  1.00  0.00    -0.354 N 
HETATM   44  C57 UNL     1       4.991  -6.407  -1.471  1.00  0.00     0.156 C 
BRANCH  41  45
HETATM   45  N19 UNL     1       9.794  -6.088  -2.190  1.00  0.00    -0.319 N 
HETATM   46  C52 UNL     1      10.931  -5.308  -2.125  1.00  0.00     0.290 C 
HETATM   47  O9  UNL     1      10.973  -4.140  -1.744  1.00  0.00    -0.264 OA
HETATM   48  H71 UNL     1       9.934  -7.037  -2.526  1.00  0.00     0.169 HD
BRANCH  46  49
HETATM   49  C53 UNL     1      12.110  -6.044  -2.568  1.00  0.00     0.176 A 
HETATM   50  N20 UNL     1      13.402  -5.575  -2.631  1.00  0.00    -0.342 N 
HETATM   51  C54 UNL     1      14.196  -6.585  -3.101  1.00  0.00     0.109 A 
HETATM   52  C56 UNL     1      13.850  -4.253  -2.268  1.00  0.00     0.157 C 
HETATM   53  C55 UNL     1      13.346  -7.644  -3.308  1.00  0.00     0.107 A 
HETATM   54  N21 UNL     1      12.059  -7.306  -2.978  1.00  0.00    -0.346 N 
ATOM     55  H21 UNL     1      11.233  -7.901  -3.036  1.00  0.00     0.167 HD
ENDBRANCH  46  49
ENDBRANCH  41  45
ENDBRANCH  36  39
ENDBRANCH  31  35
ENDBRANCH  26  29
ENDBRANCH  21  25
ENDBRANCH  16  19
ENDBRANCH  14  15
ENDBRANCH  13  14
ENDBRANCH  12  13
BRANCH  12  56
HETATM   56  N16 UNL     1       3.548  10.976   6.407  1.00  0.00     0.092 N 
HETATM   57  H68 UNL     1       2.704  11.227   5.882  1.00  0.00     0.313 HD
HETATM   58  H69 UNL     1       3.196  10.491   7.234  1.00  0.00     0.313 HD
ENDBRANCH  12  56
ENDBRANCH   9  12
ENDBRANCH   1   8
BRANCH   2  59
HETATM   59  C21 UNL     1       1.282   4.269   3.514  1.00  0.00     0.290 C 
HETATM   60  N8  UNL     1       0.490   5.228   2.911  1.00  0.00    -0.319 N 
HETATM   61  H62 UNL     1       0.650   6.182   3.232  1.00  0.00     0.169 HD
HETATM   62  O4  UNL     1       1.242   3.063   3.279  1.00  0.00    -0.264 OA
BRANCH  60  63
HETATM   63  C22 UNL     1      -0.449   5.011   1.930  1.00  0.00     0.053 A 
HETATM   64  C23 UNL     1      -0.864   3.809   1.313  1.00  0.00     0.066 A 
HETATM   65  C24 UNL     1      -1.849   4.103   0.374  1.00  0.00     0.105 A 
HETATM   66  N9  UNL     1      -2.005   5.478   0.411  1.00  0.00    -0.354 N 
HETATM   67  C25 UNL     1      -1.174   6.025   1.356  1.00  0.00     0.120 A 
HETATM   68  C26 UNL     1      -2.928   6.249  -0.398  1.00  0.00     0.156 C 
BRANCH  65  69
HETATM   69  C27 UNL     1      -2.588   3.209  -0.515  1.00  0.00     0.273 C 
HETATM   70  N10 UNL     1      -2.578   1.888  -0.106  1.00  0.00    -0.320 N 
HETATM   71  H63 UNL     1      -2.146   1.666   0.779  1.00  0.00     0.169 HD
HETATM   72  O5  UNL     1      -3.174   3.627  -1.509  1.00  0.00    -0.266 OA
BRANCH  70  73
HETATM   73  C28 UNL     1      -3.166   0.826  -0.767  1.00  0.00     0.053 A 
HETATM   74  C29 UNL     1      -3.193  -0.508  -0.293  1.00  0.00     0.066 A 
HETATM   75  C30 UNL     1      -3.894  -1.286  -1.203  1.00  0.00     0.105 A 
HETATM   76  N11 UNL     1      -4.203  -0.457  -2.263  1.00  0.00    -0.354 N 
HETATM   77  C31 UNL     1      -3.809   0.826  -1.980  1.00  0.00     0.120 A 
HETATM   78  C32 UNL     1      -4.770  -0.862  -3.532  1.00  0.00     0.156 C 
BRANCH  75  79
HETATM   79  C33 UNL     1      -4.184  -2.705  -1.089  1.00  0.00     0.273 C 
HETATM   80  N12 UNL     1      -5.505  -3.003  -1.365  1.00  0.00    -0.320 N 
HETATM   81  H64 UNL     1      -6.143  -2.228  -1.478  1.00  0.00     0.169 HD
HETATM   82  O6  UNL     1      -3.330  -3.508  -0.731  1.00  0.00    -0.266 OA
BRANCH  80  83
HETATM   83  C34 UNL     1      -6.064  -4.266  -1.391  1.00  0.00     0.053 A 
HETATM   84  C35 UNL     1      -7.439  -4.546  -1.596  1.00  0.00     0.066 A 
HETATM   85  C36 UNL     1      -7.630  -5.925  -1.566  1.00  0.00     0.104 A 
HETATM   86  N13 UNL     1      -6.373  -6.470  -1.356  1.00  0.00    -0.354 N 
HETATM   87  C37 UNL     1      -5.435  -5.475  -1.248  1.00  0.00     0.120 A 
HETATM   88  C38 UNL     1      -6.064  -7.881  -1.247  1.00  0.00     0.156 C 
BRANCH  85  89
HETATM   89  C39 UNL     1      -8.846  -6.710  -1.727  1.00  0.00     0.268 C 
HETATM   90  N14 UNL     1     -10.017  -5.983  -1.710  1.00  0.00    -0.356 N 
HETATM   91  H65 UNL     1      -9.980  -4.985  -1.577  1.00  0.00     0.162 HD
HETATM   92  O7  UNL     1      -8.850  -7.930  -1.864  1.00  0.00    -0.266 OA
BRANCH  90  93
HETATM   93  C40 UNL     1     -11.311  -6.602  -1.901  1.00  0.00     0.123 C 
BRANCH  93  94
HETATM   94  C41 UNL     1     -11.640  -6.835  -3.376  1.00  0.00     0.020 C 
BRANCH  94  95
HETATM   95  C42 UNL     1     -11.651  -5.570  -4.243  1.00  0.00     0.002 C 
BRANCH  95  96
HETATM   96  C43 UNL     1     -12.599  -4.454  -3.791  1.00  0.00     0.000 C 
BRANCH  96  97
HETATM   97  C44 UNL     1     -14.069  -4.882  -3.756  1.00  0.00     0.002 C 
BRANCH  97  98
HETATM   98  C45 UNL     1     -15.017  -3.759  -3.320  1.00  0.00     0.030 C 
BRANCH  98  99
HETATM   99  C46 UNL     1     -15.124  -2.626  -4.341  1.00  0.00     0.267 C 
BRANCH  99 100
HETATM  100  N15 UNL     1     -16.117  -1.651  -3.905  1.00  0.00     0.078 N 
HETATM  101  H66 UNL     1     -16.154  -0.882  -4.572  1.00  0.00     0.312 HD
HETATM  102  H67 UNL     1     -15.836  -1.244  -3.014  1.00  0.00     0.312 HD
ENDBRANCH  99 100
ENDBRANCH  98  99
ENDBRANCH  97  98
ENDBRANCH  96  97
ENDBRANCH  95  96
ENDBRANCH  94  95
ENDBRANCH  93  94
ENDBRANCH  90  93
ENDBRANCH  85  89
ENDBRANCH  80  83
ENDBRANCH  75  79
ENDBRANCH  70  73
ENDBRANCH  65  69
ENDBRANCH  60  63
ENDBRANCH   2  59
TORSDOF 28
