REMARK  24 active torsions:
REMARK  status: ('A' for Active; 'I' for Inactive)
REMARK    1  A    between atoms: C2_2  and  N1_50 
REMARK    2  A    between atoms: C3_3  and  C4_4 
REMARK       I    between atoms: C3_3  and  N1_50 
REMARK    3  A    between atoms: C5_5  and  O9_86 
REMARK    4  A    between atoms: C6_6  and  O8_85 
REMARK    5  A    between atoms: C7_7  and  N2_51 
REMARK    6  A    between atoms: C11_11  and  N18_74 
REMARK    7  A    between atoms: C12_12  and  N6_58 
REMARK    8  A    between atoms: C13_13  and  N6_58 
REMARK    9  A    between atoms: C16_16  and  N7_59 
REMARK       I    between atoms: C19_19  and  N7_59 
REMARK       I    between atoms: C19_19  and  N8_60 
REMARK   10  A    between atoms: C20_20  and  N8_60 
REMARK   11  A    between atoms: C23_23  and  N9_61 
REMARK   12  A    between atoms: C26_26  and  N9_61 
REMARK   13  A    between atoms: C27_27  and  N15_70 
REMARK   14  A    between atoms: C31_31  and  N13_68 
REMARK   15  A    between atoms: C32_32  and  O7_84 
REMARK   16  A    between atoms: C33_33  and  O6_83 
REMARK   17  A    between atoms: C34_34  and  C35_35 
REMARK       I    between atoms: C35_35  and  N14_69 
REMARK   18  A    between atoms: C36_36  and  N14_69 
REMARK   19  A    between atoms: C38_38  and  C39_39 
REMARK   20  A    between atoms: C38_38  and  N15_70 
REMARK   21  A    between atoms: C39_39  and  C40_40 
REMARK   22  A    between atoms: C44_44  and  C45_45 
REMARK   23  A    between atoms: C44_44  and  N18_74 
REMARK   24  A    between atoms: C45_45  and  C46_46 
ROOT
HETATM    1  C19 UNL     1      -0.455   0.002  -0.277  1.00  0.00     0.316 C 
HETATM    2  N7  UNL     1       0.421   1.057  -0.196  1.00  0.00    -0.339 N 
HETATM    3  N8  UNL     1      -1.391   0.225  -1.258  1.00  0.00    -0.339 N 
HETATM    4  O3  UNL     1      -0.408  -0.996   0.427  1.00  0.00    -0.247 OA
HETATM    5  H61 UNL     1       0.566   1.539  -1.071  1.00  0.00     0.164 HD
HETATM    6  H62 UNL     1      -1.584   1.202  -1.417  1.00  0.00     0.164 HD
ENDROOT
BRANCH   2   7
HETATM    7  C16 UNL     1       1.550   1.020   0.728  1.00  0.00     0.086 C 
HETATM    8  C15 UNL     1       2.639   0.063   0.210  1.00  0.00     0.027 C 
HETATM    9  C14 UNL     1       4.023   0.459   0.709  1.00  0.00     0.027 C 
HETATM   10  C13 UNL     1       4.433   1.855   0.203  1.00  0.00     0.083 C 
HETATM   11  C18 UNL     1       3.221   2.792   0.021  1.00  0.00     0.027 C 
HETATM   12  C17 UNL     1       2.080   2.442   0.974  1.00  0.00     0.027 C 
BRANCH  10  13
HETATM   13  N6  UNL     1       5.361   2.478   1.138  1.00  0.00    -0.370 N 
HETATM   14  H60 UNL     1       5.009   2.691   2.069  1.00  0.00     0.161 HD
BRANCH  13  15
HETATM   15  C12 UNL     1       6.658   1.965   1.211  1.00  0.00     0.135 A 
HETATM   16  C9  UNL     1       7.423   2.084   2.384  1.00  0.00     0.122 A 
HETATM   17  C10 UNL     1       8.695   1.544   2.354  1.00  0.00     0.144 A 
HETATM   18  N3  UNL     1       7.150   2.632   3.619  1.00  0.00    -0.346 N 
HETATM   19  N2  UNL     1       9.216   1.782   3.595  1.00  0.00    -0.297 N 
HETATM   20  N4  UNL     1       9.272   0.916   1.324  1.00  0.00    -0.317 N 
HETATM   21  C8  UNL     1       8.257   2.458   4.311  1.00  0.00     0.188 A 
HETATM   22  C11 UNL     1       8.478   0.842   0.245  1.00  0.00     0.160 A 
ATOM     23  H4  UNL     1      10.217   0.533   1.355  1.00  0.00     0.170 HD
HETATM   24  N5  UNL     1       7.222   1.324   0.153  1.00  0.00    -0.317 N 
ATOM     25  H5  UNL     1       6.694   1.207  -0.712  1.00  0.00     0.170 HD
ATOM     26  H3  UNL     1       6.284   3.074   3.928  1.00  0.00     0.167 HD
BRANCH  19  27
HETATM   27  C7  UNL     1      10.503   1.390   4.134  1.00  0.00     0.263 C 
HETATM   28  C6  UNL     1      11.398   0.476   3.293  1.00  0.00     0.199 C 
HETATM   29  C5  UNL     1      12.191   1.477   2.474  1.00  0.00     0.189 C 
HETATM   30  C4  UNL     1      12.393   2.610   3.479  1.00  0.00     0.247 C 
HETATM   31  O2  UNL     1      11.265   2.595   4.369  1.00  0.00    -0.346 OA
BRANCH  28  32
HETATM   32  O8  UNL     1      12.305  -0.251   4.152  1.00  0.00    -0.388 OA
HETATM   33  H69 UNL     1      13.141  -0.337   3.650  1.00  0.00     0.210 HD
ENDBRANCH  28  32
BRANCH  29  34
HETATM   34  O9  UNL     1      13.423   0.903   2.023  1.00  0.00    -0.390 OA
HETATM   35  H70 UNL     1      13.197   0.343   1.254  1.00  0.00     0.210 HD
ENDBRANCH  29  34
BRANCH  30  36
HETATM   36  C3  UNL     1      12.551   3.952   2.748  1.00  0.00     0.249 C 
HETATM   37  N1  UNL     1      13.626   3.990   1.880  1.00  0.00    -0.359 N 
HETATM   38  H59 UNL     1      14.227   3.175   1.806  1.00  0.00     0.162 HD
HETATM   39  O1  UNL     1      11.805   4.910   2.929  1.00  0.00    -0.271 OA
BRANCH  37  40
HETATM   40  C2  UNL     1      13.969   5.181   1.133  1.00  0.00     0.118 C 
HETATM   41  C1  UNL     1      14.829   6.126   1.952  1.00  0.00     0.026 C 
ENDBRANCH  37  40
ENDBRANCH  30  36
ENDBRANCH  19  27
BRANCH  22  42
HETATM   42  N18 UNL     1       9.045   0.189  -0.842  1.00  0.00    -0.264 NA
HETATM   43  H66 UNL     1       9.817  -0.369  -0.469  1.00  0.00     0.130 HD
BRANCH  42  44
HETATM   44  C44 UNL     1       8.110  -0.627  -1.607  1.00  0.00     0.101 C 
BRANCH  44  45
HETATM   45  C45 UNL     1       8.878  -1.604  -2.507  1.00  0.00     0.073 C 
BRANCH  45  46
HETATM   46  C46 UNL     1       9.587  -2.663  -1.727  1.00  0.00     0.026 A 
HETATM   47  C47 UNL     1       9.433  -4.033  -1.786  1.00  0.00     0.116 A 
HETATM   48  N19 UNL     1      10.307  -4.530  -0.863  1.00  0.00    -0.355 N 
HETATM   49  C48 UNL     1      10.952  -3.476  -0.285  1.00  0.00     0.182 A 
HETATM   50  C49 UNL     1      10.520  -5.918  -0.541  1.00  0.00     0.156 C 
HETATM   51  N20 UNL     1      10.542  -2.331  -0.784  1.00  0.00    -0.354 N 
ATOM     52  H20 UNL     1      10.861  -1.396  -0.530  1.00  0.00     0.166 HD
ENDBRANCH  45  46
ENDBRANCH  44  45
ENDBRANCH  42  44
ENDBRANCH  22  42
ENDBRANCH  13  15
ENDBRANCH  10  13
ENDBRANCH   2   7
BRANCH   3  53
HETATM   53  C20 UNL     1      -2.486  -0.717  -1.472  1.00  0.00     0.086 C 
HETATM   54  C21 UNL     1      -3.586  -0.559  -0.414  1.00  0.00     0.027 C 
HETATM   55  C22 UNL     1      -4.392   0.729  -0.591  1.00  0.00     0.022 C 
HETATM   56  C23 UNL     1      -4.972   0.887  -2.004  1.00  0.00     0.062 C 
HETATM   57  C24 UNL     1      -3.876   0.712  -3.068  1.00  0.00     0.022 C 
HETATM   58  C25 UNL     1      -3.052  -0.566  -2.888  1.00  0.00     0.027 C 
BRANCH  56  59
HETATM   59  N9  UNL     1      -6.036  -0.079  -2.267  1.00  0.00    -0.272 NA
HETATM   60  H63 UNL     1      -5.774  -1.060  -2.246  1.00  0.00     0.129 HD
BRANCH  59  61
HETATM   61  C26 UNL     1      -7.256   0.032  -1.602  1.00  0.00     0.114 A 
HETATM   62  C29 UNL     1      -7.867   1.209  -1.128  1.00  0.00     0.117 A 
HETATM   63  C28 UNL     1      -9.095   1.052  -0.510  1.00  0.00     0.143 A 
HETATM   64  N12 UNL     1      -7.508   2.544  -1.137  1.00  0.00    -0.346 N 
HETATM   65  N11 UNL     1      -9.762  -0.091  -0.320  1.00  0.00    -0.317 N 
HETATM   66  N13 UNL     1      -9.483   2.309  -0.139  1.00  0.00    -0.297 N 
HETATM   67  C27 UNL     1      -9.108  -1.164  -0.781  1.00  0.00     0.160 A 
ATOM     68  H11 UNL     1     -10.676  -0.140   0.130  1.00  0.00     0.170 HD
HETATM   69  N10 UNL     1      -7.915  -1.141  -1.406  1.00  0.00    -0.321 N 
ATOM     70  H10 UNL     1      -7.501  -2.013  -1.736  1.00  0.00     0.169 HD
HETATM   71  C30 UNL     1      -8.496   3.173  -0.536  1.00  0.00     0.188 A 
ATOM     72  H12 UNL     1      -6.659   2.954  -1.526  1.00  0.00     0.167 HD
BRANCH  67  73
HETATM   73  N15 UNL     1      -9.755  -2.370  -0.574  1.00  0.00    -0.264 NA
HETATM   74  H65 UNL     1     -10.721  -2.179  -0.321  1.00  0.00     0.130 HD
BRANCH  73  75
HETATM   75  C38 UNL     1      -9.565  -3.403  -1.588  1.00  0.00     0.101 C 
BRANCH  75  76
HETATM   76  C39 UNL     1     -10.245  -3.053  -2.915  1.00  0.00     0.073 C 
BRANCH  76  77
HETATM   77  C40 UNL     1     -10.067  -4.128  -3.928  1.00  0.00     0.026 A 
HETATM   78  C41 UNL     1      -9.206  -4.172  -5.005  1.00  0.00     0.116 A 
HETATM   79  N16 UNL     1      -9.447  -5.375  -5.603  1.00  0.00    -0.355 N 
HETATM   80  C42 UNL     1     -10.422  -6.008  -4.889  1.00  0.00     0.182 A 
HETATM   81  C43 UNL     1      -8.798  -5.897  -6.777  1.00  0.00     0.156 C 
HETATM   82  N17 UNL     1     -10.817  -5.280  -3.869  1.00  0.00    -0.354 N 
ATOM     83  H17 UNL     1     -11.529  -5.519  -3.179  1.00  0.00     0.166 HD
ENDBRANCH  76  77
ENDBRANCH  75  76
ENDBRANCH  73  75
ENDBRANCH  67  73
BRANCH  66  84
HETATM   84  C31 UNL     1     -10.714   2.702   0.522  1.00  0.00     0.263 C 
HETATM   85  C32 UNL     1     -11.942   2.678  -0.385  1.00  0.00     0.199 C 
HETATM   86  C33 UNL     1     -12.585   1.342  -0.069  1.00  0.00     0.189 C 
HETATM   87  C34 UNL     1     -12.201   1.128   1.393  1.00  0.00     0.247 C 
HETATM   88  O4  UNL     1     -10.964   1.823   1.640  1.00  0.00    -0.346 OA
BRANCH  85  89
HETATM   89  O7  UNL     1     -12.845   3.739  -0.021  1.00  0.00    -0.388 OA
HETATM   90  H68 UNL     1     -13.739   3.391  -0.233  1.00  0.00     0.210 HD
ENDBRANCH  85  89
BRANCH  86  91
HETATM   91  O6  UNL     1     -13.998   1.410  -0.278  1.00  0.00    -0.390 OA
HETATM   92  H67 UNL     1     -14.337   0.503  -0.128  1.00  0.00     0.210 HD
ENDBRANCH  86  91
BRANCH  87  93
HETATM   93  C35 UNL     1     -12.082  -0.370   1.696  1.00  0.00     0.249 C 
HETATM   94  N14 UNL     1     -11.241  -0.647   2.754  1.00  0.00    -0.359 N 
HETATM   95  H64 UNL     1     -10.576   0.089   2.975  1.00  0.00     0.162 HD
HETATM   96  O5  UNL     1     -12.724  -1.223   1.086  1.00  0.00    -0.271 OA
BRANCH  94  97
HETATM   97  C36 UNL     1     -10.904  -2.004   3.127  1.00  0.00     0.118 C 
HETATM   98  C37 UNL     1     -11.983  -2.639   3.984  1.00  0.00     0.026 C 
ENDBRANCH  94  97
ENDBRANCH  87  93
ENDBRANCH  66  84
ENDBRANCH  59  61
ENDBRANCH  56  59
ENDBRANCH   3  53
TORSDOF 24
