REMARK  26 active torsions:
REMARK  status: ('A' for Active; 'I' for Inactive)
REMARK    1  A    between atoms: C2_2  and  C3_3 
REMARK    2  A    between atoms: C3_3  and  C5_5 
REMARK    3  A    between atoms: C5_5  and  C6_6 
REMARK    4  A    between atoms: C5_5  and  N7_59 
REMARK       I    between atoms: C6_6  and  N1_52 
REMARK    5  A    between atoms: C10_10  and  C11_11 
REMARK       I    between atoms: C11_11  and  N2_53 
REMARK    6  A    between atoms: C12_12  and  C13_13 
REMARK    7  A    between atoms: C12_12  and  C17_17 
REMARK    8  A    between atoms: C12_12  and  N2_53 
REMARK    9  A    between atoms: C13_13  and  C14_14 
REMARK       I    between atoms: C17_17  and  N3_54 
REMARK   10  A    between atoms: C18_18  and  C19_19 
REMARK   11  A    between atoms: C18_18  and  C23_23 
REMARK   12  A    between atoms: C18_18  and  N3_54 
REMARK   13  A    between atoms: C19_19  and  C20_20 
REMARK   14  A    between atoms: C20_20  and  C21_21 
REMARK   15  A    between atoms: C21_21  and  N4_55 
REMARK       I    between atoms: C22_22  and  N5_57 
REMARK       I    between atoms: C22_22  and  N6_58 
REMARK   16  A    between atoms: C23_23  and  O5_46 
REMARK   17  A    between atoms: C24_24  and  C25_25 
REMARK       I    between atoms: C24_24  and  N7_59 
REMARK   18  A    between atoms: C29_29  and  C30_30 
REMARK       I    between atoms: C29_29  and  N8_60 
REMARK   19  A    between atoms: C30_30  and  C31_31 
REMARK   20  A    between atoms: C30_30  and  N9_61 
REMARK   21  A    between atoms: C31_31  and  C32_32 
REMARK   22  A    between atoms: C35_35  and  O8_49 
REMARK   23  A    between atoms: C38_38  and  C39_39 
REMARK       I    between atoms: C38_38  and  N9_61 
REMARK   24  A    between atoms: C39_39  and  C40_40 
REMARK   25  A    between atoms: C39_39  and  N10_62 
REMARK   26  A    between atoms: C40_40  and  O10_51 
ROOT
HETATM    1  C5  UNL     1      -0.355   1.171   1.371  1.00  0.00     0.180 C 
ENDROOT
BRANCH   1   2
HETATM    2  C3  UNL     1       0.010   2.439   2.182  1.00  0.00     0.013 C 
HETATM    3  C4  UNL     1       1.523   2.702   2.202  1.00  0.00     0.012 C 
BRANCH   2   4
HETATM    4  C2  UNL     1      -0.684   3.712   1.638  1.00  0.00     0.002 C 
HETATM    5  C1  UNL     1      -2.204   3.702   1.699  1.00  0.00     0.005 C 
ENDBRANCH   2   4
ENDBRANCH   1   2
BRANCH   1   6
HETATM    6  C6  UNL     1       0.566  -0.027   1.709  1.00  0.00     0.243 C 
HETATM    7  O1  UNL     1       0.445  -0.627   2.784  1.00  0.00    -0.271 OA
HETATM    8  N1  UNL     1       1.508  -0.405   0.781  1.00  0.00    -0.337 N 
HETATM    9  C7  UNL     1       1.628   0.067  -0.590  1.00  0.00     0.127 C 
HETATM   10  C10 UNL     1       2.397  -1.532   1.037  1.00  0.00     0.179 C 
HETATM   11  C8  UNL     1       2.845  -0.658  -1.144  1.00  0.00     0.022 C 
HETATM   12  C9  UNL     1       2.858  -1.966  -0.357  1.00  0.00     0.037 C 
BRANCH  10  13
HETATM   13  C11 UNL     1       3.609  -1.111   1.895  1.00  0.00     0.241 C 
HETATM   14  O2  UNL     1       3.984   0.054   2.022  1.00  0.00    -0.271 OA
HETATM   15  N2  UNL     1       4.324  -2.168   2.422  1.00  0.00    -0.346 N 
HETATM   16  H57 UNL     1       4.152  -3.087   2.036  1.00  0.00     0.163 HD
BRANCH  15  17
HETATM   17  C12 UNL     1       5.590  -1.968   3.136  1.00  0.00     0.177 C 
BRANCH  17  18
HETATM   18  C13 UNL     1       5.816  -3.036   4.223  1.00  0.00     0.038 C 
BRANCH  18  19
HETATM   19  C14 UNL     1       5.543  -4.510   3.849  1.00  0.00    -0.020 C 
HETATM   20  C15 UNL     1       5.783  -5.400   5.074  1.00  0.00     0.009 C 
HETATM   21  C16 UNL     1       6.386  -5.017   2.680  1.00  0.00     0.009 C 
ENDBRANCH  18  19
ENDBRANCH  17  18
BRANCH  17  22
HETATM   22  C17 UNL     1       6.792  -1.808   2.166  1.00  0.00     0.241 C 
HETATM   23  O3  UNL     1       7.905  -2.282   2.377  1.00  0.00    -0.271 OA
HETATM   24  N3  UNL     1       6.533  -0.982   1.089  1.00  0.00    -0.345 N 
HETATM   25  H58 UNL     1       5.815  -0.279   1.275  1.00  0.00     0.163 HD
BRANCH  24  26
HETATM   26  C18 UNL     1       7.608  -0.546   0.192  1.00  0.00     0.182 C 
BRANCH  26  27
HETATM   27  C19 UNL     1       7.006  -0.290  -1.194  1.00  0.00     0.038 C 
BRANCH  27  28
HETATM   28  C20 UNL     1       8.061  -0.171  -2.299  1.00  0.00     0.022 C 
BRANCH  28  29
HETATM   29  C21 UNL     1       7.437  -0.063  -3.690  1.00  0.00     0.121 C 
BRANCH  29  30
HETATM   30  N4  UNL     1       6.569   1.108  -3.779  1.00  0.00    -0.372 N 
HETATM   31  C22 UNL     1       7.060   2.238  -4.116  1.00  0.00     0.121 C 
HETATM   32  N5  UNL     1       6.250   3.312  -4.231  1.00  0.00    -0.279 NA
HETATM   33  N6  UNL     1       8.332   2.591  -4.404  1.00  0.00    -0.279 NA
HETATM   34  H59 UNL     1       5.280   3.015  -4.180  1.00  0.00     0.126 HD
HETATM   35  H60 UNL     1       6.416   3.825  -5.088  1.00  0.00     0.126 HD
HETATM   36  H61 UNL     1       8.554   3.518  -4.059  1.00  0.00     0.126 HD
HETATM   37  H62 UNL     1       9.027   1.926  -4.090  1.00  0.00     0.126 HD
ATOM     38  H4  UNL     1       5.574   1.024  -3.573  1.00  0.00     0.161 HD
ENDBRANCH  29  30
ENDBRANCH  28  29
ENDBRANCH  27  28
ENDBRANCH  26  27
BRANCH  26  39
HETATM   39  C23 UNL     1       8.287   0.721   0.737  1.00  0.00     0.163 C 
HETATM   40  O4  UNL     1       9.288   1.256   0.284  1.00  0.00    -0.648 OA
BRANCH  39  41
HETATM   41  O5  UNL     1       7.643   1.286   1.783  1.00  0.00    -0.775 OA
HETATM   42  H54 UNL     1       8.185   2.072   2.002  1.00  0.00     0.167 HD
ENDBRANCH  39  41
ENDBRANCH  26  39
ENDBRANCH  24  26
ENDBRANCH  17  22
ENDBRANCH  15  17
ENDBRANCH  10  13
ENDBRANCH   1   6
BRANCH   1  43
HETATM   43  N7  UNL     1      -1.692   0.690   1.725  1.00  0.00    -0.346 N 
HETATM   44  C24 UNL     1      -2.456   0.002   0.803  1.00  0.00     0.241 C 
HETATM   45  O6  UNL     1      -2.120  -0.124  -0.374  1.00  0.00    -0.271 OA
HETATM   46  H63 UNL     1      -1.822   0.454   2.703  1.00  0.00     0.163 HD
BRANCH  44  47
HETATM   47  C25 UNL     1      -3.724  -0.644   1.399  1.00  0.00     0.179 C 
HETATM   48  C26 UNL     1      -3.393  -1.999   2.026  1.00  0.00     0.037 C 
HETATM   49  C27 UNL     1      -3.570  -2.970   0.861  1.00  0.00     0.022 C 
HETATM   50  C28 UNL     1      -4.754  -2.389   0.100  1.00  0.00     0.127 C 
HETATM   51  N8  UNL     1      -4.684  -0.959   0.346  1.00  0.00    -0.337 N 
HETATM   52  C29 UNL     1      -5.521   0.016  -0.148  1.00  0.00     0.243 C 
HETATM   53  O7  UNL     1      -5.503   1.167   0.300  1.00  0.00    -0.271 OA
BRANCH  52  54
HETATM   54  C30 UNL     1      -6.449  -0.361  -1.322  1.00  0.00     0.181 C 
BRANCH  54  55
HETATM   55  C31 UNL     1      -5.691  -0.339  -2.663  1.00  0.00     0.073 C 
BRANCH  55  56
HETATM   56  C32 UNL     1      -5.371   1.039  -3.204  1.00  0.00    -0.056 A 
HETATM   57  C33 UNL     1      -4.223   1.723  -2.783  1.00  0.00     0.010 A 
HETATM   58  C34 UNL     1      -3.946   3.003  -3.267  1.00  0.00     0.037 A 
HETATM   59  C35 UNL     1      -4.812   3.600  -4.174  1.00  0.00     0.065 A 
HETATM   60  C36 UNL     1      -5.956   2.939  -4.607  1.00  0.00     0.037 A 
HETATM   61  C37 UNL     1      -6.234   1.659  -4.122  1.00  0.00     0.010 A 
BRANCH  59  62
HETATM   62  O8  UNL     1      -4.501   4.851  -4.620  1.00  0.00    -0.361 OA
HETATM   63  H55 UNL     1      -5.194   5.141  -5.236  1.00  0.00     0.217 HD
ENDBRANCH  59  62
ENDBRANCH  55  56
ENDBRANCH  54  55
BRANCH  54  64
HETATM   64  N9  UNL     1      -7.587   0.564  -1.313  1.00  0.00    -0.346 N 
HETATM   65  C38 UNL     1      -8.721   0.270  -0.578  1.00  0.00     0.254 C 
HETATM   66  O9  UNL     1      -8.912  -0.828  -0.061  1.00  0.00    -0.271 OA
HETATM   67  H64 UNL     1      -7.304   1.540  -1.288  1.00  0.00     0.163 HD
BRANCH  65  68
HETATM   68  C39 UNL     1      -9.704   1.459  -0.451  1.00  0.00     0.336 C 
BRANCH  68  69
HETATM   69  C40 UNL     1     -11.021   1.060   0.263  1.00  0.00     0.156 C 
HETATM   70  C41 UNL     1     -11.910   0.087  -0.507  1.00  0.00     0.042 C 
BRANCH  69  71
HETATM   71  O10 UNL     1     -10.757   0.513   1.559  1.00  0.00    -0.393 OA
HETATM   72  H56 UNL     1     -10.245  -0.310   1.417  1.00  0.00     0.210 HD
ENDBRANCH  69  71
ENDBRANCH  68  69
BRANCH  68  73
HETATM   73  N10 UNL     1      -9.937   2.068  -1.785  1.00  0.00     0.094 N 
HETATM   74  H65 UNL     1      -9.040   2.332  -2.190  1.00  0.00     0.314 HD
HETATM   75  H66 UNL     1     -10.313   1.353  -2.409  1.00  0.00     0.314 HD
ENDBRANCH  68  73
ENDBRANCH  65  68
ENDBRANCH  54  64
ENDBRANCH  52  54
ENDBRANCH  44  47
ENDBRANCH   1  43
TORSDOF 26
