REMARK  21 active torsions:
REMARK  status: ('A' for Active; 'I' for Inactive)
REMARK    1  A    between atoms: C6_6  and  S1_50 
REMARK    2  A    between atoms: C8_8  and  S1_50 
REMARK    3  A    between atoms: C12_12  and  C14_14 
REMARK       I    between atoms: C14_14  and  N1_60 
REMARK    4  A    between atoms: C15_15  and  N1_60 
REMARK    5  A    between atoms: C18_18  and  C21_21 
REMARK    6  A    between atoms: C21_21  and  C22_22 
REMARK    7  A    between atoms: C22_22  and  C23_23 
REMARK    8  A    between atoms: C23_23  and  C24_24 
REMARK    9  A    between atoms: C24_24  and  C25_25 
REMARK   10  A    between atoms: C25_25  and  N2_61 
REMARK   11  A    between atoms: C26_26  and  C27_27 
REMARK   12  A    between atoms: C26_26  and  N2_61 
REMARK   13  A    between atoms: C27_27  and  C28_28 
REMARK   14  A    between atoms: C27_27  and  O7_57 
REMARK   15  A    between atoms: C34_34  and  O5_55 
REMARK   16  A    between atoms: C37_37  and  C38_38 
REMARK   17  A    between atoms: C37_37  and  O5_55 
REMARK   18  A    between atoms: C39_39  and  N6_66 
REMARK   19  A    between atoms: C40_40  and  C42_42 
REMARK       I    between atoms: C42_42  and  N5_65 
REMARK   20  A    between atoms: C43_43  and  N6_66 
REMARK   21  A    between atoms: C45_45  and  O9_59 
ROOT
HETATM    1  C14 UNL     1      -3.209  -3.767  -2.947  1.00  0.00     0.256 C 
HETATM    2  O3  UNL     1      -3.995  -3.067  -3.577  1.00  0.00    -0.267 OA
HETATM    3  N1  UNL     1      -1.848  -3.553  -2.813  1.00  0.00    -0.323 N 
HETATM    4  H40 UNL     1      -1.301  -4.277  -2.368  1.00  0.00     0.169 HD
ENDROOT
BRANCH   1   5
HETATM    5  C12 UNL     1      -3.743  -4.988  -2.265  1.00  0.00     0.033 A 
HETATM    6  C11 UNL     1      -4.929  -5.556  -2.756  1.00  0.00     0.017 A 
HETATM    7  C10 UNL     1      -5.470  -6.701  -2.164  1.00  0.00     0.003 A 
HETATM    8  C9  UNL     1      -4.835  -7.290  -1.073  1.00  0.00     0.024 A 
HETATM    9  C8  UNL     1      -3.670  -6.710  -0.564  1.00  0.00     0.065 A 
HETATM   10  C13 UNL     1      -3.121  -5.561  -1.150  1.00  0.00     0.040 A 
BRANCH   9  11
HETATM   11  S1  UNL     1      -2.812  -7.493   0.786  1.00  0.00     0.206 S 
HETATM   12  O1  UNL     1      -3.213  -8.888   0.793  1.00  0.00    -0.217 OA
HETATM   13  O2  UNL     1      -1.410  -7.136   0.661  1.00  0.00    -0.217 OA
BRANCH  11  14
HETATM   14  C6  UNL     1      -3.410  -6.752   2.283  1.00  0.00     0.065 A 
HETATM   15  C5  UNL     1      -3.037  -5.446   2.587  1.00  0.00     0.040 A 
HETATM   16  C4  UNL     1      -3.494  -4.814   3.764  1.00  0.00     0.020 A 
HETATM   17  C3  UNL     1      -4.293  -5.548   4.674  1.00  0.00     0.050 A 
HETATM   18  C39 UNL     1      -3.168  -3.464   4.082  1.00  0.00     0.062 A 
HETATM   19  C2  UNL     1      -4.643  -6.870   4.356  1.00  0.00    -0.033 A 
HETATM   20  N4  UNL     1      -4.718  -5.008   5.831  1.00  0.00    -0.364 N 
HETATM   21  C1  UNL     1      -5.492  -7.668   5.312  1.00  0.00     0.050 C 
HETATM   22  C7  UNL     1      -4.207  -7.472   3.163  1.00  0.00     0.033 A 
HETATM   23  C41 UNL     1      -4.369  -3.734   6.126  1.00  0.00     0.107 A 
ATOM     24  H4  UNL     1      -5.294  -5.550   6.475  1.00  0.00     0.165 HD
HETATM   25  C40 UNL     1      -3.627  -2.920   5.292  1.00  0.00     0.074 A 
BRANCH  25  26
HETATM   26  C42 UNL     1      -3.301  -1.531   5.688  1.00  0.00     0.253 C 
HETATM   27  O8  UNL     1      -2.287  -0.977   5.277  1.00  0.00    -0.268 OA
HETATM   28  N5  UNL     1      -4.183  -0.870   6.498  1.00  0.00    -0.366 N 
HETATM   29  H43 UNL     1      -5.145  -1.162   6.607  1.00  0.00     0.159 HD
HETATM   30  H44 UNL     1      -3.994   0.116   6.641  1.00  0.00     0.159 HD
ENDBRANCH  25  26
BRANCH  18  31
HETATM   31  N6  UNL     1      -2.477  -2.643   3.137  1.00  0.00    -0.355 N 
HETATM   32  H45 UNL     1      -1.994  -1.874   3.625  1.00  0.00     0.166 HD
BRANCH  31  33
HETATM   33  C43 UNL     1      -3.008  -2.146   1.916  1.00  0.00     0.035 A 
HETATM   34  C44 UNL     1      -4.289  -2.467   1.448  1.00  0.00     0.066 A 
HETATM   35  C45 UNL     1      -4.750  -2.006   0.210  1.00  0.00     0.070 A 
HETATM   36  C46 UNL     1      -3.913  -1.226  -0.583  1.00  0.00     0.037 A 
HETATM   37  C47 UNL     1      -2.629  -0.907  -0.139  1.00  0.00     0.005 A 
HETATM   38  C48 UNL     1      -2.180  -1.367   1.099  1.00  0.00     0.029 A 
BRANCH  35  39
HETATM   39  O9  UNL     1      -6.023  -2.399  -0.103  1.00  0.00    -0.356 OA
HETATM   40  C49 UNL     1      -6.580  -1.871  -1.301  1.00  0.00     0.210 C 
ENDBRANCH  35  39
ENDBRANCH  31  33
ENDBRANCH  18  31
ENDBRANCH  11  14
ENDBRANCH   9  11
ENDBRANCH   1   5
BRANCH   3  41
HETATM   41  C15 UNL     1      -1.112  -2.428  -3.240  1.00  0.00     0.035 A 
HETATM   42  C16 UNL     1      -1.666  -1.331  -3.897  1.00  0.00     0.030 A 
HETATM   43  C17 UNL     1      -0.871  -0.233  -4.246  1.00  0.00     0.009 A 
HETATM   44  C18 UNL     1       0.494  -0.211  -3.938  1.00  0.00    -0.058 A 
HETATM   45  C19 UNL     1       1.054  -1.320  -3.296  1.00  0.00     0.009 A 
HETATM   46  C20 UNL     1       0.258  -2.417  -2.951  1.00  0.00     0.030 A 
BRANCH  44  47
HETATM   47  C21 UNL     1       1.346   0.983  -4.293  1.00  0.00     0.038 C 
BRANCH  47  48
HETATM   48  C22 UNL     1       0.961   2.268  -3.547  1.00  0.00     0.005 C 
BRANCH  48  49
HETATM   49  C23 UNL     1       1.086   2.201  -2.019  1.00  0.00     0.002 C 
BRANCH  49  50
HETATM   50  C24 UNL     1       2.485   1.889  -1.478  1.00  0.00     0.030 C 
BRANCH  50  51
HETATM   51  C25 UNL     1       3.597   2.852  -1.914  1.00  0.00     0.270 C 
BRANCH  51  52
HETATM   52  N2  UNL     1       3.366   4.265  -1.625  1.00  0.00     0.086 N 
HETATM   53  H41 UNL     1       2.517   4.579  -2.095  1.00  0.00     0.315 HD
BRANCH  52  54
HETATM   54  C26 UNL     1       3.281   4.611  -0.200  1.00  0.00     0.306 C 
BRANCH  54  55
HETATM   55  C27 UNL     1       4.585   4.461   0.629  1.00  0.00     0.180 C 
BRANCH  55  56
HETATM   56  C28 UNL     1       5.691   5.423   0.214  1.00  0.00    -0.015 A 
HETATM   57  C29 UNL     1       5.696   6.812   0.489  1.00  0.00     0.003 A 
HETATM   58  C30 UNL     1       4.645   7.503   1.254  1.00  0.00     0.020 A 
HETATM   59  C33 UNL     1       6.766   7.603   0.018  1.00  0.00     0.080 A 
HETATM   60  C31 UNL     1       4.703   8.819   1.492  1.00  0.00     0.075 A 
HETATM   61  C32 UNL     1       5.830   9.638   1.001  1.00  0.00     0.245 A 
HETATM   62  O4  UNL     1       5.883  10.841   1.226  1.00  0.00    -0.268 OA
HETATM   63  N3  UNL     1       6.795   8.982   0.293  1.00  0.00    -0.321 N 
HETATM   64  H42 UNL     1       7.571   9.545  -0.022  1.00  0.00     0.169 HD
HETATM   65  C34 UNL     1       7.803   7.029  -0.723  1.00  0.00     0.107 A 
HETATM   66  C35 UNL     1       7.825   5.664  -0.974  1.00  0.00     0.040 A 
HETATM   67  C36 UNL     1       6.771   4.874  -0.517  1.00  0.00     0.013 A 
BRANCH  65  68
HETATM   68  O5  UNL     1       8.864   7.838  -1.150  1.00  0.00    -0.270 OA
BRANCH  68  69
HETATM   69  C37 UNL     1       8.943   8.019  -2.537  1.00  0.00     0.372 C 
HETATM   70  O6  UNL     1       8.183   7.526  -3.365  1.00  0.00    -0.255 OA
BRANCH  69  71
HETATM   71  C38 UNL     1      10.140   8.910  -2.836  1.00  0.00     0.480 C 
HETATM   72  F1  UNL     1      11.323   8.283  -2.577  1.00  0.00    -0.162 F 
HETATM   73  F2  UNL     1      10.140  10.046  -2.080  1.00  0.00    -0.162 F 
HETATM   74  F3  UNL     1      10.199   9.317  -4.134  1.00  0.00    -0.162 F 
ENDBRANCH  69  71
ENDBRANCH  68  69
ENDBRANCH  65  68
ENDBRANCH  55  56
BRANCH  55  75
HETATM   75  O7  UNL     1       4.307   4.612   2.025  1.00  0.00    -0.389 OA
HETATM   76  H39 UNL     1       3.764   3.852   2.292  1.00  0.00     0.210 HD
ENDBRANCH  55  75
ENDBRANCH  54  55
ENDBRANCH  52  54
ENDBRANCH  51  52
ENDBRANCH  50  51
ENDBRANCH  49  50
ENDBRANCH  48  49
ENDBRANCH  47  48
ENDBRANCH  44  47
ENDBRANCH   3  41
TORSDOF 21
