REMARK  26 active torsions:
REMARK  status: ('A' for Active; 'I' for Inactive)
REMARK    1  A    between atoms: C4_4  and  C5_5 
REMARK       I    between atoms: C5_5  and  N3_53 
REMARK    2  A    between atoms: C6_6  and  N3_53 
REMARK    3  A    between atoms: C8_8  and  C10_10 
REMARK       I    between atoms: C10_10  and  N5_55 
REMARK    4  A    between atoms: C11_11  and  C12_12 
REMARK    5  A    between atoms: C11_11  and  N5_55 
REMARK    6  A    between atoms: C12_12  and  C13_13 
REMARK    7  A    between atoms: C13_13  and  C14_14 
REMARK       I    between atoms: C14_14  and  N6_56 
REMARK    8  A    between atoms: C15_15  and  N6_56 
REMARK    9  A    between atoms: C17_17  and  C19_19 
REMARK       I    between atoms: C19_19  and  N8_58 
REMARK   10  A    between atoms: C20_20  and  N8_58 
REMARK   11  A    between atoms: C22_22  and  C24_24 
REMARK       I    between atoms: C24_24  and  N10_60 
REMARK   12  A    between atoms: C25_25  and  N10_60 
REMARK   13  A    between atoms: C27_27  and  C29_29 
REMARK       I    between atoms: C29_29  and  N12_62 
REMARK   14  A    between atoms: C30_30  and  N12_62 
REMARK   15  A    between atoms: C32_32  and  C34_34 
REMARK       I    between atoms: C34_34  and  N14_64 
REMARK   16  A    between atoms: C35_35  and  C36_36 
REMARK   17  A    between atoms: C35_35  and  N14_64 
REMARK   18  A    between atoms: C36_36  and  C37_37 
REMARK       I    between atoms: C37_37  and  N15_65 
REMARK   19  A    between atoms: C38_38  and  C39_39 
REMARK   20  A    between atoms: C38_38  and  N15_65 
REMARK   21  A    between atoms: C39_39  and  C40_40 
REMARK   22  A    between atoms: C40_40  and  N16_66 
REMARK   23  A    between atoms: C42_42  and  C43_43 
REMARK   24  A    between atoms: C42_42  and  N16_66 
REMARK   25  A    between atoms: C43_43  and  C44_44 
REMARK   26  A    between atoms: C44_44  and  N17_67 
ROOT
HETATM    1  C20 UNL     1       3.013   0.893  -3.538  1.00  0.00     0.053 A 
HETATM    2  C21 UNL     1       2.641  -0.433  -3.517  1.00  0.00     0.120 A 
HETATM    3  C22 UNL     1       0.746   0.779  -3.404  1.00  0.00     0.105 A 
HETATM    4  C23 UNL     1       1.821   1.652  -3.495  1.00  0.00     0.066 A 
HETATM    5  C47 UNL     1       0.513  -1.725  -3.562  1.00  0.00     0.156 C 
HETATM    6  N9  UNL     1       1.271  -0.495  -3.471  1.00  0.00    -0.354 N 
ENDROOT
BRANCH   3   7
HETATM    7  C24 UNL     1      -0.660   1.131  -3.316  1.00  0.00     0.273 C 
HETATM    8  N10 UNL     1      -1.286   0.522  -2.245  1.00  0.00    -0.320 N 
HETATM    9  H60 UNL     1      -0.705   0.019  -1.588  1.00  0.00     0.169 HD
HETATM   10  O5  UNL     1      -1.186   1.903  -4.109  1.00  0.00    -0.266 OA
BRANCH   8  11
HETATM   11  C25 UNL     1      -2.624   0.628  -1.919  1.00  0.00     0.053 A 
HETATM   12  C26 UNL     1      -3.613   1.303  -2.591  1.00  0.00     0.120 A 
HETATM   13  N11 UNL     1      -4.784   1.171  -1.889  1.00  0.00    -0.354 N 
HETATM   14  C27 UNL     1      -4.591   0.332  -0.810  1.00  0.00     0.105 A 
HETATM   15  C46 UNL     1      -5.993   1.900  -2.211  1.00  0.00     0.156 C 
HETATM   16  C28 UNL     1      -3.235   0.036  -0.788  1.00  0.00     0.066 A 
BRANCH  14  17
HETATM   17  C29 UNL     1      -5.584  -0.106   0.157  1.00  0.00     0.273 C 
HETATM   18  N12 UNL     1      -6.759  -0.538  -0.428  1.00  0.00    -0.320 N 
HETATM   19  H61 UNL     1      -6.784  -0.630  -1.434  1.00  0.00     0.169 HD
HETATM   20  O6  UNL     1      -5.347  -0.128   1.360  1.00  0.00    -0.266 OA
BRANCH  18  21
HETATM   21  C30 UNL     1      -7.880  -0.961   0.255  1.00  0.00     0.053 A 
HETATM   22  C31 UNL     1      -9.001  -1.443  -0.376  1.00  0.00     0.120 A 
HETATM   23  N13 UNL     1      -9.927  -1.771   0.584  1.00  0.00    -0.354 N 
HETATM   24  C32 UNL     1      -9.429  -1.497   1.848  1.00  0.00     0.104 A 
HETATM   25  C45 UNL     1     -11.237  -2.313   0.284  1.00  0.00     0.156 C 
HETATM   26  C33 UNL     1      -8.148  -0.994   1.643  1.00  0.00     0.066 A 
BRANCH  24  27
HETATM   27  C34 UNL     1     -10.159  -1.716   3.088  1.00  0.00     0.268 C 
HETATM   28  N14 UNL     1      -9.555  -1.232   4.225  1.00  0.00    -0.355 N 
HETATM   29  H62 UNL     1      -8.633  -0.828   4.133  1.00  0.00     0.162 HD
HETATM   30  O7  UNL     1     -11.267  -2.248   3.129  1.00  0.00    -0.266 OA
BRANCH  28  31
HETATM   31  C35 UNL     1     -10.024  -1.455   5.584  1.00  0.00     0.132 C 
BRANCH  31  32
HETATM   32  C36 UNL     1     -11.497  -1.187   5.874  1.00  0.00     0.122 C 
BRANCH  32  33
HETATM   33  C37 UNL     1     -11.920   0.186   5.410  1.00  0.00     0.219 C 
HETATM   34  N15 UNL     1     -12.567   0.175   4.192  1.00  0.00    -0.361 N 
HETATM   35  H63 UNL     1     -12.435  -0.672   3.640  1.00  0.00     0.162 HD
HETATM   36  O8  UNL     1     -11.682   1.202   6.054  1.00  0.00    -0.274 OA
BRANCH  34  37
HETATM   37  C38 UNL     1     -12.816   1.408   3.476  1.00  0.00     0.124 C 
BRANCH  37  38
HETATM   38  C39 UNL     1     -13.674   1.175   2.237  1.00  0.00     0.050 C 
BRANCH  38  39
HETATM   39  C40 UNL     1     -15.128   0.845   2.602  1.00  0.00     0.273 C 
BRANCH  39  40
HETATM   40  N16 UNL     1     -15.907   0.521   1.389  1.00  0.00     0.084 N 
HETATM   41  C41 UNL     1     -17.327   0.817   1.623  1.00  0.00     0.309 C 
BRANCH  40  42
HETATM   42  C42 UNL     1     -15.733  -0.902   1.021  1.00  0.00     0.273 C 
BRANCH  42  43
HETATM   43  C43 UNL     1     -16.072  -1.206  -0.448  1.00  0.00     0.060 C 
BRANCH  43  44
HETATM   44  C44 UNL     1     -15.104  -0.576  -1.455  1.00  0.00     0.268 C 
BRANCH  44  45
HETATM   45  N17 UNL     1     -15.178   0.881  -1.487  1.00  0.00     0.078 N 
HETATM   46  H64 UNL     1     -15.160   1.206  -0.509  1.00  0.00     0.312 HD
HETATM   47  H65 UNL     1     -16.105   1.158  -1.809  1.00  0.00     0.312 HD
ENDBRANCH  44  45
ENDBRANCH  43  44
ENDBRANCH  42  43
ENDBRANCH  40  42
ENDBRANCH  39  40
ENDBRANCH  38  39
ENDBRANCH  37  38
ENDBRANCH  34  37
ENDBRANCH  32  33
ENDBRANCH  31  32
ENDBRANCH  28  31
ENDBRANCH  24  27
ENDBRANCH  18  21
ENDBRANCH  14  17
ENDBRANCH   8  11
ENDBRANCH   3   7
BRANCH   1  48
HETATM   48  N8  UNL     1       4.334   1.292  -3.603  1.00  0.00    -0.320 N 
HETATM   49  C19 UNL     1       4.777   2.602  -3.595  1.00  0.00     0.273 C 
HETATM   50  O4  UNL     1       4.038   3.578  -3.499  1.00  0.00    -0.266 OA
HETATM   51  H59 UNL     1       5.018   0.552  -3.633  1.00  0.00     0.169 HD
BRANCH  49  52
HETATM   52  C17 UNL     1       6.230   2.743  -3.695  1.00  0.00     0.105 A 
HETATM   53  C18 UNL     1       7.206   1.787  -3.964  1.00  0.00     0.066 A 
HETATM   54  C15 UNL     1       8.476   2.406  -3.952  1.00  0.00     0.052 A 
HETATM   55  C16 UNL     1       8.266   3.737  -3.686  1.00  0.00     0.120 A 
HETATM   56  N7  UNL     1       6.915   3.937  -3.538  1.00  0.00    -0.354 N 
HETATM   57  C48 UNL     1       6.319   5.226  -3.245  1.00  0.00     0.156 C 
BRANCH  54  58
HETATM   58  N6  UNL     1       9.732   1.870  -4.155  1.00  0.00    -0.326 N 
HETATM   59  C14 UNL     1       9.985   0.538  -4.428  1.00  0.00     0.222 C 
HETATM   60  O3  UNL     1       9.149  -0.354  -4.544  1.00  0.00    -0.273 OA
HETATM   61  H58 UNL     1      10.504   2.521  -4.100  1.00  0.00     0.169 HD
BRANCH  59  62
HETATM   62  C13 UNL     1      11.466   0.234  -4.558  1.00  0.00     0.105 C 
BRANCH  62  63
HETATM   63  C12 UNL     1      12.036  -0.378  -3.282  1.00  0.00     0.029 C 
BRANCH  63  64
HETATM   64  C11 UNL     1      12.141   0.629  -2.138  1.00  0.00     0.123 C 
BRANCH  64  65
HETATM   65  N5  UNL     1      12.850   0.073  -1.006  1.00  0.00    -0.356 N 
HETATM   66  C10 UNL     1      12.217  -0.694  -0.051  1.00  0.00     0.268 C 
HETATM   67  O2  UNL     1      11.006  -0.893  -0.088  1.00  0.00    -0.266 OA
HETATM   68  H57 UNL     1      13.858   0.113  -1.004  1.00  0.00     0.162 HD
BRANCH  66  69
HETATM   69  C8  UNL     1      13.090  -1.248   0.974  1.00  0.00     0.104 A 
HETATM   70  C9  UNL     1      14.439  -1.012   1.223  1.00  0.00     0.066 A 
HETATM   71  C6  UNL     1      14.845  -1.790   2.332  1.00  0.00     0.053 A 
HETATM   72  C7  UNL     1      13.739  -2.487   2.754  1.00  0.00     0.120 A 
HETATM   73  N4  UNL     1      12.685  -2.155   1.940  1.00  0.00    -0.354 N 
HETATM   74  C49 UNL     1      11.350  -2.699   2.087  1.00  0.00     0.156 C 
BRANCH  71  75
HETATM   75  N3  UNL     1      16.074  -1.895   2.943  1.00  0.00    -0.319 N 
HETATM   76  C5  UNL     1      17.228  -1.233   2.571  1.00  0.00     0.290 C 
HETATM   77  O1  UNL     1      17.329  -0.451   1.629  1.00  0.00    -0.264 OA
HETATM   78  H56 UNL     1      16.164  -2.513   3.745  1.00  0.00     0.169 HD
BRANCH  76  79
HETATM   79  C4  UNL     1      18.345  -1.579   3.444  1.00  0.00     0.176 A 
HETATM   80  N1  UNL     1      19.633  -1.103   3.367  1.00  0.00    -0.342 N 
HETATM   81  C1  UNL     1      20.140  -0.159   2.400  1.00  0.00     0.157 C 
HETATM   82  C2  UNL     1      20.359  -1.681   4.372  1.00  0.00     0.109 A 
HETATM   83  C3  UNL     1      19.472  -2.497   5.032  1.00  0.00     0.107 A 
HETATM   84  N2  UNL     1      18.230  -2.431   4.456  1.00  0.00    -0.346 N 
ATOM     85  H2  UNL     1      17.390  -2.933   4.745  1.00  0.00     0.167 HD
ENDBRANCH  76  79
ENDBRANCH  71  75
ENDBRANCH  66  69
ENDBRANCH  64  65
ENDBRANCH  63  64
ENDBRANCH  62  63
ENDBRANCH  59  62
ENDBRANCH  54  58
ENDBRANCH  49  52
ENDBRANCH   1  48
TORSDOF 26
