REMARK  16 active torsions:
REMARK  status: ('A' for Active; 'I' for Inactive)
REMARK    1  A    between atoms: C2_2  and  C3_3 
REMARK    2  A    between atoms: C2_2  and  N11_55 
REMARK       I    between atoms: C3_3  and  N1_45 
REMARK    3  A    between atoms: C4_4  and  C5_5 
REMARK    4  A    between atoms: C4_4  and  N1_45 
REMARK    5  A    between atoms: C5_5  and  N2_46 
REMARK    6  A    between atoms: C6_6  and  C7_7 
REMARK       I    between atoms: C6_6  and  N2_46 
REMARK    7  A    between atoms: C12_12  and  N4_48 
REMARK    8  A    between atoms: C15_15  and  C16_16 
REMARK       I    between atoms: C15_15  and  N4_48 
REMARK    9  A    between atoms: C22_22  and  C24_24 
REMARK       I    between atoms: C24_24  and  N6_50 
REMARK   10  A    between atoms: C25_25  and  N6_50 
REMARK   11  A    between atoms: C32_32  and  C33_33 
REMARK       I    between atoms: C33_33  and  N8_52 
REMARK   12  A    between atoms: C34_34  and  C35_35 
REMARK   13  A    between atoms: C34_34  and  N8_52 
REMARK   14  A    between atoms: C35_35  and  N9_53 
REMARK   15  A    between atoms: C36_36  and  C37_37 
REMARK       I    between atoms: C36_36  and  N9_53 
REMARK   16  A    between atoms: C37_37  and  N10_54 
ROOT
HETATM    1  C16 UNL     1      -2.579   1.678  -2.421  1.00  0.00     0.033 A 
HETATM    2  C17 UNL     1      -1.220   1.601  -2.076  1.00  0.00     0.030 A 
HETATM    3  C18 UNL     1      -0.295   2.434  -2.735  1.00  0.00    -0.006 A 
HETATM    4  C19 UNL     1      -0.759   3.319  -3.704  1.00  0.00     0.043 A 
HETATM    5  C20 UNL     1      -2.110   3.428  -4.050  1.00  0.00     0.031 A 
HETATM    6  C21 UNL     1      -3.017   2.593  -3.386  1.00  0.00     0.019 A 
HETATM    7  C22 UNL     1       1.493   3.588  -3.550  1.00  0.00     0.102 A 
HETATM    8  C23 UNL     1       1.115   2.610  -2.645  1.00  0.00     0.049 A 
HETATM    9  N5  UNL     1       0.336   3.998  -4.180  1.00  0.00    -0.351 N 
HETATM   10  H33 UNL     1       0.320   4.714  -4.895  1.00  0.00     0.166 HD
ENDROOT
BRANCH   1  11
HETATM   11  C15 UNL     1      -3.533   0.780  -1.710  1.00  0.00     0.256 C 
HETATM   12  O3  UNL     1      -3.319   0.525  -0.531  1.00  0.00    -0.267 OA
HETATM   13  N4  UNL     1      -4.559   0.289  -2.496  1.00  0.00    -0.323 N 
HETATM   14  H32 UNL     1      -4.511   0.486  -3.487  1.00  0.00     0.169 HD
BRANCH  13  15
HETATM   15  C12 UNL     1      -5.627  -0.543  -2.092  1.00  0.00     0.037 A 
HETATM   16  C11 UNL     1      -5.848  -0.920  -0.763  1.00  0.00     0.059 A 
HETATM   17  C10 UNL     1      -6.948  -1.746  -0.485  1.00  0.00     0.045 A 
HETATM   18  C9  UNL     1      -7.820  -2.199  -1.468  1.00  0.00    -0.007 A 
HETATM   19  N3  UNL     1      -7.390  -2.257   0.711  1.00  0.00    -0.351 N 
HETATM   20  C8  UNL     1      -8.800  -3.003  -0.820  1.00  0.00     0.049 A 
HETATM   21  C14 UNL     1      -7.594  -1.811  -2.800  1.00  0.00     0.016 A 
HETATM   22  C7  UNL     1      -8.516  -3.034   0.536  1.00  0.00     0.102 A 
HETATM   23  C13 UNL     1      -6.499  -0.986  -3.094  1.00  0.00     0.030 A 
HETATM   24  H31 UNL     1      -6.952  -2.094   1.609  1.00  0.00     0.166 HD
BRANCH  22  25
HETATM   25  C6  UNL     1      -9.160  -3.681   1.659  1.00  0.00     0.268 C 
HETATM   26  O2  UNL     1      -8.769  -3.515   2.811  1.00  0.00    -0.266 OA
HETATM   27  N2  UNL     1     -10.231  -4.482   1.339  1.00  0.00    -0.354 N 
HETATM   28  H30 UNL     1     -10.407  -4.659   0.362  1.00  0.00     0.162 HD
BRANCH  27  29
HETATM   29  C5  UNL     1     -10.925  -5.337   2.296  1.00  0.00     0.142 C 
BRANCH  29  30
HETATM   30  C4  UNL     1     -11.638  -4.572   3.421  1.00  0.00     0.142 C 
BRANCH  30  31
HETATM   31  N1  UNL     1     -10.733  -4.204   4.492  1.00  0.00    -0.358 N 
HETATM   32  C3  UNL     1     -10.442  -5.090   5.508  1.00  0.00     0.250 C 
HETATM   33  O1  UNL     1     -11.023  -6.166   5.649  1.00  0.00    -0.271 OA
HETATM   34  H29 UNL     1      -9.987  -3.560   4.228  1.00  0.00     0.162 HD
BRANCH  32  35
HETATM   35  C2  UNL     1      -9.291  -4.642   6.433  1.00  0.00     0.304 C 
HETATM   36  C1  UNL     1      -7.988  -5.271   5.954  1.00  0.00     0.053 C 
BRANCH  35  37
HETATM   37  N11 UNL     1      -9.594  -5.039   7.820  1.00  0.00     0.091 N 
HETATM   38  H40 UNL     1      -9.996  -5.981   7.789  1.00  0.00     0.313 HD
HETATM   39  H41 UNL     1      -8.733  -5.112   8.356  1.00  0.00     0.313 HD
ENDBRANCH  35  37
ENDBRANCH  32  35
ENDBRANCH  30  31
ENDBRANCH  29  30
ENDBRANCH  27  29
ENDBRANCH  22  25
ENDBRANCH  13  15
ENDBRANCH   1  11
BRANCH   7  40
HETATM   40  C24 UNL     1       2.775   4.178  -3.900  1.00  0.00     0.272 C 
HETATM   41  O4  UNL     1       2.839   5.017  -4.792  1.00  0.00    -0.266 OA
HETATM   42  N6  UNL     1       3.839   3.716  -3.151  1.00  0.00    -0.322 N 
HETATM   43  H34 UNL     1       3.623   3.044  -2.431  1.00  0.00     0.169 HD
BRANCH  42  44
HETATM   44  C25 UNL     1       5.200   4.080  -3.251  1.00  0.00     0.037 A 
HETATM   45  C26 UNL     1       6.079   3.466  -2.342  1.00  0.00     0.059 A 
HETATM   46  C27 UNL     1       7.439   3.798  -2.404  1.00  0.00     0.045 A 
HETATM   47  C28 UNL     1       7.949   4.701  -3.331  1.00  0.00    -0.007 A 
HETATM   48  N7  UNL     1       8.500   3.351  -1.651  1.00  0.00    -0.351 N 
HETATM   49  C29 UNL     1       7.063   5.306  -4.238  1.00  0.00     0.016 A 
HETATM   50  C31 UNL     1       9.349   4.779  -3.109  1.00  0.00     0.049 A 
HETATM   51  C30 UNL     1       5.696   4.989  -4.186  1.00  0.00     0.030 A 
HETATM   52  C32 UNL     1       9.675   3.956  -2.045  1.00  0.00     0.102 A 
HETATM   53  H35 UNL     1       8.438   2.635  -0.934  1.00  0.00     0.166 HD
BRANCH  52  54
HETATM   54  C33 UNL     1      10.984   3.707  -1.478  1.00  0.00     0.268 C 
HETATM   55  O5  UNL     1      12.027   3.883  -2.100  1.00  0.00    -0.266 OA
HETATM   56  N8  UNL     1      10.973   3.242  -0.181  1.00  0.00    -0.354 N 
HETATM   57  H36 UNL     1      10.083   2.996   0.233  1.00  0.00     0.162 HD
BRANCH  56  58
HETATM   58  C34 UNL     1      12.115   2.553   0.383  1.00  0.00     0.142 C 
BRANCH  58  59
HETATM   59  C35 UNL     1      12.031   1.040   0.131  1.00  0.00     0.142 C 
BRANCH  59  60
HETATM   60  N9  UNL     1      11.084   0.346   0.995  1.00  0.00    -0.358 N 
HETATM   61  C36 UNL     1       9.712   0.487   0.955  1.00  0.00     0.250 C 
HETATM   62  O6  UNL     1       9.115   1.359   0.327  1.00  0.00    -0.271 OA
HETATM   63  H37 UNL     1      11.377  -0.535   1.416  1.00  0.00     0.162 HD
BRANCH  61  64
HETATM   64  C37 UNL     1       8.979  -0.529   1.857  1.00  0.00     0.304 C 
HETATM   65  C38 UNL     1       8.885   0.018   3.274  1.00  0.00     0.053 C 
BRANCH  64  66
HETATM   66  N10 UNL     1       9.721  -1.813   1.864  1.00  0.00     0.091 N 
HETATM   67  H38 UNL     1       9.640  -2.234   0.936  1.00  0.00     0.313 HD
HETATM   68  H39 UNL     1       9.246  -2.460   2.496  1.00  0.00     0.313 HD
ENDBRANCH  64  66
ENDBRANCH  61  64
ENDBRANCH  59  60
ENDBRANCH  58  59
ENDBRANCH  56  58
ENDBRANCH  52  54
ENDBRANCH  42  44
ENDBRANCH   7  40
TORSDOF 16
