REMARK  21 active torsions:
REMARK  status: ('A' for Active; 'I' for Inactive)
REMARK    1  A    between atoms: C2_2  and  O1_43 
REMARK    2  A    between atoms: C3_3  and  N1_56 
REMARK    3  A    between atoms: C6_6  and  C8_8 
REMARK    4  A    between atoms: C7_7  and  O2_44 
REMARK    5  A    between atoms: C8_8  and  O4_46 
REMARK    6  A    between atoms: C9_9  and  C10_10 
REMARK       I    between atoms: C9_9  and  N1_56 
REMARK    7  A    between atoms: C11_11  and  O13_55 
REMARK    8  A    between atoms: C12_12  and  O12_54 
REMARK    9  A    between atoms: C13_13  and  N2_57 
REMARK   10  A    between atoms: C16_16  and  C17_17 
REMARK       I    between atoms: C16_16  and  N2_57 
REMARK   11  A    between atoms: C19_19  and  N4_60 
REMARK   12  A    between atoms: C22_22  and  C23_23 
REMARK       I    between atoms: C22_22  and  N4_60 
REMARK   13  A    between atoms: C23_23  and  C24_24 
REMARK   14  A    between atoms: C23_23  and  N8_66 
REMARK   15  A    between atoms: C24_24  and  C25_25 
REMARK   16  A    between atoms: C27_27  and  C28_28 
REMARK       I    between atoms: C27_27  and  N8_66 
REMARK   17  A    between atoms: C31_31  and  N9_67 
REMARK   18  A    between atoms: C34_34  and  C35_35 
REMARK       I    between atoms: C34_34  and  N9_67 
REMARK   19  A    between atoms: C35_35  and  O10_52 
REMARK   20  A    between atoms: C36_36  and  O10_52 
REMARK   21  A    between atoms: C39_39  and  O11_53 
ROOT
HETATM    1  C17 UNL     1       1.296   1.945   2.689  1.00  0.00     0.101 A 
HETATM    2  C18 UNL     1      -0.194   2.814   1.160  1.00  0.00     0.118 A 
HETATM    3  C19 UNL     1      -1.126   3.134   2.150  1.00  0.00     0.050 A 
HETATM    4  C20 UNL     1      -0.785   2.836   3.467  1.00  0.00     0.033 A 
HETATM    5  C21 UNL     1       0.442   2.232   3.746  1.00  0.00     0.037 A 
HETATM    6  N3  UNL     1       1.009   2.230   1.386  1.00  0.00    -0.359 N 
ATOM      7  H3  UNL     1       1.659   2.017   0.629  1.00  0.00     0.165 HD
ENDROOT
BRANCH   3   8
HETATM    8  N4  UNL     1      -2.335   3.738   1.757  1.00  0.00    -0.324 N 
HETATM    9  C22 UNL     1      -3.429   4.048   2.548  1.00  0.00     0.245 C 
HETATM   10  O7  UNL     1      -3.548   3.797   3.744  1.00  0.00    -0.271 OA
HETATM   11  H34 UNL     1      -2.469   3.884   0.752  1.00  0.00     0.169 HD
BRANCH   9  12
HETATM   12  C23 UNL     1      -4.573   4.701   1.734  1.00  0.00     0.182 C 
BRANCH  12  13
HETATM   13  C24 UNL     1      -5.579   5.399   2.656  1.00  0.00     0.095 C 
BRANCH  13  14
HETATM   14  C25 UNL     1      -5.017   6.619   3.294  1.00  0.00     0.046 A 
HETATM   15  C26 UNL     1      -4.506   6.793   4.595  1.00  0.00     0.135 A 
HETATM   16  N7  UNL     1      -4.105   8.057   4.760  1.00  0.00    -0.296 N 
HETATM   17  N6  UNL     1      -4.387   8.585   3.559  1.00  0.00    -0.243 N 
ATOM     18  H7  UNL     1      -3.694   8.502   5.581  1.00  0.00     0.187 HD
HETATM   19  N5  UNL     1      -4.926   7.778   2.627  1.00  0.00    -0.289 N 
HETATM   20  H35 UNL     1      -4.196   9.564   3.360  1.00  0.00     0.208 HD
ATOM     21  H5  UNL     1      -5.194   7.992   1.666  1.00  0.00     0.188 HD
ENDBRANCH  13  14
ENDBRANCH  12  13
BRANCH  12  22
HETATM   22  N8  UNL     1      -5.232   3.644   0.948  1.00  0.00    -0.343 N 
HETATM   23  C27 UNL     1      -4.684   3.191  -0.234  1.00  0.00     0.252 C 
HETATM   24  O8  UNL     1      -3.627   3.631  -0.677  1.00  0.00    -0.268 OA
HETATM   25  H36 UNL     1      -5.875   3.034   1.439  1.00  0.00     0.163 HD
BRANCH  23  26
HETATM   26  C28 UNL     1      -5.391   2.072  -0.913  1.00  0.00     0.032 A 
HETATM   27  C29 UNL     1      -6.764   1.857  -0.755  1.00  0.00     0.019 A 
HETATM   28  C30 UNL     1      -7.391   0.790  -1.410  1.00  0.00     0.030 A 
HETATM   29  C31 UNL     1      -6.661  -0.069  -2.235  1.00  0.00     0.034 A 
HETATM   30  C32 UNL     1      -5.289   0.161  -2.402  1.00  0.00     0.030 A 
HETATM   31  C33 UNL     1      -4.658   1.226  -1.750  1.00  0.00     0.019 A 
BRANCH  29  32
HETATM   32  N9  UNL     1      -7.217  -1.167  -2.924  1.00  0.00    -0.325 N 
HETATM   33  C34 UNL     1      -8.544  -1.585  -2.917  1.00  0.00     0.246 C 
HETATM   34  O9  UNL     1      -9.462  -1.049  -2.307  1.00  0.00    -0.271 OA
HETATM   35  H37 UNL     1      -6.572  -1.702  -3.493  1.00  0.00     0.169 HD
BRANCH  33  36
HETATM   36  C35 UNL     1      -8.750  -2.839  -3.785  1.00  0.00     0.278 C 
BRANCH  36  37
HETATM   37  O10 UNL     1     -10.034  -3.435  -3.735  1.00  0.00    -0.342 OA
BRANCH  37  38
HETATM   38  C36 UNL     1     -10.304  -4.291  -2.704  1.00  0.00     0.069 A 
HETATM   39  C37 UNL     1      -9.522  -4.485  -1.564  1.00  0.00     0.039 A 
HETATM   40  C38 UNL     1      -9.923  -5.400  -0.586  1.00  0.00     0.039 A 
HETATM   41  C39 UNL     1     -11.106  -6.112  -0.746  1.00  0.00     0.065 A 
HETATM   42  C40 UNL     1     -11.901  -5.923  -1.868  1.00  0.00     0.039 A 
HETATM   43  C41 UNL     1     -11.497  -5.009  -2.844  1.00  0.00     0.039 A 
BRANCH  41  44
HETATM   44  O11 UNL     1     -11.455  -6.992   0.235  1.00  0.00    -0.361 OA
HETATM   45  H30 UNL     1     -12.313  -7.386   0.005  1.00  0.00     0.217 HD
ENDBRANCH  41  44
ENDBRANCH  37  38
ENDBRANCH  36  37
ENDBRANCH  33  36
ENDBRANCH  29  32
ENDBRANCH  23  26
ENDBRANCH  12  22
ENDBRANCH   9  12
ENDBRANCH   3   8
BRANCH   1  46
HETATM   46  C16 UNL     1       2.628   1.299   2.945  1.00  0.00     0.272 C 
HETATM   47  O6  UNL     1       3.012   1.145   4.097  1.00  0.00    -0.266 OA
HETATM   48  N2  UNL     1       3.317   1.031   1.777  1.00  0.00    -0.319 N 
HETATM   49  H33 UNL     1       2.917   1.496   0.966  1.00  0.00     0.169 HD
BRANCH  48  50
HETATM   50  C13 UNL     1       4.567   0.397   1.626  1.00  0.00     0.071 A 
HETATM   51  C12 UNL     1       5.088  -0.596   2.478  1.00  0.00     0.129 A 
HETATM   52  C11 UNL     1       6.357  -1.151   2.209  1.00  0.00     0.117 A 
HETATM   53  C10 UNL     1       7.100  -0.732   1.089  1.00  0.00     0.068 A 
HETATM   54  C15 UNL     1       6.573   0.254   0.248  1.00  0.00     0.022 A 
HETATM   55  C14 UNL     1       5.310   0.794   0.506  1.00  0.00     0.034 A 
BRANCH  51  56
HETATM   56  O12 UNL     1       4.269  -1.133   3.441  1.00  0.00    -0.351 OA
HETATM   57  C42 UNL     1       4.838  -1.091   4.750  1.00  0.00     0.210 C 
ENDBRANCH  51  56
BRANCH  52  58
HETATM   58  O13 UNL     1       6.831  -2.144   3.036  1.00  0.00    -0.357 OA
HETATM   59  H31 UNL     1       7.786  -2.275   2.846  1.00  0.00     0.217 HD
ENDBRANCH  52  58
BRANCH  53  60
HETATM   60  C9  UNL     1       8.433  -1.345   0.812  1.00  0.00     0.259 C 
HETATM   61  O5  UNL     1       9.057  -1.803   1.765  1.00  0.00    -0.267 OA
HETATM   62  N1  UNL     1       8.817  -1.390  -0.511  1.00  0.00    -0.320 N 
HETATM   63  H32 UNL     1       8.146  -1.127  -1.227  1.00  0.00     0.169 HD
BRANCH  62  64
HETATM   64  C3  UNL     1      10.034  -1.863  -1.054  1.00  0.00     0.071 A 
HETATM   65  C2  UNL     1      10.132  -1.896  -2.464  1.00  0.00     0.129 A 
HETATM   66  C7  UNL     1      11.328  -2.311  -3.074  1.00  0.00     0.118 A 
HETATM   67  C6  UNL     1      12.410  -2.732  -2.278  1.00  0.00     0.073 A 
HETATM   68  C5  UNL     1      12.293  -2.717  -0.883  1.00  0.00     0.023 A 
HETATM   69  C4  UNL     1      11.114  -2.278  -0.275  1.00  0.00     0.034 A 
BRANCH  65  70
HETATM   70  O1  UNL     1       9.007  -1.448  -3.126  1.00  0.00    -0.351 OA
HETATM   71  C1  UNL     1       8.704  -2.109  -4.351  1.00  0.00     0.210 C 
ENDBRANCH  65  70
BRANCH  66  72
HETATM   72  O2  UNL     1      11.425  -2.269  -4.444  1.00  0.00    -0.357 OA
HETATM   73  H28 UNL     1      12.320  -2.564  -4.721  1.00  0.00     0.217 HD
ENDBRANCH  66  72
BRANCH  67  74
HETATM   74  C8  UNL     1      13.668  -3.175  -2.923  1.00  0.00     0.179 C 
HETATM   75  O3  UNL     1      13.850  -3.190  -4.129  1.00  0.00    -0.646 OA
BRANCH  74  76
HETATM   76  O4  UNL     1      14.615  -3.570  -2.058  1.00  0.00    -0.773 OA
HETATM   77  H29 UNL     1      15.377  -3.831  -2.617  1.00  0.00     0.167 HD
ENDBRANCH  74  76
ENDBRANCH  67  74
ENDBRANCH  62  64
ENDBRANCH  53  60
ENDBRANCH  48  50
ENDBRANCH   1  46
TORSDOF 21
