REMARK  0 active torsions:
REMARK  status: ('A' for Active; 'I' for Inactive)
REMARK       I    between atoms: C2_2  and  O1_53 
REMARK       I    between atoms: C5_5  and  O1_53 
REMARK       I    between atoms: C5_5  and  N1_63 
REMARK       I    between atoms: C6_6  and  C7_7 
REMARK       I    between atoms: C6_6  and  N1_63 
REMARK       I    between atoms: C7_7  and  N2_64 
REMARK       I    between atoms: C8_8  and  C9_9 
REMARK       I    between atoms: C8_8  and  N2_64 
REMARK       I    between atoms: C9_9  and  S1_79 
REMARK       I    between atoms: C10_10  and  S1_79 
REMARK       I    between atoms: C11_11  and  N7_70 
REMARK       I    between atoms: C13_13  and  C22_22 
REMARK       I    between atoms: C15_15  and  N3_65 
REMARK       I    between atoms: C16_16  and  C17_17 
REMARK       I    between atoms: C16_16  and  N3_65 
REMARK       I    between atoms: C17_17  and  C18_18 
REMARK       I    between atoms: C18_18  and  C19_19 
REMARK       I    between atoms: C19_19  and  C20_20 
REMARK       I    between atoms: C20_20  and  N4_66 
REMARK       I    between atoms: C21_21  and  N4_66 
REMARK       I    between atoms: C21_21  and  N5_68 
REMARK       I    between atoms: C21_21  and  N6_69 
REMARK       I    between atoms: C23_23  and  C24_24 
REMARK       I    between atoms: C23_23  and  N7_70 
REMARK       I    between atoms: C26_26  and  C30_30 
REMARK       I    between atoms: C30_30  and  N8_71 
REMARK       I    between atoms: C31_31  and  N8_71 
REMARK       I    between atoms: C32_32  and  S2_80 
REMARK       I    between atoms: C33_33  and  N9_72 
REMARK       I    between atoms: C35_35  and  C37_37 
REMARK       I    between atoms: C38_38  and  C39_39 
REMARK       I    between atoms: C38_38  and  N9_72 
REMARK       I    between atoms: C39_39  and  C40_40 
REMARK       I    between atoms: C40_40  and  C41_41 
REMARK       I    between atoms: C41_41  and  C42_42 
REMARK       I    between atoms: C42_42  and  N10_73 
REMARK       I    between atoms: C43_43  and  N10_73 
REMARK       I    between atoms: C43_43  and  N12_76 
REMARK       I    between atoms: C44_44  and  C45_45 
REMARK       I    between atoms: C44_44  and  S2_80 
REMARK       I    between atoms: C45_45  and  N13_77 
REMARK       I    between atoms: C46_46  and  C47_47 
REMARK       I    between atoms: C46_46  and  N13_77 
REMARK       I    between atoms: C47_47  and  N14_78 
REMARK       I    between atoms: C48_48  and  O10_62 
REMARK       I    between atoms: C48_48  and  N14_78 
REMARK       I    between atoms: C49_49  and  O10_62 
ROOT
HETATM    1  C1  UNL     1     -10.707  -0.300   5.130  1.00  0.00     0.046 C 
HETATM    2  C2  UNL     1     -12.062  -0.886   4.719  1.00  0.00     0.061 C 
HETATM    3  C3  UNL     1     -12.331  -2.239   5.388  1.00  0.00     0.046 C 
HETATM    4  C4  UNL     1     -13.168   0.094   5.142  1.00  0.00     0.046 C 
HETATM    5  C5  UNL     1     -11.331  -1.768   2.572  1.00  0.00     0.361 C 
HETATM    6  C6  UNL     1     -10.635  -2.158   0.270  1.00  0.00     0.227 C 
HETATM    7  C7  UNL     1      -9.383  -1.283   0.219  1.00  0.00     0.235 C 
HETATM    8  C8  UNL     1      -7.287  -0.787   1.437  1.00  0.00     0.133 C 
HETATM    9  C9  UNL     1      -6.237  -0.732   0.328  1.00  0.00     0.099 C 
HETATM   10  C10 UNL     1      -5.375   1.547  -1.004  1.00  0.00     0.054 A 
HETATM   11  C11 UNL     1      -4.303   1.596  -1.929  1.00  0.00     0.054 A 
HETATM   12  C12 UNL     1      -4.542   2.029  -3.237  1.00  0.00     0.047 A 
HETATM   13  C13 UNL     1      -5.832   2.390  -3.656  1.00  0.00     0.052 A 
HETATM   14  C14 UNL     1      -6.886   2.349  -2.734  1.00  0.00     0.047 A 
HETATM   15  C15 UNL     1      -6.655   1.991  -1.402  1.00  0.00     0.054 A 
HETATM   16  C16 UNL     1      -7.759   2.848   0.613  1.00  0.00     0.222 C 
HETATM   17  C17 UNL     1      -9.105   2.841   1.328  1.00  0.00     0.103 C 
HETATM   18  C18 UNL     1      -9.258   4.051   2.248  1.00  0.00     0.011 C 
HETATM   19  C19 UNL     1     -10.530   4.048   3.104  1.00  0.00     0.020 C 
HETATM   20  C20 UNL     1     -11.828   3.915   2.306  1.00  0.00     0.121 C 
HETATM   21  C21 UNL     1     -13.162   2.157   1.472  1.00  0.00     0.121 C 
HETATM   22  C22 UNL     1      -6.072   2.804  -5.087  1.00  0.00     0.417 C 
HETATM   23  C23 UNL     1      -1.859   1.065  -2.208  1.00  0.00     0.256 C 
HETATM   24  C24 UNL     1      -0.664   0.683  -1.408  1.00  0.00     0.033 A 
HETATM   25  C25 UNL     1       0.274  -0.183  -1.979  1.00  0.00     0.034 A 
HETATM   26  C26 UNL     1       1.420  -0.541  -1.261  1.00  0.00     0.033 A 
HETATM   27  C27 UNL     1       1.621  -0.043   0.034  1.00  0.00     0.017 A 
HETATM   28  C28 UNL     1       0.689   0.831   0.598  1.00  0.00     0.002 A 
HETATM   29  C29 UNL     1      -0.448   1.201  -0.123  1.00  0.00     0.017 A 
HETATM   30  C30 UNL     1       2.393  -1.474  -1.890  1.00  0.00     0.256 C 
HETATM   31  C31 UNL     1       4.868  -1.879  -2.068  1.00  0.00     0.054 A 
HETATM   32  C32 UNL     1       6.135  -1.304  -1.812  1.00  0.00     0.054 A 
HETATM   33  C33 UNL     1       7.321  -1.985  -2.175  1.00  0.00     0.054 A 
HETATM   34  C34 UNL     1       7.221  -3.226  -2.807  1.00  0.00     0.047 A 
HETATM   35  C35 UNL     1       5.969  -3.807  -3.068  1.00  0.00     0.052 A 
HETATM   36  C36 UNL     1       4.801  -3.123  -2.699  1.00  0.00     0.047 A 
HETATM   37  C37 UNL     1       5.881  -5.142  -3.770  1.00  0.00     0.417 C 
HETATM   38  C38 UNL     1       9.839  -1.835  -2.150  1.00  0.00     0.222 C 
HETATM   39  C39 UNL     1      10.892  -0.857  -1.647  1.00  0.00     0.103 C 
HETATM   40  C40 UNL     1      12.332  -1.322  -1.854  1.00  0.00     0.011 C 
HETATM   41  C41 UNL     1      12.720  -2.462  -0.905  1.00  0.00     0.020 C 
HETATM   42  C42 UNL     1      14.188  -2.872  -1.033  1.00  0.00     0.122 C 
HETATM   43  C43 UNL     1      14.282  -4.423  -2.827  1.00  0.00     0.143 C 
HETATM   44  C44 UNL     1       6.483   1.348  -2.513  1.00  0.00     0.099 C 
HETATM   45  C45 UNL     1       6.558   2.836  -2.163  1.00  0.00     0.133 C 
HETATM   46  C46 UNL     1       8.961   3.206  -1.704  1.00  0.00     0.235 C 
HETATM   47  C47 UNL     1       9.966   3.567  -0.611  1.00  0.00     0.227 C 
HETATM   48  C48 UNL     1       9.563   1.866   1.111  1.00  0.00     0.361 C 
HETATM   49  C49 UNL     1       9.570   0.023   2.708  1.00  0.00     0.061 C 
HETATM   50  C50 UNL     1      10.571  -1.104   3.000  1.00  0.00     0.046 C 
HETATM   51  C51 UNL     1       9.412   0.882   3.967  1.00  0.00     0.046 C 
HETATM   52  C52 UNL     1       8.241  -0.603   2.272  1.00  0.00     0.046 C 
HETATM   53  O1  UNL     1     -12.174  -0.978   3.274  1.00  0.00    -0.294 OA
HETATM   54  O2  UNL     1     -10.463  -2.497   3.030  1.00  0.00    -0.238 OA
HETATM   55  O3  UNL     1      -9.313  -0.286  -0.497  1.00  0.00    -0.272 OA
HETATM   56  O4  UNL     1      -6.799   3.501   1.012  1.00  0.00    -0.273 OA
HETATM   57  O5  UNL     1      -1.728   1.209  -3.417  1.00  0.00    -0.267 OA
HETATM   58  O6  UNL     1       1.962  -2.393  -2.574  1.00  0.00    -0.267 OA
HETATM   59  O7  UNL     1      10.121  -2.881  -2.721  1.00  0.00    -0.273 OA
HETATM   60  O8  UNL     1       9.303   2.891  -2.840  1.00  0.00    -0.272 OA
HETATM   61  O9  UNL     1       8.475   2.319   1.430  1.00  0.00    -0.238 OA
HETATM   62  O10 UNL     1      10.175   0.782   1.629  1.00  0.00    -0.294 OA
HETATM   63  N1  UNL     1     -11.550  -1.594   1.238  1.00  0.00    -0.328 N 
HETATM   64  N2  UNL     1      -8.408  -1.661   1.129  1.00  0.00    -0.359 N 
HETATM   65  N3  UNL     1      -7.760   2.057  -0.527  1.00  0.00    -0.326 N 
HETATM   66  N4  UNL     1     -12.173   2.499   2.204  1.00  0.00    -0.372 N 
ATOM     67  H4  UNL     1     -11.633   1.796   2.709  1.00  0.00     0.161 HD
HETATM   68  N5  UNL     1     -13.556   0.864   1.445  1.00  0.00    -0.279 NA
HETATM   69  N6  UNL     1     -13.973   2.906   0.694  1.00  0.00    -0.279 NA
HETATM   70  N7  UNL     1      -3.023   1.191  -1.480  1.00  0.00    -0.322 N 
HETATM   71  N8  UNL     1       3.717  -1.167  -1.653  1.00  0.00    -0.322 N 
HETATM   72  N9  UNL     1       8.562  -1.376  -1.872  1.00  0.00    -0.326 N 
HETATM   73  N10 UNL     1      14.520  -3.238  -2.405  1.00  0.00    -0.367 N 
ATOM     74  H10 UNL     1      14.942  -2.550  -3.029  1.00  0.00     0.162 HD
HETATM   75  N11 UNL     1      13.730  -5.472  -2.183  1.00  0.00    -0.376 N 
HETATM   76  N12 UNL     1      14.629  -4.744  -4.092  1.00  0.00    -0.274 NA
HETATM   77  N13 UNL     1       7.651   3.189  -1.275  1.00  0.00    -0.359 N 
HETATM   78  N14 UNL     1      10.345   2.384   0.127  1.00  0.00    -0.328 N 
HETATM   79  S1  UNL     1      -5.104   0.689   0.577  1.00  0.00    -0.124 SA
HETATM   80  S2  UNL     1       6.225   0.324  -1.015  1.00  0.00    -0.124 SA
HETATM   81  F1  UNL     1      -6.080   1.744  -5.940  1.00  0.00    -0.166 F 
HETATM   82  F2  UNL     1      -5.129   3.665  -5.559  1.00  0.00    -0.166 F 
HETATM   83  F3  UNL     1      -7.269   3.433  -5.269  1.00  0.00    -0.166 F 
HETATM   84  F4  UNL     1       4.783  -5.864  -3.414  1.00  0.00    -0.166 F 
HETATM   85  F5  UNL     1       5.825  -5.012  -5.124  1.00  0.00    -0.166 F 
HETATM   86  F6  UNL     1       6.948  -5.951  -3.515  1.00  0.00    -0.166 F 
HETATM   87  H55 UNL     1     -12.086  -0.772   0.979  1.00  0.00     0.165 HD
HETATM   88  H56 UNL     1      -8.746  -2.242   1.898  1.00  0.00     0.162 HD
HETATM   89  H57 UNL     1      -8.671   1.826  -0.914  1.00  0.00     0.169 HD
HETATM   90  H58 UNL     1     -13.158   0.393   2.259  1.00  0.00     0.126 HD
HETATM   91  H59 UNL     1     -14.566   0.788   1.486  1.00  0.00     0.126 HD
HETATM   92  H60 UNL     1     -14.230   2.440  -0.168  1.00  0.00     0.126 HD
HETATM   93  H61 UNL     1     -13.634   3.841   0.509  1.00  0.00     0.126 HD
HETATM   94  H62 UNL     1      -3.008   0.913  -0.503  1.00  0.00     0.169 HD
HETATM   95  H63 UNL     1       3.920  -0.296  -1.174  1.00  0.00     0.169 HD
HETATM   96  H64 UNL     1       8.488  -0.481  -1.397  1.00  0.00     0.169 HD
HETATM   97  H65 UNL     1      13.290  -6.173  -2.760  1.00  0.00     0.158 HD
HETATM   98  H66 UNL     1      13.197  -5.253  -1.353  1.00  0.00     0.158 HD
HETATM   99  H67 UNL     1      13.895  -5.189  -4.624  1.00  0.00     0.127 HD
HETATM  100  H68 UNL     1      14.951  -3.909  -4.572  1.00  0.00     0.127 HD
HETATM  101  H69 UNL     1       7.499   3.104  -0.269  1.00  0.00     0.162 HD
HETATM  102  H70 UNL     1      11.208   1.903  -0.086  1.00  0.00     0.165 HD
ENDROOT
TORSDOF 34
