REMARK  0 active torsions:
REMARK  status: ('A' for Active; 'I' for Inactive)
REMARK       I    between atoms: C4_4  and  C5_5 
REMARK       I    between atoms: C5_5  and  N3_80 
REMARK       I    between atoms: C6_6  and  N3_80 
REMARK       I    between atoms: C8_8  and  C9_9 
REMARK       I    between atoms: C9_9  and  N6_84 
REMARK       I    between atoms: C10_10  and  N6_84 
REMARK       I    between atoms: C12_12  and  C14_14 
REMARK       I    between atoms: C14_14  and  N8_86 
REMARK       I    between atoms: C15_15  and  N8_86 
REMARK       I    between atoms: C17_17  and  C19_19 
REMARK       I    between atoms: C19_19  and  N10_88 
REMARK       I    between atoms: C20_20  and  C21_21 
REMARK       I    between atoms: C20_20  and  N10_88 
REMARK       I    between atoms: C21_21  and  C22_22 
REMARK       I    between atoms: C22_22  and  C23_23 
REMARK       I    between atoms: C23_23  and  N11_89 
REMARK       I    between atoms: C23_23  and  O12_118 
REMARK       I    between atoms: C24_24  and  N11_89 
REMARK       I    between atoms: C26_26  and  C27_27 
REMARK       I    between atoms: C27_27  and  N14_94 
REMARK       I    between atoms: C28_28  and  N14_94 
REMARK       I    between atoms: C30_30  and  C31_31 
REMARK       I    between atoms: C31_31  and  N17_98 
REMARK       I    between atoms: C32_32  and  N17_98 
REMARK       I    between atoms: C34_34  and  C36_36 
REMARK       I    between atoms: C36_36  and  N19_100 
REMARK       I    between atoms: C37_37  and  N19_100 
REMARK       I    between atoms: C39_39  and  C41_41 
REMARK       I    between atoms: C41_41  and  N21_102 
REMARK       I    between atoms: C42_42  and  C43_43 
REMARK       I    between atoms: C42_42  and  N21_102 
REMARK       I    between atoms: C43_43  and  C44_44 
REMARK       I    between atoms: C44_44  and  N22_103 
REMARK       I    between atoms: C44_44  and  O11_117 
REMARK       I    between atoms: C45_45  and  C46_46 
REMARK       I    between atoms: C45_45  and  N22_103 
REMARK       I    between atoms: C46_46  and  O9_115 
REMARK       I    between atoms: C47_47  and  C48_48 
REMARK       I    between atoms: C47_47  and  O9_115 
REMARK       I    between atoms: C48_48  and  O10_116 
REMARK       I    between atoms: C49_49  and  C50_50 
REMARK       I    between atoms: C49_49  and  O10_116 
REMARK       I    between atoms: C50_50  and  C51_51 
REMARK       I    between atoms: C51_51  and  N23_105 
REMARK       I    between atoms: C54_54  and  C55_55 
REMARK       I    between atoms: C55_55  and  C56_56 
ROOT
HETATM    1  C1  UNL     1      15.357  -7.480   7.940  1.00  0.00     0.157 C 
HETATM    2  C2  UNL     1      17.065  -7.630   9.761  1.00  0.00     0.109 A 
HETATM    3  C3  UNL     1      17.907  -6.709  10.336  1.00  0.00     0.107 A 
HETATM    4  C4  UNL     1      16.801  -5.628   8.840  1.00  0.00     0.176 A 
HETATM    5  C5  UNL     1      16.332  -4.530   7.999  1.00  0.00     0.291 C 
HETATM    6  C6  UNL     1      16.800  -2.155   7.695  1.00  0.00     0.125 A 
HETATM    7  C7  UNL     1      17.474  -0.999   8.005  1.00  0.00     0.140 A 
HETATM    8  C8  UNL     1      16.007  -0.656   6.377  1.00  0.00     0.178 A 
HETATM    9  C9  UNL     1      15.197  -0.042   5.334  1.00  0.00     0.290 C 
HETATM   10  C10 UNL     1      13.444  -0.710   3.745  1.00  0.00     0.053 A 
HETATM   11  C11 UNL     1      12.626  -1.678   3.217  1.00  0.00     0.120 A 
HETATM   12  C12 UNL     1      12.171   0.240   2.102  1.00  0.00     0.105 A 
HETATM   13  C13 UNL     1      13.156   0.490   3.054  1.00  0.00     0.066 A 
HETATM   14  C14 UNL     1      11.538   1.145   1.142  1.00  0.00     0.273 C 
HETATM   15  C15 UNL     1      11.740   3.415   0.221  1.00  0.00     0.053 A 
HETATM   16  C16 UNL     1      12.394   4.625   0.173  1.00  0.00     0.120 A 
HETATM   17  C17 UNL     1      10.672   4.756  -1.275  1.00  0.00     0.104 A 
HETATM   18  C18 UNL     1      10.675   3.490  -0.705  1.00  0.00     0.066 A 
HETATM   19  C19 UNL     1       9.740   5.256  -2.262  1.00  0.00     0.268 C 
HETATM   20  C20 UNL     1       8.255   7.161  -2.806  1.00  0.00     0.123 C 
HETATM   21  C21 UNL     1       8.812   8.349  -3.588  1.00  0.00     0.027 C 
HETATM   22  C22 UNL     1       9.934   7.960  -4.553  1.00  0.00     0.085 C 
HETATM   23  C23 UNL     1       9.714   8.535  -5.927  1.00  0.00     0.116 C 
HETATM   24  C24 UNL     1       8.366   6.905  -6.669  1.00  0.00     0.124 A 
HETATM   25  C25 UNL     1       8.894   5.659  -6.887  1.00  0.00     0.140 A 
HETATM   26  C26 UNL     1       6.832   5.534  -6.078  1.00  0.00     0.178 A 
HETATM   27  C27 UNL     1       5.546   5.029  -5.612  1.00  0.00     0.291 C 
HETATM   28  C28 UNL     1       3.406   5.941  -4.875  1.00  0.00     0.125 A 
HETATM   29  C29 UNL     1       2.549   6.985  -4.624  1.00  0.00     0.140 A 
HETATM   30  C30 UNL     1       1.580   5.037  -4.197  1.00  0.00     0.178 A 
HETATM   31  C31 UNL     1       0.626   4.004  -3.818  1.00  0.00     0.290 C 
HETATM   32  C32 UNL     1       0.557   1.551  -3.648  1.00  0.00     0.053 A 
HETATM   33  C33 UNL     1       1.178   0.335  -3.786  1.00  0.00     0.120 A 
HETATM   34  C34 UNL     1      -0.925  -0.085  -3.058  1.00  0.00     0.105 A 
HETATM   35  C35 UNL     1      -0.753   1.291  -3.187  1.00  0.00     0.066 A 
HETATM   36  C36 UNL     1      -2.093  -0.852  -2.625  1.00  0.00     0.273 C 
HETATM   37  C37 UNL     1      -4.489  -0.564  -2.108  1.00  0.00     0.053 A 
HETATM   38  C38 UNL     1      -4.841  -1.833  -1.724  1.00  0.00     0.120 A 
HETATM   39  C39 UNL     1      -6.715  -0.575  -1.583  1.00  0.00     0.104 A 
HETATM   40  C40 UNL     1      -5.662   0.226  -2.016  1.00  0.00     0.066 A 
HETATM   41  C41 UNL     1      -8.105  -0.234  -1.332  1.00  0.00     0.268 C 
HETATM   42  C42 UNL     1      -9.906   1.385  -1.842  1.00  0.00     0.131 C 
HETATM   43  C43 UNL     1     -10.744   0.750  -2.947  1.00  0.00     0.103 C 
HETATM   44  C44 UNL     1     -12.202   1.102  -2.870  1.00  0.00     0.112 C 
HETATM   45  C45 UNL     1     -12.968  -0.402  -4.544  1.00  0.00     0.147 C 
HETATM   46  C46 UNL     1     -13.271  -1.784  -3.962  1.00  0.00     0.187 C 
HETATM   47  C47 UNL     1     -12.430  -3.368  -2.412  1.00  0.00     0.193 C 
HETATM   48  C48 UNL     1     -11.165  -3.778  -1.666  1.00  0.00     0.193 C 
HETATM   49  C49 UNL     1     -10.347  -5.164   0.058  1.00  0.00     0.169 C 
HETATM   50  C50 UNL     1     -10.794  -5.997   1.252  1.00  0.00     0.046 C 
HETATM   51  C51 UNL     1     -11.354  -5.184   2.431  1.00  0.00     0.130 C 
HETATM   52  C52 UNL     1     -13.798  -5.384   2.080  1.00  0.00     0.092 C 
HETATM   53  C53 UNL     1     -15.038  -4.961   1.811  1.00  0.00     0.029 C 
HETATM   54  C54 UNL     1     -15.267  -3.533   1.620  1.00  0.00    -0.020 C 
HETATM   55  C55 UNL     1     -16.505  -2.992   1.667  1.00  0.00     0.049 C 
HETATM   56  C56 UNL     1     -17.671  -3.736   1.971  1.00  0.00     0.077 A 
HETATM   57  C57 UNL     1     -19.186  -4.990   3.139  1.00  0.00     0.052 A 
HETATM   58  C58 UNL     1     -19.767  -5.711   4.201  1.00  0.00     0.031 A 
HETATM   59  C59 UNL     1     -20.985  -6.367   3.988  1.00  0.00     0.002 A 
HETATM   60  C60 UNL     1     -21.616  -6.310   2.748  1.00  0.00     0.002 A 
HETATM   61  C61 UNL     1     -21.051  -5.601   1.686  1.00  0.00     0.021 A 
HETATM   62  C62 UNL     1     -19.828  -4.948   1.904  1.00  0.00     0.034 A 
HETATM   63  C63 UNL     1     -17.179  -4.133   4.341  1.00  0.00     0.157 C 
HETATM   64  C64 UNL     1     -14.054  -2.657   1.436  1.00  0.00     0.001 A 
HETATM   65  C65 UNL     1     -14.137  -1.342   0.934  1.00  0.00     0.014 A 
HETATM   66  C66 UNL     1     -13.005  -0.538   0.834  1.00  0.00     0.001 A 
HETATM   67  C67 UNL     1     -11.775  -1.034   1.235  1.00  0.00     0.002 A 
HETATM   68  C68 UNL     1     -11.664  -2.346   1.703  1.00  0.00     0.030 A 
HETATM   69  C69 UNL     1     -12.776  -3.203   1.786  1.00  0.00     0.045 A 
HETATM   70  C70 UNL     1      -6.891  -3.013  -0.962  1.00  0.00     0.156 C 
HETATM   71  C71 UNL     1       0.604  -2.060  -3.443  1.00  0.00     0.156 C 
HETATM   72  C72 UNL     1       0.184   7.090  -3.811  1.00  0.00     0.157 C 
HETATM   73  C73 UNL     1       8.059   3.358  -6.374  1.00  0.00     0.157 C 
HETATM   74  C74 UNL     1      12.260   6.712  -1.176  1.00  0.00     0.156 C 
HETATM   75  C75 UNL     1      10.880  -1.831   1.452  1.00  0.00     0.156 C 
HETATM   76  C76 UNL     1      17.359   1.334   7.105  1.00  0.00     0.157 C 
HETATM   77  N1  UNL     1      16.368  -6.933   8.813  1.00  0.00    -0.342 N 
HETATM   78  N2  UNL     1      17.741  -5.474   9.765  1.00  0.00    -0.346 N 
ATOM     79  H2  UNL     1      18.237  -4.615  10.002  1.00  0.00     0.167 HD
HETATM   80  N3  UNL     1      16.999  -3.362   8.302  1.00  0.00    -0.305 N 
HETATM   81  N4  UNL     1      16.962  -0.051   7.160  1.00  0.00    -0.339 N 
HETATM   82  N5  UNL     1      15.901  -1.938   6.697  1.00  0.00    -0.323 N 
ATOM     83  H5  UNL     1      15.272  -2.624   6.279  1.00  0.00     0.169 HD
HETATM   84  N6  UNL     1      14.340  -0.960   4.759  1.00  0.00    -0.319 N 
HETATM   85  N7  UNL     1      11.859  -1.104   2.234  1.00  0.00    -0.354 N 
HETATM   86  N8  UNL     1      12.142   2.386   1.051  1.00  0.00    -0.320 N 
HETATM   87  N9  UNL     1      11.767   5.417  -0.757  1.00  0.00    -0.354 N 
HETATM   88  N10 UNL     1       9.264   6.521  -1.987  1.00  0.00    -0.356 N 
HETATM   89  N11 UNL     1       9.030   8.097  -6.929  1.00  0.00    -0.326 N 
ATOM     90  H11 UNL     1       8.981   8.580  -7.826  1.00  0.00     0.169 HD
HETATM   91  N12 UNL     1       7.930   4.793  -6.451  1.00  0.00    -0.339 N 
HETATM   92  N13 UNL     1       7.092   6.833  -6.187  1.00  0.00    -0.323 N 
ATOM     93  H13 UNL     1       6.472   7.610  -5.959  1.00  0.00     0.169 HD
HETATM   94  N14 UNL     1       4.687   6.072  -5.330  1.00  0.00    -0.305 N 
HETATM   95  N15 UNL     1       1.389   6.398  -4.195  1.00  0.00    -0.339 N 
HETATM   96  N16 UNL     1       2.806   4.750  -4.608  1.00  0.00    -0.323 N 
ATOM     97  H16 UNL     1       3.218   3.822  -4.705  1.00  0.00     0.169 HD
HETATM   98  N17 UNL     1       1.182   2.745  -3.930  1.00  0.00    -0.319 N 
HETATM   99  N18 UNL     1       0.290  -0.646  -3.423  1.00  0.00    -0.354 N 
HETATM  100  N19 UNL     1      -3.249  -0.098  -2.506  1.00  0.00    -0.320 N 
HETATM  101  N20 UNL     1      -6.173  -1.836  -1.402  1.00  0.00    -0.354 N 
HETATM  102  N21 UNL     1      -8.521   0.953  -1.896  1.00  0.00    -0.355 N 
HETATM  103  N22 UNL     1     -13.196   0.639  -3.533  1.00  0.00    -0.372 N 
ATOM    104  H22 UNL     1     -14.138   0.990  -3.360  1.00  0.00     0.161 HD
HETATM  105  N23 UNL     1     -12.675  -4.574   2.172  1.00  0.00    -0.356 N 
HETATM  106  N24 UNL     1     -17.998  -4.271   3.139  1.00  0.00    -0.344 N 
HETATM  107  O1  UNL     1      15.460  -4.672   7.148  1.00  0.00    -0.264 OA
HETATM  108  O2  UNL     1      15.287   1.144   5.025  1.00  0.00    -0.264 OA
HETATM  109  O3  UNL     1      10.560   0.807   0.480  1.00  0.00    -0.266 OA
HETATM  110  O4  UNL     1       9.382   4.607  -3.239  1.00  0.00    -0.266 OA
HETATM  111  O5  UNL     1       5.294   3.832  -5.511  1.00  0.00    -0.264 OA
HETATM  112  O6  UNL     1      -0.521   4.250  -3.452  1.00  0.00    -0.264 OA
HETATM  113  O7  UNL     1      -2.032  -2.059  -2.407  1.00  0.00    -0.266 OA
HETATM  114  O8  UNL     1      -8.869  -0.948  -0.688  1.00  0.00    -0.266 OA
HETATM  115  O9  UNL     1     -12.140  -2.227  -3.214  1.00  0.00    -0.387 OA
HETATM  116  O10 UNL     1     -11.480  -4.805  -0.727  1.00  0.00    -0.389 OA
HETATM  117  O11 UNL     1     -12.511   2.076  -2.004  1.00  0.00    -0.350 OA
HETATM  118  O12 UNL     1      10.343   9.712  -6.099  1.00  0.00    -0.349 OA
HETATM  119  S1  UNL     1     -18.896  -4.008   0.804  1.00  0.00    -0.070 SA
HETATM  120  H76 UNL     1      17.694  -3.429   9.038  1.00  0.00     0.170 HD
HETATM  121  H77 UNL     1      14.398  -1.905   5.133  1.00  0.00     0.169 HD
HETATM  122  H78 UNL     1      12.959   2.565   1.613  1.00  0.00     0.169 HD
HETATM  123  H79 UNL     1       9.429   6.890  -1.060  1.00  0.00     0.162 HD
HETATM  124  H80 UNL     1       5.052   7.002  -5.503  1.00  0.00     0.170 HD
HETATM  125  H81 UNL     1       2.148   2.721  -4.253  1.00  0.00     0.169 HD
HETATM  126  H82 UNL     1      -3.204   0.879  -2.749  1.00  0.00     0.169 HD
HETATM  127  H83 UNL     1      -7.899   1.428  -2.533  1.00  0.00     0.162 HD
HETATM  128  H84 UNL     1     -13.466   2.236  -2.099  1.00  0.00     0.219 HD
HETATM  129  H85 UNL     1      10.141  10.011  -7.003  1.00  0.00     0.219 HD
ENDROOT
TORSDOF 38
