REMARK  26 active torsions:
REMARK  status: ('A' for Active; 'I' for Inactive)
REMARK    1  A    between atoms: C4_4  and  C5_5 
REMARK       I    between atoms: C5_5  and  N3_57 
REMARK    2  A    between atoms: C6_6  and  N3_57 
REMARK    3  A    between atoms: C8_8  and  C10_10 
REMARK    4  A    between atoms: C9_9  and  O2_77 
REMARK       I    between atoms: C10_10  and  N5_59 
REMARK    5  A    between atoms: C11_11  and  N5_59 
REMARK    6  A    between atoms: C13_13  and  C15_15 
REMARK       I    between atoms: C15_15  and  N7_61 
REMARK    7  A    between atoms: C16_16  and  N7_61 
REMARK    8  A    between atoms: C18_18  and  C20_20 
REMARK       I    between atoms: C20_20  and  N9_63 
REMARK    9  A    between atoms: C21_21  and  C22_22 
REMARK   10  A    between atoms: C21_21  and  N9_63 
REMARK   11  A    between atoms: C22_22  and  C23_23 
REMARK   12  A    between atoms: C23_23  and  C24_24 
REMARK   13  A    between atoms: C23_23  and  N20_75 
REMARK       I    between atoms: C24_24  and  N10_64 
REMARK   14  A    between atoms: C25_25  and  N10_64 
REMARK   15  A    between atoms: C27_27  and  C28_28 
REMARK       I    between atoms: C28_28  and  N13_68 
REMARK   16  A    between atoms: C29_29  and  N13_68 
REMARK   17  A    between atoms: C31_31  and  C33_33 
REMARK   18  A    between atoms: C32_32  and  O8_83 
REMARK       I    between atoms: C33_33  and  N15_70 
REMARK   19  A    between atoms: C34_34  and  N15_70 
REMARK   20  A    between atoms: C36_36  and  C38_38 
REMARK       I    between atoms: C38_38  and  N17_72 
REMARK   21  A    between atoms: C39_39  and  N17_72 
REMARK   22  A    between atoms: C41_41  and  C43_43 
REMARK       I    between atoms: C43_43  and  N19_74 
REMARK   23  A    between atoms: C44_44  and  C45_45 
REMARK   24  A    between atoms: C44_44  and  N19_74 
REMARK   25  A    between atoms: C45_45  and  C46_46 
REMARK   26  A    between atoms: C46_46  and  O12_87 
ROOT
HETATM    1  C24 UNL     1      -0.271   1.842   1.204  1.00  0.00     0.256 C 
HETATM    2  N10 UNL     1      -0.477   0.481   1.124  1.00  0.00    -0.310 N 
HETATM    3  O6  UNL     1       0.812   2.426   1.167  1.00  0.00    -0.271 OA
HETATM    4  H53 UNL     1      -1.431   0.118   1.134  1.00  0.00     0.170 HD
ENDROOT
BRANCH   1   5
HETATM    5  C23 UNL     1      -1.588   2.648   1.352  1.00  0.00     0.310 C 
BRANCH   5   6
HETATM    6  C22 UNL     1      -2.138   3.074  -0.016  1.00  0.00     0.065 C 
BRANCH   6   7
HETATM    7  C21 UNL     1      -2.697   1.940  -0.876  1.00  0.00     0.125 C 
BRANCH   7   8
HETATM    8  N9  UNL     1      -3.961   1.429  -0.383  1.00  0.00    -0.356 N 
HETATM    9  C20 UNL     1      -4.073   0.351   0.464  1.00  0.00     0.268 C 
HETATM   10  O5  UNL     1      -3.072  -0.228   0.886  1.00  0.00    -0.266 OA
HETATM   11  H52 UNL     1      -4.800   1.923  -0.654  1.00  0.00     0.162 HD
BRANCH   9  12
HETATM   12  C18 UNL     1      -5.429  -0.017   0.835  1.00  0.00     0.104 A 
HETATM   13  C19 UNL     1      -6.644   0.456   0.348  1.00  0.00     0.066 A 
HETATM   14  C16 UNL     1      -7.699  -0.207   1.015  1.00  0.00     0.053 A 
HETATM   15  C17 UNL     1      -7.120  -1.080   1.903  1.00  0.00     0.120 A 
HETATM   16  N8  UNL     1      -5.756  -0.969   1.787  1.00  0.00    -0.354 N 
HETATM   17  C51 UNL     1      -4.816  -1.744   2.570  1.00  0.00     0.156 C 
BRANCH  14  18
HETATM   18  N7  UNL     1      -9.065  -0.071   0.876  1.00  0.00    -0.320 N 
HETATM   19  C15 UNL     1      -9.696   0.751  -0.038  1.00  0.00     0.273 C 
HETATM   20  O4  UNL     1      -9.132   1.430  -0.889  1.00  0.00    -0.266 OA
HETATM   21  H51 UNL     1      -9.643  -0.681   1.437  1.00  0.00     0.169 HD
BRANCH  19  22
HETATM   22  C13 UNL     1     -11.140   0.712   0.090  1.00  0.00     0.105 A 
HETATM   23  C14 UNL     1     -12.062   0.430  -0.907  1.00  0.00     0.066 A 
HETATM   24  C11 UNL     1     -13.358   0.478  -0.345  1.00  0.00     0.053 A 
HETATM   25  C12 UNL     1     -13.206   0.830   0.978  1.00  0.00     0.120 A 
HETATM   26  N6  UNL     1     -11.868   1.002   1.225  1.00  0.00    -0.354 N 
HETATM   27  C52 UNL     1     -11.332   1.491   2.478  1.00  0.00     0.156 C 
BRANCH  24  28
HETATM   28  N5  UNL     1     -14.591   0.247  -0.916  1.00  0.00    -0.320 N 
HETATM   29  C10 UNL     1     -14.825  -0.123  -2.225  1.00  0.00     0.275 C 
HETATM   30  O3  UNL     1     -13.942  -0.313  -3.057  1.00  0.00    -0.266 OA
HETATM   31  H50 UNL     1     -15.411   0.358  -0.325  1.00  0.00     0.169 HD
BRANCH  29  32
HETATM   32  C8  UNL     1     -16.242  -0.280  -2.547  1.00  0.00     0.138 A 
HETATM   33  C9  UNL     1     -17.364  -0.134  -1.744  1.00  0.00     0.126 A 
HETATM   34  C6  UNL     1     -18.534  -0.389  -2.501  1.00  0.00     0.086 A 
HETATM   35  C7  UNL     1     -18.103  -0.691  -3.772  1.00  0.00     0.123 A 
HETATM   36  N4  UNL     1     -16.731  -0.624  -3.796  1.00  0.00    -0.352 N 
HETATM   37  C53 UNL     1     -15.934  -0.879  -4.980  1.00  0.00     0.156 C 
BRANCH  33  38
HETATM   38  O2  UNL     1     -17.276   0.202  -0.442  1.00  0.00    -0.356 OA
HETATM   39  H60 UNL     1     -18.183   0.254  -0.063  1.00  0.00     0.218 HD
ENDBRANCH  33  38
BRANCH  34  40
HETATM   40  N3  UNL     1     -19.875  -0.375  -2.174  1.00  0.00    -0.317 N 
HETATM   41  C5  UNL     1     -20.428  -0.088  -0.945  1.00  0.00     0.290 C 
HETATM   42  O1  UNL     1     -19.780   0.202   0.060  1.00  0.00    -0.264 OA
HETATM   43  H49 UNL     1     -20.545  -0.596  -2.907  1.00  0.00     0.169 HD
BRANCH  41  44
HETATM   44  C4  UNL     1     -21.883  -0.168  -0.972  1.00  0.00     0.176 A 
HETATM   45  N1  UNL     1     -22.747   0.062   0.073  1.00  0.00    -0.342 N 
HETATM   46  C1  UNL     1     -22.382   0.433   1.419  1.00  0.00     0.157 C 
HETATM   47  C2  UNL     1     -24.022  -0.122  -0.385  1.00  0.00     0.109 A 
HETATM   48  C3  UNL     1     -23.884  -0.460  -1.709  1.00  0.00     0.107 A 
HETATM   49  N2  UNL     1     -22.561  -0.488  -2.067  1.00  0.00    -0.346 N 
ATOM     50  H2  UNL     1     -22.177  -0.709  -2.986  1.00  0.00     0.167 HD
ENDBRANCH  41  44
ENDBRANCH  34  40
ENDBRANCH  29  32
ENDBRANCH  24  28
ENDBRANCH  19  22
ENDBRANCH  14  18
ENDBRANCH   9  12
ENDBRANCH   7   8
ENDBRANCH   6   7
ENDBRANCH   5   6
BRANCH   5  51
HETATM   51  N20 UNL     1      -1.304   3.871   2.148  1.00  0.00     0.092 N 
HETATM   52  H58 UNL     1      -0.511   4.340   1.695  1.00  0.00     0.313 HD
HETATM   53  H59 UNL     1      -0.915   3.578   3.046  1.00  0.00     0.313 HD
ENDBRANCH   5  51
ENDBRANCH   1   5
BRANCH   2  54
HETATM   54  C25 UNL     1       0.520  -0.447   0.979  1.00  0.00     0.125 A 
HETATM   55  C26 UNL     1       0.319  -1.801   0.859  1.00  0.00     0.140 A 
HETATM   56  N11 UNL     1       1.573  -2.336   0.732  1.00  0.00    -0.339 N 
HETATM   57  C27 UNL     1       2.478  -1.304   0.781  1.00  0.00     0.178 A 
HETATM   58  C50 UNL     1       1.880  -3.736   0.572  1.00  0.00     0.157 C 
HETATM   59  N12 UNL     1       1.846  -0.150   0.932  1.00  0.00    -0.323 N 
ATOM     60  H12 UNL     1       2.269   0.776   0.999  1.00  0.00     0.169 HD
BRANCH  57  61
HETATM   61  C28 UNL     1       3.927  -1.386   0.689  1.00  0.00     0.290 C 
HETATM   62  N13 UNL     1       4.514  -0.142   0.773  1.00  0.00    -0.317 N 
HETATM   63  H54 UNL     1       3.862   0.635   0.884  1.00  0.00     0.169 HD
HETATM   64  O7  UNL     1       4.543  -2.442   0.553  1.00  0.00    -0.264 OA
BRANCH  62  65
HETATM   65  C29 UNL     1       5.862   0.148   0.723  1.00  0.00     0.086 A 
HETATM   66  C30 UNL     1       6.327   1.439   0.819  1.00  0.00     0.123 A 
HETATM   67  N14 UNL     1       7.698   1.418   0.739  1.00  0.00    -0.352 N 
HETATM   68  C31 UNL     1       8.153   0.117   0.590  1.00  0.00     0.138 A 
HETATM   69  C49 UNL     1       8.526   2.605   0.806  1.00  0.00     0.156 C 
HETATM   70  C32 UNL     1       7.010  -0.669   0.580  1.00  0.00     0.126 A 
BRANCH  68  71
HETATM   71  C33 UNL     1       9.559  -0.263   0.474  1.00  0.00     0.275 C 
HETATM   72  N15 UNL     1       9.757  -1.622   0.330  1.00  0.00    -0.320 N 
HETATM   73  H55 UNL     1       8.922  -2.203   0.324  1.00  0.00     0.169 HD
HETATM   74  O9  UNL     1      10.466   0.565   0.505  1.00  0.00    -0.266 OA
BRANCH  72  75
HETATM   75  C34 UNL     1      10.974  -2.256   0.200  1.00  0.00     0.053 A 
HETATM   76  C35 UNL     1      11.095  -3.618   0.068  1.00  0.00     0.120 A 
HETATM   77  N16 UNL     1      12.428  -3.923  -0.044  1.00  0.00    -0.354 N 
HETATM   78  C36 UNL     1      13.194  -2.771   0.025  1.00  0.00     0.105 A 
HETATM   79  C48 UNL     1      12.934  -5.272  -0.194  1.00  0.00     0.156 C 
HETATM   80  C37 UNL     1      12.284  -1.726   0.168  1.00  0.00     0.066 A 
BRANCH  78  81
HETATM   81  C38 UNL     1      14.655  -2.740  -0.059  1.00  0.00     0.273 C 
HETATM   82  N17 UNL     1      15.212  -1.515   0.262  1.00  0.00    -0.320 N 
HETATM   83  H56 UNL     1      14.597  -0.772   0.557  1.00  0.00     0.169 HD
HETATM   84  O10 UNL     1      15.304  -3.733  -0.378  1.00  0.00    -0.266 OA
BRANCH  82  85
HETATM   85  C39 UNL     1      16.559  -1.204   0.255  1.00  0.00     0.053 A 
HETATM   86  C40 UNL     1      17.622  -2.009  -0.074  1.00  0.00     0.120 A 
HETATM   87  N18 UNL     1      18.779  -1.290   0.086  1.00  0.00    -0.354 N 
HETATM   88  C41 UNL     1      18.480   0.009   0.447  1.00  0.00     0.104 A 
HETATM   89  C47 UNL     1      20.101  -1.869  -0.023  1.00  0.00     0.156 C 
HETATM   90  C42 UNL     1      17.101   0.056   0.606  1.00  0.00     0.066 A 
BRANCH  88  91
HETATM   91  C43 UNL     1      19.407   1.097   0.674  1.00  0.00     0.268 C 
HETATM   92  N19 UNL     1      20.403   1.198  -0.275  1.00  0.00    -0.356 N 
HETATM   93  H57 UNL     1      20.272   0.684  -1.136  1.00  0.00     0.162 HD
HETATM   94  O11 UNL     1      19.289   1.900   1.593  1.00  0.00    -0.266 OA
BRANCH  92  95
HETATM   95  C44 UNL     1      21.330   2.311  -0.279  1.00  0.00     0.125 C 
BRANCH  95  96
HETATM   96  C45 UNL     1      20.730   3.547  -0.940  1.00  0.00     0.046 C 
BRANCH  96  97
HETATM   97  C46 UNL     1      21.733   4.692  -0.979  1.00  0.00     0.165 C 
BRANCH  97  98
HETATM   98  O12 UNL     1      21.152   5.833  -1.596  1.00  0.00    -0.401 OA
HETATM   99  H62 UNL     1      20.834   5.571  -2.477  1.00  0.00     0.209 HD
ENDBRANCH  97  98
ENDBRANCH  96  97
ENDBRANCH  95  96
ENDBRANCH  92  95
ENDBRANCH  88  91
ENDBRANCH  82  85
ENDBRANCH  78  81
ENDBRANCH  72  75
ENDBRANCH  68  71
BRANCH  70 100
HETATM  100  O8  UNL     1       7.061  -2.009   0.450  1.00  0.00    -0.356 OA
HETATM  101  H61 UNL     1       6.144  -2.367   0.467  1.00  0.00     0.218 HD
ENDBRANCH  70 100
ENDBRANCH  62  65
ENDBRANCH  57  61
ENDBRANCH   2  54
TORSDOF 26
