REMARK  0 active torsions:
REMARK  status: ('A' for Active; 'I' for Inactive)
REMARK       I    between atoms: C2_2  and  C3_3 
REMARK       I    between atoms: C3_3  and  C5_5 
REMARK       I    between atoms: C5_5  and  C6_6 
REMARK       I    between atoms: C5_5  and  N6_82 
REMARK       I    between atoms: C6_6  and  N1_77 
REMARK       I    between atoms: C7_7  and  C8_8 
REMARK       I    between atoms: C7_7  and  C12_12 
REMARK       I    between atoms: C7_7  and  N1_77 
REMARK       I    between atoms: C8_8  and  C10_10 
REMARK       I    between atoms: C12_12  and  N2_78 
REMARK       I    between atoms: C13_13  and  C14_14 
REMARK       I    between atoms: C13_13  and  C17_17 
REMARK       I    between atoms: C13_13  and  N2_78 
REMARK       I    between atoms: C14_14  and  C15_15 
REMARK       I    between atoms: C15_15  and  C16_16 
REMARK       I    between atoms: C16_16  and  O4_61 
REMARK       I    between atoms: C17_17  and  N3_79 
REMARK       I    between atoms: C18_18  and  C19_19 
REMARK       I    between atoms: C18_18  and  C22_22 
REMARK       I    between atoms: C18_18  and  N3_79 
REMARK       I    between atoms: C19_19  and  C20_20 
REMARK       I    between atoms: C20_20  and  C21_21 
REMARK       I    between atoms: C21_21  and  O7_64 
REMARK       I    between atoms: C22_22  and  N4_80 
REMARK       I    between atoms: C23_23  and  C24_24 
REMARK       I    between atoms: C23_23  and  C26_26 
REMARK       I    between atoms: C23_23  and  N4_80 
REMARK       I    between atoms: C24_24  and  C25_25 
REMARK       I    between atoms: C25_25  and  N5_81 
REMARK       I    between atoms: C26_26  and  O11_68 
REMARK       I    between atoms: C27_27  and  C28_28 
REMARK       I    between atoms: C27_27  and  N6_82 
REMARK       I    between atoms: C28_28  and  C29_29 
REMARK       I    between atoms: C28_28  and  N8_84 
REMARK       I    between atoms: C29_29  and  C30_30 
REMARK       I    between atoms: C30_30  and  N7_83 
REMARK       I    between atoms: C31_31  and  C32_32 
REMARK       I    between atoms: C31_31  and  N8_84 
REMARK       I    between atoms: C32_32  and  C33_33 
REMARK       I    between atoms: C32_32  and  N10_86 
REMARK       I    between atoms: C33_33  and  C34_34 
REMARK       I    between atoms: C34_34  and  C35_35 
REMARK       I    between atoms: C35_35  and  C36_36 
REMARK       I    between atoms: C36_36  and  N9_85 
REMARK       I    between atoms: C37_37  and  C38_38 
REMARK       I    between atoms: C37_37  and  N10_86 
REMARK       I    between atoms: C38_38  and  C39_39 
REMARK       I    between atoms: C38_38  and  N12_88 
REMARK       I    between atoms: C39_39  and  C40_40 
REMARK       I    between atoms: C40_40  and  C41_41 
REMARK       I    between atoms: C41_41  and  C42_42 
REMARK       I    between atoms: C42_42  and  N11_87 
REMARK       I    between atoms: C43_43  and  C44_44 
REMARK       I    between atoms: C43_43  and  N12_88 
REMARK       I    between atoms: C44_44  and  C45_45 
REMARK       I    between atoms: C44_44  and  N13_89 
REMARK       I    between atoms: C48_48  and  C49_49 
REMARK       I    between atoms: C48_48  and  N13_89 
REMARK       I    between atoms: C49_49  and  C50_50 
REMARK       I    between atoms: C49_49  and  N14_90 
REMARK       I    between atoms: C50_50  and  O18_75 
REMARK       I    between atoms: C52_52  and  C53_53 
REMARK       I    between atoms: C52_52  and  N14_90 
REMARK       I    between atoms: C53_53  and  C54_54 
REMARK       I    between atoms: C53_53  and  N18_95 
REMARK       I    between atoms: C54_54  and  C55_55 
REMARK       I    between atoms: C55_55  and  C56_56 
REMARK       I    between atoms: C56_56  and  N15_91 
REMARK       I    between atoms: C57_57  and  N16_93 
REMARK       I    between atoms: C57_57  and  N17_94 
ROOT
HETATM    1  C1  UNL     1       4.231  -0.819   3.535  1.00  0.00     0.005 C 
HETATM    2  C2  UNL     1       3.624  -1.939   2.701  1.00  0.00     0.002 C 
HETATM    3  C3  UNL     1       2.110  -1.783   2.447  1.00  0.00     0.013 C 
HETATM    4  C4  UNL     1       1.589  -3.053   1.755  1.00  0.00     0.012 C 
HETATM    5  C5  UNL     1       1.710  -0.490   1.694  1.00  0.00     0.180 C 
HETATM    6  C6  UNL     1       2.101  -0.502   0.194  1.00  0.00     0.241 C 
HETATM    7  C7  UNL     1       3.983  -0.143  -1.402  1.00  0.00     0.180 C 
HETATM    8  C8  UNL     1       3.883   1.239  -2.102  1.00  0.00     0.013 C 
HETATM    9  C9  UNL     1       2.491   1.421  -2.728  1.00  0.00     0.012 C 
HETATM   10  C10 UNL     1       4.182   2.466  -1.211  1.00  0.00     0.002 C 
HETATM   11  C11 UNL     1       5.596   2.524  -0.656  1.00  0.00     0.005 C 
HETATM   12  C12 UNL     1       5.437  -0.654  -1.284  1.00  0.00     0.241 C 
HETATM   13  C13 UNL     1       7.484  -1.202  -2.546  1.00  0.00     0.177 C 
HETATM   14  C14 UNL     1       7.805  -2.294  -3.573  1.00  0.00     0.045 C 
HETATM   15  C15 UNL     1       9.288  -2.580  -3.777  1.00  0.00     0.112 C 
HETATM   16  C16 UNL     1      10.004  -2.847  -2.485  1.00  0.00     0.139 C 
HETATM   17  C17 UNL     1       8.078   0.170  -2.930  1.00  0.00     0.241 C 
HETATM   18  C18 UNL     1       9.873   1.814  -2.415  1.00  0.00     0.177 C 
HETATM   19  C19 UNL     1      10.473   2.182  -1.047  1.00  0.00     0.045 C 
HETATM   20  C20 UNL     1      10.605   3.689  -0.812  1.00  0.00     0.112 C 
HETATM   21  C21 UNL     1      11.719   4.372  -1.557  1.00  0.00     0.139 C 
HETATM   22  C22 UNL     1      10.940   1.860  -3.528  1.00  0.00     0.241 C 
HETATM   23  C23 UNL     1      12.690   0.616  -4.742  1.00  0.00     0.191 C 
HETATM   24  C24 UNL     1      13.887  -0.248  -4.349  1.00  0.00     0.138 C 
HETATM   25  C25 UNL     1      13.546  -1.713  -4.217  1.00  0.00     0.217 C 
HETATM   26  C26 UNL     1      12.095   0.130  -6.070  1.00  0.00     0.164 C 
HETATM   27  C27 UNL     1      -0.273   0.983   1.552  1.00  0.00     0.241 C 
HETATM   28  C28 UNL     1      -1.807   1.008   1.436  1.00  0.00     0.184 C 
HETATM   29  C29 UNL     1      -2.192   0.930  -0.045  1.00  0.00     0.131 C 
HETATM   30  C30 UNL     1      -2.150  -0.483  -0.588  1.00  0.00     0.197 C 
HETATM   31  C31 UNL     1      -2.882   0.145   3.523  1.00  0.00     0.241 C 
HETATM   32  C32 UNL     1      -3.661  -1.073   4.082  1.00  0.00     0.176 C 
HETATM   33  C33 UNL     1      -2.744  -1.863   5.034  1.00  0.00     0.035 C 
HETATM   34  C34 UNL     1      -1.542  -2.528   4.353  1.00  0.00     0.004 C 
HETATM   35  C35 UNL     1      -0.733  -3.435   5.285  1.00  0.00     0.030 C 
HETATM   36  C36 UNL     1      -1.486  -4.702   5.691  1.00  0.00     0.267 C 
HETATM   37  C37 UNL     1      -4.748  -3.103   3.021  1.00  0.00     0.241 C 
HETATM   38  C38 UNL     1      -5.375  -3.638   1.703  1.00  0.00     0.176 C 
HETATM   39  C39 UNL     1      -4.671  -4.930   1.253  1.00  0.00     0.035 C 
HETATM   40  C40 UNL     1      -3.199  -4.739   0.865  1.00  0.00     0.004 C 
HETATM   41  C41 UNL     1      -2.532  -6.071   0.510  1.00  0.00     0.030 C 
HETATM   42  C42 UNL     1      -1.024  -5.945   0.276  1.00  0.00     0.267 C 
HETATM   43  C43 UNL     1      -6.510  -1.850   0.424  1.00  0.00     0.241 C 
HETATM   44  C44 UNL     1      -6.291  -0.701  -0.582  1.00  0.00     0.180 C 
HETATM   45  C45 UNL     1      -6.753  -1.086  -2.001  1.00  0.00     0.009 C 
HETATM   46  C46 UNL     1      -8.267  -1.284  -2.129  1.00  0.00     0.012 C 
HETATM   47  C47 UNL     1      -6.281  -0.047  -3.023  1.00  0.00     0.012 C 
HETATM   48  C48 UNL     1      -6.381   1.116   1.060  1.00  0.00     0.243 C 
HETATM   49  C49 UNL     1      -7.261   2.229   1.670  1.00  0.00     0.205 C 
HETATM   50  C50 UNL     1      -6.452   3.467   2.118  1.00  0.00     0.146 C 
HETATM   51  C51 UNL     1      -5.422   3.191   3.205  1.00  0.00     0.042 C 
HETATM   52  C52 UNL     1      -9.452   3.261   1.110  1.00  0.00     0.251 C 
HETATM   53  C53 UNL     1     -10.286   3.775  -0.091  1.00  0.00     0.308 C 
HETATM   54  C54 UNL     1     -11.310   4.843   0.311  1.00  0.00     0.047 C 
HETATM   55  C55 UNL     1     -12.543   4.240   0.998  1.00  0.00     0.022 C 
HETATM   56  C56 UNL     1     -13.543   5.310   1.438  1.00  0.00     0.121 C 
HETATM   57  C57 UNL     1     -15.005   6.845   0.423  1.00  0.00     0.121 C 
HETATM   58  O1  UNL     1       1.311  -0.815  -0.699  1.00  0.00    -0.271 OA
HETATM   59  O2  UNL     1       6.011  -0.755  -0.200  1.00  0.00    -0.271 OA
HETATM   60  O3  UNL     1      10.421  -1.983  -1.727  1.00  0.00    -0.650 OA
HETATM   61  O4  UNL     1      10.080  -4.151  -2.178  1.00  0.00    -0.776 OA
HETATM   62  O5  UNL     1       7.503   0.926  -3.713  1.00  0.00    -0.271 OA
HETATM   63  O6  UNL     1      11.701   5.526  -1.954  1.00  0.00    -0.650 OA
HETATM   64  O7  UNL     1      12.829   3.624  -1.686  1.00  0.00    -0.776 OA
HETATM   65  O8  UNL     1      11.199   2.896  -4.138  1.00  0.00    -0.271 OA
HETATM   66  O9  UNL     1      12.408  -2.166  -4.224  1.00  0.00    -0.274 OA
HETATM   67  O10 UNL     1      12.735  -0.093  -7.088  1.00  0.00    -0.648 OA
HETATM   68  O11 UNL     1      10.757  -0.038  -6.060  1.00  0.00    -0.775 OA
HETATM   69  O12 UNL     1       0.422   1.962   1.286  1.00  0.00    -0.271 OA
HETATM   70  O13 UNL     1      -2.881  -1.384  -0.174  1.00  0.00    -0.280 OA
HETATM   71  O14 UNL     1      -2.591   1.127   4.198  1.00  0.00    -0.271 OA
HETATM   72  O15 UNL     1      -4.665  -3.811   4.021  1.00  0.00    -0.271 OA
HETATM   73  O16 UNL     1      -7.575  -2.020   1.013  1.00  0.00    -0.271 OA
HETATM   74  O17 UNL     1      -5.335   0.705   1.563  1.00  0.00    -0.271 OA
HETATM   75  O18 UNL     1      -5.806   4.070   0.986  1.00  0.00    -0.393 OA
HETATM   76  O19 UNL     1      -9.772   3.380   2.287  1.00  0.00    -0.271 OA
HETATM   77  N1  UNL     1       3.401  -0.152  -0.066  1.00  0.00    -0.346 N 
HETATM   78  N2  UNL     1       6.035  -0.998  -2.480  1.00  0.00    -0.346 N 
HETATM   79  N3  UNL     1       9.270   0.480  -2.318  1.00  0.00    -0.346 N 
HETATM   80  N4  UNL     1      11.707   0.718  -3.660  1.00  0.00    -0.344 N 
HETATM   81  N5  UNL     1      14.624  -2.531  -4.044  1.00  0.00    -0.370 N 
HETATM   82  N6  UNL     1       0.269  -0.262   1.790  1.00  0.00    -0.346 N 
HETATM   83  N7  UNL     1      -1.249  -0.718  -1.578  1.00  0.00    -0.273 NA
HETATM   84  N8  UNL     1      -2.439  -0.040   2.230  1.00  0.00    -0.346 N 
HETATM   85  N9  UNL     1      -0.609  -5.578   6.463  1.00  0.00     0.078 N 
HETATM   86  N10 UNL     1      -4.233  -1.825   2.947  1.00  0.00    -0.346 N 
HETATM   87  N11 UNL     1      -0.689  -5.077  -0.848  1.00  0.00     0.078 N 
HETATM   88  N12 UNL     1      -5.402  -2.649   0.623  1.00  0.00    -0.346 N 
HETATM   89  N13 UNL     1      -6.934   0.490  -0.049  1.00  0.00    -0.346 N 
HETATM   90  N14 UNL     1      -8.303   2.611   0.707  1.00  0.00    -0.344 N 
HETATM   91  N15 UNL     1     -14.099   5.959   0.253  1.00  0.00    -0.372 N 
ATOM     92  H15 UNL     1     -13.774   5.713  -0.682  1.00  0.00     0.161 HD
HETATM   93  N16 UNL     1     -15.559   7.317   1.561  1.00  0.00    -0.279 NA
HETATM   94  N17 UNL     1     -15.560   7.454  -0.647  1.00  0.00    -0.279 NA
HETATM   95  N18 UNL     1      -9.344   4.320  -1.107  1.00  0.00     0.092 N 
HETATM   96  H75 UNL     1      10.561  -4.187  -1.325  1.00  0.00     0.167 HD
HETATM   97  H76 UNL     1      13.411   4.194  -2.232  1.00  0.00     0.167 HD
HETATM   98  H77 UNL     1      10.539  -0.295  -6.979  1.00  0.00     0.167 HD
HETATM   99  H78 UNL     1      -5.276   4.814   1.323  1.00  0.00     0.210 HD
HETATM  100  H79 UNL     1       4.037   0.051   0.697  1.00  0.00     0.163 HD
HETATM  101  H80 UNL     1       5.626  -0.608  -3.323  1.00  0.00     0.163 HD
HETATM  102  H81 UNL     1       9.743  -0.231  -1.757  1.00  0.00     0.163 HD
HETATM  103  H82 UNL     1      11.254  -0.148  -3.384  1.00  0.00     0.163 HD
HETATM  104  H83 UNL     1      15.568  -2.224  -4.235  1.00  0.00     0.159 HD
HETATM  105  H84 UNL     1      14.450  -3.528  -4.029  1.00  0.00     0.159 HD
HETATM  106  H85 UNL     1      -0.363  -1.051   1.754  1.00  0.00     0.163 HD
HETATM  107  H86 UNL     1      -0.332  -0.271  -1.500  1.00  0.00     0.127 HD
HETATM  108  H87 UNL     1      -1.148  -1.688  -1.853  1.00  0.00     0.127 HD
HETATM  109  H88 UNL     1      -2.785  -0.871   1.756  1.00  0.00     0.163 HD
HETATM  110  H89 UNL     1       0.166  -5.886   5.880  1.00  0.00     0.312 HD
HETATM  111  H90 UNL     1      -1.126  -6.419   6.720  1.00  0.00     0.312 HD
HETATM  112  H91 UNL     1      -4.717  -1.228   2.275  1.00  0.00     0.163 HD
HETATM  113  H92 UNL     1      -1.187  -5.394  -1.679  1.00  0.00     0.312 HD
HETATM  114  H93 UNL     1      -1.021  -4.132  -0.662  1.00  0.00     0.312 HD
HETATM  115  H94 UNL     1      -4.503  -2.307   0.278  1.00  0.00     0.163 HD
HETATM  116  H95 UNL     1      -7.948   0.546  -0.085  1.00  0.00     0.163 HD
HETATM  117  H96 UNL     1      -7.985   2.904  -0.218  1.00  0.00     0.163 HD
HETATM  118  H97 UNL     1     -15.745   8.312   1.511  1.00  0.00     0.126 HD
HETATM  119  H98 UNL     1     -15.041   7.090   2.400  1.00  0.00     0.126 HD
HETATM  120  H99 UNL     1     -15.266   6.980  -1.496  1.00  0.00     0.126 HD
HETATM  121  HA0 UNL     1     -16.571   7.474  -0.589  1.00  0.00     0.126 HD
HETATM  122  HA1 UNL     1      -8.915   5.165  -0.721  1.00  0.00     0.313 HD
HETATM  123  HA2 UNL     1      -9.894   4.646  -1.904  1.00  0.00     0.313 HD
ENDROOT
TORSDOF 56
