REMARK  0 active torsions:
REMARK  status: ('A' for Active; 'I' for Inactive)
REMARK       I    between atoms: C2_2  and  O1_56 
REMARK       I    between atoms: C3_3  and  C14_14 
REMARK       I    between atoms: C5_5  and  N1_67 
REMARK       I    between atoms: C8_8  and  C9_9 
REMARK       I    between atoms: C8_8  and  N1_67 
REMARK       I    between atoms: C9_9  and  C10_10 
REMARK       I    between atoms: C9_9  and  N3_69 
REMARK       I    between atoms: C10_10  and  C11_11 
REMARK       I    between atoms: C11_11  and  C12_12 
REMARK       I    between atoms: C12_12  and  C13_13 
REMARK       I    between atoms: C13_13  and  N2_68 
REMARK       I    between atoms: C14_14  and  N4_70 
REMARK       I    between atoms: C15_15  and  C16_16 
REMARK       I    between atoms: C15_15  and  C20_20 
REMARK       I    between atoms: C15_15  and  N4_70 
REMARK       I    between atoms: C16_16  and  C17_17 
REMARK       I    between atoms: C17_17  and  C18_18 
REMARK       I    between atoms: C18_18  and  C19_19 
REMARK       I    between atoms: C19_19  and  N5_71 
REMARK       I    between atoms: C20_20  and  N6_72 
REMARK       I    between atoms: C21_21  and  N6_72 
REMARK       I    between atoms: C23_23  and  C28_28 
REMARK       I    between atoms: C24_24  and  O5_60 
REMARK       I    between atoms: C28_28  and  N7_73 
REMARK       I    between atoms: C29_29  and  C30_30 
REMARK       I    between atoms: C29_29  and  C34_34 
REMARK       I    between atoms: C29_29  and  N7_73 
REMARK       I    between atoms: C30_30  and  C31_31 
REMARK       I    between atoms: C31_31  and  C32_32 
REMARK       I    between atoms: C32_32  and  C33_33 
REMARK       I    between atoms: C33_33  and  N8_74 
REMARK       I    between atoms: C34_34  and  N9_75 
REMARK       I    between atoms: C35_35  and  N9_75 
REMARK       I    between atoms: C37_37  and  C42_42 
REMARK       I    between atoms: C38_38  and  O8_63 
REMARK       I    between atoms: C42_42  and  N10_76 
REMARK       I    between atoms: C43_43  and  C44_44 
REMARK       I    between atoms: C43_43  and  C48_48 
REMARK       I    between atoms: C43_43  and  N10_76 
REMARK       I    between atoms: C44_44  and  C45_45 
REMARK       I    between atoms: C45_45  and  C46_46 
REMARK       I    between atoms: C46_46  and  C47_47 
REMARK       I    between atoms: C47_47  and  N11_77 
REMARK       I    between atoms: C48_48  and  N12_78 
REMARK       I    between atoms: C49_49  and  N12_78 
REMARK       I    between atoms: C53_53  and  C55_55 
REMARK       I    between atoms: C55_55  and  N13_79 
ROOT
HETATM    1  C1  UNL     1       5.491  -0.618   6.160  1.00  0.00     0.210 C 
HETATM    2  C2  UNL     1       6.260   0.292   4.083  1.00  0.00     0.084 A 
HETATM    3  C3  UNL     1       6.405   0.172   2.686  1.00  0.00     0.067 A 
HETATM    4  C4  UNL     1       7.188   1.113   1.988  1.00  0.00     0.049 A 
HETATM    5  C5  UNL     1       7.820   2.169   2.649  1.00  0.00     0.035 A 
HETATM    6  C6  UNL     1       7.662   2.286   4.025  1.00  0.00     0.032 A 
HETATM    7  C7  UNL     1       6.890   1.358   4.736  1.00  0.00     0.040 A 
HETATM    8  C8  UNL     1       9.342   4.135   2.286  1.00  0.00     0.255 C 
HETATM    9  C9  UNL     1       9.963   4.891   1.085  1.00  0.00     0.309 C 
HETATM   10  C10 UNL     1       8.953   5.921   0.561  1.00  0.00     0.045 C 
HETATM   11  C11 UNL     1       9.433   6.794  -0.605  1.00  0.00     0.004 C 
HETATM   12  C12 UNL     1      10.731   7.585  -0.396  1.00  0.00     0.030 C 
HETATM   13  C13 UNL     1      10.644   8.710   0.637  1.00  0.00     0.267 C 
HETATM   14  C14 UNL     1       5.786  -0.910   1.851  1.00  0.00     0.255 C 
HETATM   15  C15 UNL     1       4.442  -3.019   1.832  1.00  0.00     0.177 C 
HETATM   16  C16 UNL     1       5.554  -4.016   1.451  1.00  0.00     0.035 C 
HETATM   17  C17 UNL     1       6.253  -4.687   2.642  1.00  0.00     0.004 C 
HETATM   18  C18 UNL     1       7.287  -3.846   3.400  1.00  0.00     0.030 C 
HETATM   19  C19 UNL     1       8.461  -3.322   2.570  1.00  0.00     0.267 C 
HETATM   20  C20 UNL     1       3.457  -2.770   0.650  1.00  0.00     0.245 C 
HETATM   21  C21 UNL     1       1.831  -1.004  -0.098  1.00  0.00     0.035 A 
HETATM   22  C22 UNL     1       1.192  -1.716  -1.114  1.00  0.00     0.049 A 
HETATM   23  C23 UNL     1       0.201  -1.107  -1.904  1.00  0.00     0.067 A 
HETATM   24  C24 UNL     1      -0.178   0.223  -1.651  1.00  0.00     0.084 A 
HETATM   25  C25 UNL     1       0.471   0.939  -0.643  1.00  0.00     0.040 A 
HETATM   26  C26 UNL     1       1.463   0.327   0.129  1.00  0.00     0.032 A 
HETATM   27  C27 UNL     1      -2.089   1.605  -1.722  1.00  0.00     0.210 C 
HETATM   28  C28 UNL     1      -0.447  -1.951  -2.951  1.00  0.00     0.255 C 
HETATM   29  C29 UNL     1      -1.862  -1.980  -4.988  1.00  0.00     0.177 C 
HETATM   30  C30 UNL     1      -1.874  -1.264  -6.344  1.00  0.00     0.035 C 
HETATM   31  C31 UNL     1      -0.515  -1.339  -7.051  1.00  0.00     0.004 C 
HETATM   32  C32 UNL     1      -0.502  -0.654  -8.424  1.00  0.00     0.030 C 
HETATM   33  C33 UNL     1      -0.906  -1.555  -9.594  1.00  0.00     0.267 C 
HETATM   34  C34 UNL     1      -3.277  -2.007  -4.351  1.00  0.00     0.245 C 
HETATM   35  C35 UNL     1      -4.376  -3.015  -2.327  1.00  0.00     0.035 A 
HETATM   36  C36 UNL     1      -5.533  -2.239  -2.310  1.00  0.00     0.049 A 
HETATM   37  C37 UNL     1      -6.510  -2.415  -1.310  1.00  0.00     0.067 A 
HETATM   38  C38 UNL     1      -6.331  -3.402  -0.318  1.00  0.00     0.084 A 
HETATM   39  C39 UNL     1      -5.170  -4.183  -0.348  1.00  0.00     0.040 A 
HETATM   40  C40 UNL     1      -4.201  -3.983  -1.336  1.00  0.00     0.032 A 
HETATM   41  C41 UNL     1      -7.102  -4.497   1.670  1.00  0.00     0.210 C 
HETATM   42  C42 UNL     1      -7.671  -1.469  -1.356  1.00  0.00     0.255 C 
HETATM   43  C43 UNL     1      -9.909  -0.841  -0.451  1.00  0.00     0.177 C 
HETATM   44  C44 UNL     1     -11.202  -1.609  -0.126  1.00  0.00     0.035 C 
HETATM   45  C45 UNL     1     -11.137  -2.481   1.137  1.00  0.00     0.004 C 
HETATM   46  C46 UNL     1     -12.509  -3.081   1.464  1.00  0.00     0.030 C 
HETATM   47  C47 UNL     1     -12.482  -4.037   2.659  1.00  0.00     0.267 C 
HETATM   48  C48 UNL     1      -9.627   0.315   0.555  1.00  0.00     0.245 C 
HETATM   49  C49 UNL     1      -7.893   2.098   0.937  1.00  0.00     0.035 A 
HETATM   50  C50 UNL     1      -8.418   2.647   2.108  1.00  0.00     0.029 A 
HETATM   51  C51 UNL     1      -7.771   3.709   2.749  1.00  0.00     0.003 A 
HETATM   52  C52 UNL     1      -6.593   4.234   2.222  1.00  0.00     0.017 A 
HETATM   53  C53 UNL     1      -6.060   3.696   1.046  1.00  0.00     0.034 A 
HETATM   54  C54 UNL     1      -6.706   2.626   0.412  1.00  0.00     0.046 A 
HETATM   55  C55 UNL     1      -4.799   4.214   0.457  1.00  0.00     0.249 C 
HETATM   56  O1  UNL     1       5.497  -0.644   4.735  1.00  0.00    -0.355 OA
HETATM   57  O2  UNL     1       9.517   4.505   3.443  1.00  0.00    -0.271 OA
HETATM   58  O3  UNL     1       6.039  -0.987   0.653  1.00  0.00    -0.268 OA
HETATM   59  O4  UNL     1       3.185  -3.654  -0.158  1.00  0.00    -0.271 OA
HETATM   60  O5  UNL     1      -1.149   0.795  -2.433  1.00  0.00    -0.355 OA
HETATM   61  O6  UNL     1      -0.549  -3.167  -2.806  1.00  0.00    -0.268 OA
HETATM   62  O7  UNL     1      -4.201  -1.318  -4.774  1.00  0.00    -0.271 OA
HETATM   63  O8  UNL     1      -7.303  -3.532   0.642  1.00  0.00    -0.355 OA
HETATM   64  O9  UNL     1      -7.619  -0.434  -2.017  1.00  0.00    -0.268 OA
HETATM   65  O10 UNL     1     -10.402   0.584   1.469  1.00  0.00    -0.271 OA
HETATM   66  O11 UNL     1      -4.062   3.510  -0.220  1.00  0.00    -0.268 OA
HETATM   67  N1  UNL     1       8.575   3.059   1.870  1.00  0.00    -0.325 N 
HETATM   68  N2  UNL     1      10.613   8.205   2.001  1.00  0.00     0.078 N 
HETATM   69  N3  UNL     1      10.320   3.908   0.027  1.00  0.00     0.092 N 
HETATM   70  N4  UNL     1       4.918  -1.785   2.465  1.00  0.00    -0.344 N 
HETATM   71  N5  UNL     1       9.260  -4.403   2.005  1.00  0.00     0.078 N 
HETATM   72  N6  UNL     1       2.832  -1.536   0.733  1.00  0.00    -0.325 N 
HETATM   73  N7  UNL     1      -0.975  -1.300  -4.044  1.00  0.00    -0.344 N 
HETATM   74  N8  UNL     1      -2.291  -1.994  -9.524  1.00  0.00     0.078 N 
HETATM   75  N9  UNL     1      -3.336  -2.864  -3.260  1.00  0.00    -0.325 N 
HETATM   76  N10 UNL     1      -8.768  -1.749  -0.577  1.00  0.00    -0.344 N 
HETATM   77  N11 UNL     1     -12.166  -3.372   3.918  1.00  0.00     0.078 N 
HETATM   78  N12 UNL     1      -8.478   1.026   0.240  1.00  0.00    -0.325 N 
HETATM   79  N13 UNL     1      -4.508   5.533   0.673  1.00  0.00    -0.366 N 
HETATM   80  H59 UNL     1       8.648   2.884   0.868  1.00  0.00     0.169 HD
HETATM   81  H60 UNL     1      10.520   8.985   2.652  1.00  0.00     0.312 HD
HETATM   82  H61 UNL     1      11.499   7.757   2.230  1.00  0.00     0.312 HD
HETATM   83  H62 UNL     1      11.053   3.300   0.400  1.00  0.00     0.313 HD
HETATM   84  H63 UNL     1      10.763   4.411  -0.743  1.00  0.00     0.313 HD
HETATM   85  H64 UNL     1       4.869  -1.736   3.479  1.00  0.00     0.163 HD
HETATM   86  H65 UNL     1       8.705  -4.912   1.318  1.00  0.00     0.312 HD
HETATM   87  H66 UNL     1      10.038  -4.002   1.481  1.00  0.00     0.312 HD
HETATM   88  H67 UNL     1       3.240  -0.914   1.421  1.00  0.00     0.169 HD
HETATM   89  H68 UNL     1      -1.088  -0.293  -3.952  1.00  0.00     0.163 HD
HETATM   90  H69 UNL     1      -2.910  -1.185  -9.493  1.00  0.00     0.312 HD
HETATM   91  H70 UNL     1      -2.530  -2.507 -10.371  1.00  0.00     0.312 HD
HETATM   92  H71 UNL     1      -2.477  -3.386  -3.072  1.00  0.00     0.169 HD
HETATM   93  H72 UNL     1      -8.642  -2.470   0.126  1.00  0.00     0.163 HD
HETATM   94  H73 UNL     1     -12.821  -2.603   4.067  1.00  0.00     0.312 HD
HETATM   95  H74 UNL     1     -11.247  -2.935   3.862  1.00  0.00     0.312 HD
HETATM   96  H75 UNL     1      -8.010   0.737  -0.622  1.00  0.00     0.169 HD
HETATM   97  H76 UNL     1      -3.730   5.906   0.143  1.00  0.00     0.159 HD
HETATM   98  H77 UNL     1      -5.222   6.188   0.963  1.00  0.00     0.159 HD
ENDROOT
TORSDOF 39
