REMARK  11 active torsions:
REMARK  status: ('A' for Active; 'I' for Inactive)
REMARK    1  A    between atoms: C2_2  and  C3_3 
REMARK    2  A    between atoms: C4_4  and  C5_5 
REMARK       I    between atoms: C4_4  and  N2_42 
REMARK    3  A    between atoms: C5_5  and  C6_6 
REMARK    4  A    between atoms: C6_6  and  C7_7 
REMARK       I    between atoms: C7_7  and  N3_43 
REMARK    5  A    between atoms: C8_8  and  N3_43 
REMARK    6  A    between atoms: C14_14  and  C16_16 
REMARK       I    between atoms: C16_16  and  N5_45 
REMARK    7  A    between atoms: C17_17  and  N5_45 
REMARK    8  A    between atoms: C23_23  and  C25_25 
REMARK       I    between atoms: C25_25  and  N7_47 
REMARK    9  A    between atoms: C27_27  and  C38_38 
REMARK   10  A    between atoms: C31_31  and  O5_52 
REMARK   11  A    between atoms: N1_40  and  N2_42 
ROOT
HETATM    1  C16 UNL     1      -0.329  -0.681   0.074  1.00  0.00     0.272 C 
HETATM    2  N5  UNL     1      -0.780   0.084  -0.983  1.00  0.00    -0.322 N 
HETATM    3  O3  UNL     1      -1.040  -1.256   0.892  1.00  0.00    -0.266 OA
HETATM    4  H34 UNL     1      -0.073   0.497  -1.572  1.00  0.00     0.169 HD
ENDROOT
BRANCH   2   5
HETATM    5  C17 UNL     1      -2.115   0.365  -1.347  1.00  0.00     0.035 A 
HETATM    6  C18 UNL     1      -3.231  -0.120  -0.654  1.00  0.00     0.043 A 
HETATM    7  C19 UNL     1      -4.529   0.219  -1.091  1.00  0.00    -0.005 A 
HETATM    8  C20 UNL     1      -4.674   1.026  -2.213  1.00  0.00     0.043 A 
HETATM    9  C24 UNL     1      -5.840  -0.101  -0.635  1.00  0.00     0.049 A 
HETATM   10  C21 UNL     1      -3.584   1.523  -2.928  1.00  0.00     0.033 A 
HETATM   11  N6  UNL     1      -6.022   1.177  -2.424  1.00  0.00    -0.351 N 
HETATM   12  C22 UNL     1      -2.305   1.179  -2.471  1.00  0.00     0.032 A 
HETATM   13  C23 UNL     1      -6.762   0.537  -1.448  1.00  0.00     0.102 A 
HETATM   14  H35 UNL     1      -6.441   1.690  -3.189  1.00  0.00     0.166 HD
BRANCH  13  15
HETATM   15  C25 UNL     1      -8.216   0.580  -1.489  1.00  0.00     0.275 C 
HETATM   16  N7  UNL     1      -8.933   0.410  -0.309  1.00  0.00    -0.311 N 
HETATM   17  C26 UNL     1      -8.399   0.377   1.063  1.00  0.00     0.143 C 
HETATM   18  C29 UNL     1     -10.337   0.274  -0.223  1.00  0.00     0.048 A 
HETATM   19  C27 UNL     1      -9.585   0.613   2.017  1.00  0.00     0.054 C 
HETATM   20  C28 UNL     1     -10.755   0.309   1.113  1.00  0.00    -0.013 A 
HETATM   21  C37 UNL     1     -12.104   0.130   1.470  1.00  0.00    -0.014 A 
HETATM   22  C32 UNL     1     -13.045  -0.053   0.427  1.00  0.00     0.008 A 
HETATM   23  C36 UNL     1     -12.554   0.121   2.807  1.00  0.00     0.013 A 
HETATM   24  C31 UNL     1     -12.595  -0.058  -0.916  1.00  0.00     0.079 A 
HETATM   25  C33 UNL     1     -14.403  -0.224   0.764  1.00  0.00     0.015 A 
HETATM   26  C30 UNL     1     -11.248   0.099  -1.248  1.00  0.00     0.067 A 
HETATM   27  C34 UNL     1     -14.829  -0.222   2.093  1.00  0.00     0.001 A 
HETATM   28  C35 UNL     1     -13.904  -0.052   3.114  1.00  0.00     0.001 A 
HETATM   29  O4  UNL     1      -8.764   0.818  -2.566  1.00  0.00    -0.265 OA
BRANCH  19  30
HETATM   30  C38 UNL     1      -9.632   2.057   2.523  1.00  0.00     0.125 C 
HETATM   31 CL1  UNL     1      -8.307   2.373   3.675  1.00  0.00    -0.130 Cl
ENDBRANCH  19  30
BRANCH  24  32
HETATM   32  O5  UNL     1     -13.513  -0.232  -1.923  1.00  0.00    -0.360 OA
HETATM   33  H36 UNL     1     -13.051  -0.190  -2.777  1.00  0.00     0.217 HD
ENDBRANCH  24  32
ENDBRANCH  13  15
ENDBRANCH   2   5
BRANCH   1  34
HETATM   34  C14 UNL     1       1.118  -0.776   0.174  1.00  0.00     0.102 A 
HETATM   35  C15 UNL     1       2.159  -0.254  -0.579  1.00  0.00     0.049 A 
HETATM   36  C10 UNL     1       3.390  -0.684  -0.006  1.00  0.00    -0.005 A 
HETATM   37  C9  UNL     1       4.748  -0.477  -0.325  1.00  0.00     0.043 A 
HETATM   38  C11 UNL     1       3.076  -1.469   1.097  1.00  0.00     0.043 A 
HETATM   39  C8  UNL     1       5.754  -1.060   0.465  1.00  0.00     0.035 A 
HETATM   40  C13 UNL     1       5.395  -1.841   1.564  1.00  0.00     0.032 A 
HETATM   41  C12 UNL     1       4.052  -2.061   1.901  1.00  0.00     0.033 A 
HETATM   42  N4  UNL     1       1.707  -1.510   1.184  1.00  0.00    -0.351 N 
HETATM   43  H33 UNL     1       1.178  -2.007   1.890  1.00  0.00     0.166 HD
BRANCH  39  44
HETATM   44  N3  UNL     1       7.088  -0.806   0.082  1.00  0.00    -0.327 N 
HETATM   45  C7  UNL     1       8.247  -1.264   0.689  1.00  0.00     0.222 C 
HETATM   46  O2  UNL     1       8.325  -1.981   1.679  1.00  0.00    -0.273 OA
HETATM   47  H32 UNL     1       7.209  -0.222  -0.736  1.00  0.00     0.169 HD
BRANCH  45  48
HETATM   48  C6  UNL     1       9.483  -0.761  -0.033  1.00  0.00     0.112 C 
BRANCH  48  49
HETATM   49  C5  UNL     1      10.763  -1.267   0.621  1.00  0.00     0.114 C 
BRANCH  49  50
HETATM   50  C4  UNL     1      11.991  -0.762  -0.104  1.00  0.00     0.236 C 
HETATM   51  N2  UNL     1      13.168  -1.206   0.504  1.00  0.00    -0.270 N 
HETATM   52  H31 UNL     1      13.080  -2.089   1.001  1.00  0.00     0.190 HD
HETATM   53  O1  UNL     1      11.927  -0.040  -1.095  1.00  0.00    -0.272 OA
BRANCH  51  54
HETATM   54  N1  UNL     1      14.367  -1.098  -0.150  1.00  0.00    -0.307 N 
HETATM   55  C3  UNL     1      14.856   0.090  -0.368  1.00  0.00    -0.001 C 
HETATM   56  C39 UNL     1      14.283   1.392   0.144  1.00  0.00     0.065 C 
ATOM     57  H1  UNL     1      14.867  -1.931  -0.460  1.00  0.00     0.186 HD
BRANCH  55  58
HETATM   58  C2  UNL     1      16.104   0.178  -1.228  1.00  0.00     0.049 C 
HETATM   59  C1  UNL     1      15.745   0.579  -2.647  1.00  0.00     0.011 C 
ENDBRANCH  55  58
ENDBRANCH  51  54
ENDBRANCH  49  50
ENDBRANCH  48  49
ENDBRANCH  45  48
ENDBRANCH  39  44
ENDBRANCH   1  34
TORSDOF 11
