REMARK  0 active torsions:
REMARK  status: ('A' for Active; 'I' for Inactive)
REMARK       I    between atoms: C6_6  and  O2_77 
REMARK       I    between atoms: C10_10  and  O12_87 
REMARK       I    between atoms: C11_11  and  O11_86 
REMARK       I    between atoms: C12_12  and  O10_85 
REMARK       I    between atoms: C15_15  and  O9_84 
REMARK       I    between atoms: C16_16  and  O8_83 
REMARK       I    between atoms: C17_17  and  O7_82 
REMARK       I    between atoms: C24_24  and  O48_123 
REMARK       I    between atoms: C25_25  and  O47_122 
REMARK       I    between atoms: C26_26  and  O46_121 
REMARK       I    between atoms: C29_29  and  O45_120 
REMARK       I    between atoms: C30_30  and  O44_119 
REMARK       I    between atoms: C31_31  and  O17_92 
REMARK       I    between atoms: C35_35  and  O17_92 
REMARK       I    between atoms: C36_36  and  O43_118 
REMARK       I    between atoms: C37_37  and  O42_117 
REMARK       I    between atoms: C38_38  and  O41_116 
REMARK       I    between atoms: C40_40  and  C41_41 
REMARK       I    between atoms: C41_41  and  O19_94 
REMARK       I    between atoms: C42_42  and  O19_94 
REMARK       I    between atoms: C43_43  and  O36_111 
REMARK       I    between atoms: C44_44  and  O31_106 
REMARK       I    between atoms: C51_51  and  O30_105 
REMARK       I    between atoms: C52_52  and  O29_104 
REMARK       I    between atoms: C53_53  and  O28_103 
REMARK       I    between atoms: C56_56  and  O27_102 
REMARK       I    between atoms: C57_57  and  O26_101 
REMARK       I    between atoms: C58_58  and  O25_100 
REMARK       I    between atoms: C62_62  and  C63_63 
REMARK       I    between atoms: C62_62  and  O31_106 
REMARK       I    between atoms: C65_65  and  O35_110 
REMARK       I    between atoms: C66_66  and  O34_109 
REMARK       I    between atoms: C67_67  and  O33_108 
REMARK       I    between atoms: C69_69  and  C70_70 
REMARK       I    between atoms: C69_69  and  O36_111 
REMARK       I    between atoms: C72_72  and  O40_115 
REMARK       I    between atoms: C73_73  and  O39_114 
REMARK       I    between atoms: C74_74  and  O38_113 
ROOT
HETATM    1  C1  UNL     1       4.500  -3.391  -0.124  1.00  0.00     0.213 C 
HETATM    2  C2  UNL     1       4.356  -2.004  -0.784  1.00  0.00     0.181 C 
HETATM    3  C3  UNL     1       3.830  -0.904   0.154  1.00  0.00     0.195 C 
HETATM    4  C4  UNL     1       3.877   0.449  -0.576  1.00  0.00     0.198 C 
HETATM    5  C5  UNL     1       3.110   0.318  -1.911  1.00  0.00     0.219 C 
HETATM    6  C6  UNL     1       3.517  -0.924  -2.729  1.00  0.00     0.289 C 
HETATM    7  C7  UNL     1       4.221   2.229  -2.871  1.00  0.00     0.295 C 
HETATM    8  C8  UNL     1       3.857   3.656  -2.944  1.00  0.00     0.056 A 
HETATM    9  C9  UNL     1       2.925   4.056  -3.920  1.00  0.00     0.058 A 
HETATM   10  C10 UNL     1       2.572   5.392  -4.004  1.00  0.00     0.102 A 
HETATM   11  C11 UNL     1       3.162   6.318  -3.156  1.00  0.00     0.133 A 
HETATM   12  C12 UNL     1       4.079   5.915  -2.185  1.00  0.00     0.114 A 
HETATM   13  C13 UNL     1       4.429   4.568  -2.019  1.00  0.00     0.030 A 
HETATM   14  C14 UNL     1       5.300   4.120  -0.893  1.00  0.00     0.030 A 
HETATM   15  C15 UNL     1       6.635   4.548  -0.768  1.00  0.00     0.114 A 
HETATM   16  C16 UNL     1       7.475   4.034   0.224  1.00  0.00     0.133 A 
HETATM   17  C17 UNL     1       7.001   3.125   1.156  1.00  0.00     0.102 A 
HETATM   18  C18 UNL     1       5.682   2.721   1.115  1.00  0.00     0.058 A 
HETATM   19  C19 UNL     1       4.846   3.197   0.089  1.00  0.00     0.056 A 
HETATM   20  C20 UNL     1       3.431   2.772   0.149  1.00  0.00     0.294 C 
HETATM   21  C21 UNL     1       3.955  -0.823   2.511  1.00  0.00     0.294 C 
HETATM   22  C22 UNL     1       4.874  -1.222   3.594  1.00  0.00     0.056 A 
HETATM   23  C23 UNL     1       6.059  -0.479   3.748  1.00  0.00     0.058 A 
HETATM   24  C24 UNL     1       6.942  -0.796   4.770  1.00  0.00     0.102 A 
HETATM   25  C25 UNL     1       6.655  -1.857   5.618  1.00  0.00     0.133 A 
HETATM   26  C26 UNL     1       5.486  -2.613   5.449  1.00  0.00     0.114 A 
HETATM   27  C27 UNL     1       4.549  -2.311   4.443  1.00  0.00     0.030 A 
HETATM   28  C28 UNL     1       3.296  -3.102   4.289  1.00  0.00     0.030 A 
HETATM   29  C29 UNL     1       2.293  -3.094   5.276  1.00  0.00     0.114 A 
HETATM   30  C30 UNL     1       1.129  -3.873   5.159  1.00  0.00     0.134 A 
HETATM   31  C31 UNL     1       0.909  -4.663   4.034  1.00  0.00     0.113 A 
HETATM   32  C32 UNL     1       1.878  -4.687   3.032  1.00  0.00     0.058 A 
HETATM   33  C33 UNL     1       3.048  -3.919   3.158  1.00  0.00     0.056 A 
HETATM   34  C34 UNL     1       4.060  -4.052   2.097  1.00  0.00     0.294 C 
HETATM   35  C35 UNL     1      -1.406  -5.088   4.223  1.00  0.00     0.128 A 
HETATM   36  C36 UNL     1      -2.061  -5.825   5.217  1.00  0.00     0.137 A 
HETATM   37  C37 UNL     1      -3.355  -5.498   5.599  1.00  0.00     0.135 A 
HETATM   38  C38 UNL     1      -4.010  -4.431   5.002  1.00  0.00     0.102 A 
HETATM   39  C39 UNL     1      -3.375  -3.672   4.029  1.00  0.00     0.060 A 
HETATM   40  C40 UNL     1      -2.080  -4.022   3.608  1.00  0.00     0.079 A 
HETATM   41  C41 UNL     1      -1.524  -3.353   2.415  1.00  0.00     0.298 C 
HETATM   42  C42 UNL     1      -1.521  -1.314   1.260  1.00  0.00     0.302 C 
HETATM   43  C43 UNL     1      -2.756  -1.315   0.303  1.00  0.00     0.220 C 
HETATM   44  C44 UNL     1      -3.494   0.026   0.463  1.00  0.00     0.198 C 
HETATM   45  C45 UNL     1      -2.551   1.158   0.021  1.00  0.00     0.195 C 
HETATM   46  C46 UNL     1      -1.121   0.920   0.545  1.00  0.00     0.181 C 
HETATM   47  C47 UNL     1      -0.426   2.224   0.954  1.00  0.00     0.213 C 
HETATM   48  C48 UNL     1      -0.144   3.200  -1.221  1.00  0.00     0.294 C 
HETATM   49  C49 UNL     1      -0.542   4.419  -1.965  1.00  0.00     0.056 A 
HETATM   50  C50 UNL     1      -0.279   5.652  -1.331  1.00  0.00     0.058 A 
HETATM   51  C51 UNL     1      -0.670   6.831  -1.936  1.00  0.00     0.102 A 
HETATM   52  C52 UNL     1      -1.312   6.799  -3.161  1.00  0.00     0.133 A 
HETATM   53  C53 UNL     1      -1.554   5.586  -3.811  1.00  0.00     0.114 A 
HETATM   54  C54 UNL     1      -1.173   4.350  -3.240  1.00  0.00     0.030 A 
HETATM   55  C55 UNL     1      -1.432   3.068  -3.958  1.00  0.00     0.030 A 
HETATM   56  C56 UNL     1      -0.821   2.808  -5.200  1.00  0.00     0.114 A 
HETATM   57  C57 UNL     1      -1.043   1.619  -5.897  1.00  0.00     0.133 A 
HETATM   58  C58 UNL     1      -1.879   0.638  -5.388  1.00  0.00     0.102 A 
HETATM   59  C59 UNL     1      -2.507   0.840  -4.173  1.00  0.00     0.058 A 
HETATM   60  C60 UNL     1      -2.281   2.044  -3.466  1.00  0.00     0.056 A 
HETATM   61  C61 UNL     1      -2.923   2.154  -2.143  1.00  0.00     0.294 C 
HETATM   62  C62 UNL     1      -5.848  -0.264   0.200  1.00  0.00     0.294 C 
HETATM   63  C63 UNL     1      -6.947   0.043  -0.742  1.00  0.00     0.045 A 
HETATM   64  C64 UNL     1      -6.889   1.182  -1.566  1.00  0.00     0.057 A 
HETATM   65  C65 UNL     1      -7.941   1.445  -2.434  1.00  0.00     0.102 A 
HETATM   66  C66 UNL     1      -9.036   0.589  -2.484  1.00  0.00     0.132 A 
HETATM   67  C67 UNL     1      -9.093  -0.528  -1.659  1.00  0.00     0.102 A 
HETATM   68  C68 UNL     1      -8.059  -0.810  -0.777  1.00  0.00     0.057 A 
HETATM   69  C69 UNL     1      -4.191  -3.058  -0.471  1.00  0.00     0.294 C 
HETATM   70  C70 UNL     1      -5.030  -4.184   0.013  1.00  0.00     0.045 A 
HETATM   71  C71 UNL     1      -5.588  -4.179   1.300  1.00  0.00     0.057 A 
HETATM   72  C72 UNL     1      -6.320  -5.277   1.731  1.00  0.00     0.102 A 
HETATM   73  C73 UNL     1      -6.538  -6.358   0.879  1.00  0.00     0.132 A 
HETATM   74  C74 UNL     1      -6.013  -6.352  -0.411  1.00  0.00     0.102 A 
HETATM   75  C75 UNL     1      -5.255  -5.267  -0.850  1.00  0.00     0.057 A 
HETATM   76  O1  UNL     1       3.483  -2.105  -1.927  1.00  0.00    -0.349 OA
HETATM   77  O2  UNL     1       4.801  -0.816  -3.306  1.00  0.00    -0.368 OA
HETATM   78  O3  UNL     1       3.077   1.541  -2.682  1.00  0.00    -0.304 OA
HETATM   79  O4  UNL     1       5.363   1.824  -2.786  1.00  0.00    -0.259 OA
HETATM   80  O5  UNL     1       2.537   3.606   0.193  1.00  0.00    -0.259 OA
HETATM   81  O6  UNL     1       3.199   1.439   0.264  1.00  0.00    -0.306 OA
HETATM   82  O7  UNL     1       7.826   2.641   2.131  1.00  0.00    -0.358 OA
HETATM   83  O8  UNL     1       8.781   4.441   0.306  1.00  0.00    -0.356 OA
HETATM   84  O9  UNL     1       7.195   5.502  -1.584  1.00  0.00    -0.357 OA
HETATM   85  O10 UNL     1       4.652   6.884  -1.399  1.00  0.00    -0.357 OA
HETATM   86  O11 UNL     1       2.842   7.646  -3.245  1.00  0.00    -0.356 OA
HETATM   87  O12 UNL     1       1.651   5.841  -4.906  1.00  0.00    -0.358 OA
HETATM   88  O13 UNL     1       4.643  -0.859   1.342  1.00  0.00    -0.307 OA
HETATM   89  O14 UNL     1       2.765  -0.631   2.670  1.00  0.00    -0.259 OA
HETATM   90  O15 UNL     1       5.194  -4.439   2.313  1.00  0.00    -0.259 OA
HETATM   91  O16 UNL     1       3.545  -3.583   0.934  1.00  0.00    -0.315 OA
HETATM   92  O17 UNL     1      -0.154  -5.520   3.851  1.00  0.00    -0.304 OA
HETATM   93  O18 UNL     1      -0.947  -3.936   1.511  1.00  0.00    -0.259 OA
HETATM   94  O19 UNL     1      -1.818  -2.033   2.463  1.00  0.00    -0.283 OA
HETATM   95  O20 UNL     1      -1.143   0.019   1.652  1.00  0.00    -0.348 OA
HETATM   96  O21 UNL     1      -0.632   3.313   0.039  1.00  0.00    -0.315 OA
HETATM   97  O22 UNL     1       0.395   2.227  -1.717  1.00  0.00    -0.259 OA
HETATM   98  O23 UNL     1      -3.664   3.045  -1.781  1.00  0.00    -0.259 OA
HETATM   99  O24 UNL     1      -2.427   1.126  -1.423  1.00  0.00    -0.307 OA
HETATM  100  O25 UNL     1      -2.046  -0.501  -6.119  1.00  0.00    -0.358 OA
HETATM  101  O26 UNL     1      -0.419   1.447  -7.104  1.00  0.00    -0.356 OA
HETATM  102  O27 UNL     1       0.004   3.736  -5.797  1.00  0.00    -0.357 OA
HETATM  103  O28 UNL     1      -2.180   5.709  -5.031  1.00  0.00    -0.357 OA
HETATM  104  O29 UNL     1      -1.691   7.982  -3.738  1.00  0.00    -0.356 OA
HETATM  105  O30 UNL     1      -0.424   8.021  -1.320  1.00  0.00    -0.358 OA
HETATM  106  O31 UNL     1      -4.678   0.121  -0.358  1.00  0.00    -0.306 OA
HETATM  107  O32 UNL     1      -5.996  -0.803   1.282  1.00  0.00    -0.259 OA
HETATM  108  O33 UNL     1     -10.173  -1.359  -1.709  1.00  0.00    -0.358 OA
HETATM  109  O34 UNL     1     -10.075   0.839  -3.339  1.00  0.00    -0.356 OA
HETATM  110  O35 UNL     1      -7.943   2.539  -3.254  1.00  0.00    -0.358 OA
HETATM  111  O36 UNL     1      -3.626  -2.430   0.586  1.00  0.00    -0.304 OA
HETATM  112  O37 UNL     1      -4.024  -2.786  -1.649  1.00  0.00    -0.259 OA
HETATM  113  O38 UNL     1      -6.238  -7.418  -1.235  1.00  0.00    -0.358 OA
HETATM  114  O39 UNL     1      -7.272  -7.421   1.332  1.00  0.00    -0.356 OA
HETATM  115  O40 UNL     1      -6.842  -5.341   2.995  1.00  0.00    -0.358 OA
HETATM  116  O41 UNL     1      -5.307  -4.152   5.327  1.00  0.00    -0.358 OA
HETATM  117  O42 UNL     1      -4.010  -6.226   6.554  1.00  0.00    -0.356 OA
HETATM  118  O43 UNL     1      -1.465  -6.891   5.841  1.00  0.00    -0.356 OA
HETATM  119  O44 UNL     1       0.243  -3.861   6.202  1.00  0.00    -0.356 OA
HETATM  120  O45 UNL     1       2.380  -2.359   6.436  1.00  0.00    -0.357 OA
HETATM  121  O46 UNL     1       5.324  -3.651   6.338  1.00  0.00    -0.357 OA
HETATM  122  O47 UNL     1       7.514  -2.185   6.632  1.00  0.00    -0.356 OA
HETATM  123  O48 UNL     1       8.084  -0.070   4.943  1.00  0.00    -0.358 OA
HETATM  124  H26 UNL     1       4.813  -1.420  -4.066  1.00  0.00     0.212 HD
HETATM  125  H27 UNL     1       8.681   3.091   1.961  1.00  0.00     0.217 HD
HETATM  126  H28 UNL     1       8.885   5.056  -0.451  1.00  0.00     0.218 HD
HETATM  127  H29 UNL     1       6.474   6.127  -1.806  1.00  0.00     0.217 HD
HETATM  128  H30 UNL     1       4.141   7.698  -1.602  1.00  0.00     0.217 HD
HETATM  129  H31 UNL     1       2.135   7.683  -3.924  1.00  0.00     0.218 HD
HETATM  130  H32 UNL     1       1.120   5.077  -5.213  1.00  0.00     0.217 HD
HETATM  131  H33 UNL     1      -2.622  -1.114  -5.624  1.00  0.00     0.217 HD
HETATM  132  H34 UNL     1      -0.710   0.560  -7.407  1.00  0.00     0.218 HD
HETATM  133  H35 UNL     1       0.272   3.303  -6.642  1.00  0.00     0.217 HD
HETATM  134  H36 UNL     1      -2.033   4.893  -5.539  1.00  0.00     0.217 HD
HETATM  135  H37 UNL     1      -2.142   7.712  -4.565  1.00  0.00     0.218 HD
HETATM  136  H38 UNL     1      -0.810   8.698  -1.913  1.00  0.00     0.217 HD
HETATM  137  H39 UNL     1     -10.766  -0.962  -2.379  1.00  0.00     0.217 HD
HETATM  138  H40 UNL     1      -9.823   1.670  -3.792  1.00  0.00     0.218 HD
HETATM  139  H41 UNL     1      -7.162   3.084  -3.042  1.00  0.00     0.217 HD
HETATM  140  H42 UNL     1      -5.849  -7.245  -2.105  1.00  0.00     0.217 HD
HETATM  141  H43 UNL     1      -7.533  -7.172   2.240  1.00  0.00     0.218 HD
HETATM  142  H44 UNL     1      -6.447  -4.630   3.540  1.00  0.00     0.217 HD
HETATM  143  H45 UNL     1      -5.508  -4.766   6.066  1.00  0.00     0.217 HD
HETATM  144  H46 UNL     1      -3.365  -6.917   6.815  1.00  0.00     0.218 HD
HETATM  145  H47 UNL     1      -0.542  -6.908   5.520  1.00  0.00     0.218 HD
HETATM  146  H48 UNL     1       0.605  -3.211   6.840  1.00  0.00     0.218 HD
HETATM  147  H49 UNL     1       3.140  -1.751   6.391  1.00  0.00     0.217 HD
HETATM  148  H50 UNL     1       4.679  -4.286   5.980  1.00  0.00     0.217 HD
HETATM  149  H51 UNL     1       7.120  -2.968   7.063  1.00  0.00     0.218 HD
HETATM  150  H52 UNL     1       8.139   0.627   4.267  1.00  0.00     0.217 HD
ENDROOT
TORSDOF 38
