REMARK  18 active torsions:
REMARK  status: ('A' for Active; 'I' for Inactive)
REMARK    1  A    between atoms: C3_3  and  C35_35 
REMARK    2  A    between atoms: C5_5  and  N2_47 
REMARK    3  A    between atoms: C6_6  and  C7_7 
REMARK       I    between atoms: C6_6  and  N2_47 
REMARK    4  A    between atoms: C9_9  and  N4_49 
REMARK       I    between atoms: C11_11  and  N4_49 
REMARK       I    between atoms: C11_11  and  N5_50 
REMARK    5  A    between atoms: C12_12  and  N5_50 
REMARK    6  A    between atoms: C14_14  and  C17_17 
REMARK       I    between atoms: C17_17  and  N7_52 
REMARK    7  A    between atoms: C18_18  and  N7_52 
REMARK    8  A    between atoms: C20_20  and  C23_23 
REMARK       I    between atoms: C23_23  and  N9_54 
REMARK    9  A    between atoms: C24_24  and  N9_54 
REMARK   10  A    between atoms: C29_29  and  S2_74 
REMARK   11  A    between atoms: C31_31  and  S1_73 
REMARK       I    between atoms: C35_35  and  N10_55 
REMARK   12  A    between atoms: C36_36  and  N10_55 
REMARK   13  A    between atoms: C41_41  and  S4_76 
REMARK   14  A    between atoms: C43_43  and  S3_75 
REMARK   15  A    between atoms: O7_62  and  S1_73 
REMARK   16  A    between atoms: O10_65  and  S2_74 
REMARK   17  A    between atoms: O14_69  and  S3_75 
REMARK   18  A    between atoms: O17_72  and  S4_76 
ROOT
HETATM    1  C11 UNL     1      -0.072   1.905   1.953  1.00  0.00     0.327 C 
HETATM    2  N4  UNL     1      -0.765   1.134   1.024  1.00  0.00    -0.294 N 
HETATM    3  N5  UNL     1       1.295   1.692   1.825  1.00  0.00    -0.294 N 
HETATM    4  O2  UNL     1      -0.601   2.648   2.768  1.00  0.00    -0.247 OA
HETATM    5  H32 UNL     1      -0.325   0.264   0.764  1.00  0.00     0.172 HD
HETATM    6  H33 UNL     1       1.570   0.861   1.324  1.00  0.00     0.172 HD
ENDROOT
BRANCH   2   7
HETATM    7  C9  UNL     1      -2.135   1.196   0.813  1.00  0.00     0.111 A 
HETATM    8  C10 UNL     1      -2.921   0.146   0.369  1.00  0.00     0.067 A 
HETATM    9  C7  UNL     1      -4.277   0.580   0.294  1.00  0.00     0.051 A 
HETATM   10  C8  UNL     1      -4.252   1.918   0.643  1.00  0.00     0.109 A 
HETATM   11  N3  UNL     1      -2.959   2.294   0.926  1.00  0.00    -0.346 N 
HETATM   12  C34 UNL     1      -2.596   3.680   1.134  1.00  0.00     0.157 C 
BRANCH   9  13
HETATM   13  C6  UNL     1      -5.493  -0.145  -0.093  1.00  0.00     0.258 C 
HETATM   14  N2  UNL     1      -5.353  -1.526  -0.032  1.00  0.00    -0.309 N 
HETATM   15  H31 UNL     1      -4.502  -1.895   0.363  1.00  0.00     0.170 HD
HETATM   16  O1  UNL     1      -6.515   0.461  -0.407  1.00  0.00    -0.267 OA
BRANCH  14  17
HETATM   17  C5  UNL     1      -6.357  -2.411  -0.389  1.00  0.00     0.110 A 
HETATM   18  C4  UNL     1      -7.594  -2.180  -0.953  1.00  0.00     0.067 A 
HETATM   19  C3  UNL     1      -8.283  -3.423  -1.103  1.00  0.00     0.051 A 
HETATM   20  C2  UNL     1      -7.397  -4.388  -0.654  1.00  0.00     0.109 A 
HETATM   21  N1  UNL     1      -6.247  -3.774  -0.226  1.00  0.00    -0.346 N 
HETATM   22  C1  UNL     1      -5.111  -4.483   0.322  1.00  0.00     0.157 C 
BRANCH  19  23
HETATM   23  C35 UNL     1      -9.632  -3.693  -1.627  1.00  0.00     0.257 C 
HETATM   24  N10 UNL     1     -10.383  -2.542  -1.763  1.00  0.00    -0.322 N 
HETATM   25  H36 UNL     1      -9.934  -1.721  -1.403  1.00  0.00     0.169 HD
HETATM   26  O11 UNL     1      -9.994  -4.834  -1.886  1.00  0.00    -0.267 OA
BRANCH  24  27
HETATM   27  C36 UNL     1     -11.695  -2.362  -2.268  1.00  0.00     0.046 A 
HETATM   28  C37 UNL     1     -12.466  -3.453  -2.669  1.00  0.00     0.030 A 
HETATM   29  C38 UNL     1     -13.759  -3.264  -3.135  1.00  0.00     0.003 A 
HETATM   30  C39 UNL     1     -14.298  -1.982  -3.204  1.00  0.00     0.014 A 
HETATM   31  C40 UNL     1     -13.566  -0.833  -2.819  1.00  0.00    -0.000 A 
HETATM   32  C41 UNL     1     -14.082   0.500  -2.878  1.00  0.00     0.085 A 
HETATM   33  C45 UNL     1     -12.230  -1.030  -2.358  1.00  0.00     0.004 A 
HETATM   34  C42 UNL     1     -13.310   1.614  -2.522  1.00  0.00     0.051 A 
HETATM   35  C43 UNL     1     -12.005   1.415  -2.105  1.00  0.00     0.074 A 
HETATM   36  C44 UNL     1     -11.478   0.126  -2.018  1.00  0.00     0.040 A 
BRANCH  32  37
HETATM   37  S4  UNL     1     -15.759   0.826  -3.394  1.00  0.00     0.130 S 
HETATM   38  O15 UNL     1     -16.089   2.191  -3.042  1.00  0.00    -0.598 OA
HETATM   39  O16 UNL     1     -15.915   0.337  -4.745  1.00  0.00    -0.598 OA
BRANCH  37  40
HETATM   40  O17 UNL     1     -16.675  -0.071  -2.416  1.00  0.00    -0.292 OA
HETATM   41  H40 UNL     1     -17.299   0.534  -1.961  1.00  0.00     0.232 HD
ENDBRANCH  37  40
ENDBRANCH  32  37
BRANCH  35  42
HETATM   42  S3  UNL     1     -11.001   2.799  -1.626  1.00  0.00     0.129 S 
HETATM   43  O12 UNL     1     -11.860   3.762  -0.976  1.00  0.00    -0.598 OA
HETATM   44  O13 UNL     1     -10.172   3.138  -2.761  1.00  0.00    -0.598 OA
BRANCH  42  45
HETATM   45  O14 UNL     1     -10.001   2.208  -0.504  1.00  0.00    -0.292 OA
HETATM   46  H39 UNL     1      -9.077   2.417  -0.766  1.00  0.00     0.232 HD
ENDBRANCH  42  45
ENDBRANCH  35  42
ENDBRANCH  24  27
ENDBRANCH  19  23
ENDBRANCH  14  17
ENDBRANCH   9  13
ENDBRANCH   2   7
BRANCH   3  47
HETATM   47  C12 UNL     1       2.298   2.303   2.562  1.00  0.00     0.111 A 
HETATM   48  C13 UNL     1       3.570   1.778   2.731  1.00  0.00     0.067 A 
HETATM   49  C14 UNL     1       4.323   2.638   3.583  1.00  0.00     0.051 A 
HETATM   50  C15 UNL     1       3.474   3.688   3.879  1.00  0.00     0.109 A 
HETATM   51  N6  UNL     1       2.279   3.515   3.217  1.00  0.00    -0.346 N 
HETATM   52  C16 UNL     1       1.289   4.568   3.159  1.00  0.00     0.157 C 
BRANCH  49  53
HETATM   53  C17 UNL     1       5.692   2.517   4.100  1.00  0.00     0.258 C 
HETATM   54  N7  UNL     1       6.436   1.545   3.457  1.00  0.00    -0.309 N 
HETATM   55  H34 UNL     1       6.079   1.234   2.564  1.00  0.00     0.170 HD
HETATM   56  O3  UNL     1       6.096   3.264   4.984  1.00  0.00    -0.267 OA
BRANCH  54  57
HETATM   57  C18 UNL     1       7.744   1.186   3.739  1.00  0.00     0.110 A 
HETATM   58  C19 UNL     1       8.592   0.557   2.840  1.00  0.00     0.067 A 
HETATM   59  C20 UNL     1       9.871   0.381   3.446  1.00  0.00     0.051 A 
HETATM   60  C21 UNL     1       9.729   0.864   4.733  1.00  0.00     0.109 A 
HETATM   61  N8  UNL     1       8.441   1.314   4.920  1.00  0.00    -0.346 N 
HETATM   62  C22 UNL     1       7.953   1.686   6.231  1.00  0.00     0.157 C 
BRANCH  59  63
HETATM   63  C23 UNL     1      11.117  -0.196   2.920  1.00  0.00     0.257 C 
HETATM   64  N9  UNL     1      11.106  -0.373   1.547  1.00  0.00    -0.322 N 
HETATM   65  H35 UNL     1      10.290  -0.010   1.090  1.00  0.00     0.169 HD
HETATM   66  O4  UNL     1      12.047  -0.459   3.673  1.00  0.00    -0.267 OA
BRANCH  64  67
HETATM   67  C24 UNL     1      12.110  -0.937   0.712  1.00  0.00     0.046 A 
HETATM   68  C25 UNL     1      13.276  -1.477   1.261  1.00  0.00     0.030 A 
HETATM   69  C26 UNL     1      14.251  -2.040   0.450  1.00  0.00     0.003 A 
HETATM   70  C27 UNL     1      14.076  -2.073  -0.928  1.00  0.00     0.014 A 
HETATM   71  C28 UNL     1      12.922  -1.545  -1.550  1.00  0.00    -0.000 A 
HETATM   72  C29 UNL     1      12.716  -1.569  -2.962  1.00  0.00     0.085 A 
HETATM   73  C33 UNL     1      11.917  -0.967  -0.713  1.00  0.00     0.004 A 
HETATM   74  C30 UNL     1      11.556  -1.059  -3.552  1.00  0.00     0.051 A 
HETATM   75  C31 UNL     1      10.587  -0.497  -2.737  1.00  0.00     0.074 A 
HETATM   76  C32 UNL     1      10.760  -0.448  -1.351  1.00  0.00     0.040 A 
BRANCH  72  77
HETATM   77  S2  UNL     1      13.945  -2.259  -4.051  1.00  0.00     0.130 S 
HETATM   78  O8  UNL     1      15.161  -1.489  -3.906  1.00  0.00    -0.598 OA
HETATM   79  O9  UNL     1      13.918  -3.695  -3.891  1.00  0.00    -0.598 OA
BRANCH  77  80
HETATM   80  O10 UNL     1      13.437  -1.943  -5.551  1.00  0.00    -0.292 OA
HETATM   81  H38 UNL     1      14.233  -1.761  -6.095  1.00  0.00     0.232 HD
ENDBRANCH  77  80
ENDBRANCH  72  77
BRANCH  75  82
HETATM   82  S1  UNL     1       9.096   0.133  -3.459  1.00  0.00     0.129 S 
HETATM   83  O5  UNL     1       9.443   1.311  -4.220  1.00  0.00    -0.598 OA
HETATM   84  O6  UNL     1       8.074   0.157  -2.436  1.00  0.00    -0.598 OA
BRANCH  82  85
HETATM   85  O7  UNL     1       8.659  -0.986  -4.535  1.00  0.00    -0.292 OA
HETATM   86  H37 UNL     1       8.195  -0.534  -5.271  1.00  0.00     0.232 HD
ENDBRANCH  82  85
ENDBRANCH  75  82
ENDBRANCH  64  67
ENDBRANCH  59  63
ENDBRANCH  54  57
ENDBRANCH  49  53
ENDBRANCH   3  47
TORSDOF 18
