REMARK  0 active torsions:
REMARK  status: ('A' for Active; 'I' for Inactive)
REMARK       I    between atoms: C2_2  and  C4_4 
REMARK       I    between atoms: C4_4  and  C5_5 
REMARK       I    between atoms: C5_5  and  C6_6 
REMARK       I    between atoms: C5_5  and  N3_91 
REMARK       I    between atoms: C6_6  and  N1_89 
REMARK       I    between atoms: C7_7  and  C8_8 
REMARK       I    between atoms: C7_7  and  C11_11 
REMARK       I    between atoms: C7_7  and  N1_89 
REMARK       I    between atoms: C8_8  and  C9_9 
REMARK       I    between atoms: C9_9  and  S1_114 
REMARK       I    between atoms: C11_11  and  N2_90 
REMARK       I    between atoms: C12_12  and  C13_13 
REMARK       I    between atoms: C12_12  and  N3_91 
REMARK       I    between atoms: C13_13  and  C14_14 
REMARK       I    between atoms: C13_13  and  N6_95 
REMARK       I    between atoms: C14_14  and  C15_15 
REMARK       I    between atoms: C18_18  and  C19_19 
REMARK       I    between atoms: C18_18  and  N6_95 
REMARK       I    between atoms: C19_19  and  N7_96 
REMARK       I    between atoms: C20_20  and  C21_21 
REMARK       I    between atoms: C20_20  and  N7_96 
REMARK       I    between atoms: C21_21  and  C22_22 
REMARK       I    between atoms: C21_21  and  N8_97 
REMARK       I    between atoms: C25_25  and  C26_26 
REMARK       I    between atoms: C25_25  and  N8_97 
REMARK       I    between atoms: C26_26  and  N9_98 
REMARK       I    between atoms: C28_28  and  C29_29 
REMARK       I    between atoms: C28_28  and  N9_98 
REMARK       I    between atoms: C29_29  and  C30_30 
REMARK       I    between atoms: C29_29  and  N11_100 
REMARK       I    between atoms: C30_30  and  C31_31 
REMARK       I    between atoms: C39_39  and  C40_40 
REMARK       I    between atoms: C39_39  and  N11_100 
REMARK       I    between atoms: C40_40  and  C41_41 
REMARK       I    between atoms: C40_40  and  N13_102 
REMARK       I    between atoms: C41_41  and  C42_42 
REMARK       I    between atoms: C42_42  and  C43_43 
REMARK       I    between atoms: C43_43  and  N12_101 
REMARK       I    between atoms: C44_44  and  C45_45 
REMARK       I    between atoms: C44_44  and  N13_102 
REMARK       I    between atoms: C45_45  and  C46_46 
REMARK       I    between atoms: C45_45  and  N17_107 
REMARK       I    between atoms: C46_46  and  C47_47 
REMARK       I    between atoms: C47_47  and  C48_48 
REMARK       I    between atoms: C48_48  and  N14_103 
REMARK       I    between atoms: C49_49  and  N15_105 
REMARK       I    between atoms: C49_49  and  N16_106 
REMARK       I    between atoms: C50_50  and  C51_51 
REMARK       I    between atoms: C50_50  and  N17_107 
REMARK       I    between atoms: C51_51  and  N18_108 
REMARK       I    between atoms: C52_52  and  C53_53 
REMARK       I    between atoms: C52_52  and  N18_108 
REMARK       I    between atoms: C53_53  and  N19_109 
REMARK       I    between atoms: C54_54  and  C55_55 
REMARK       I    between atoms: C54_54  and  N19_109 
REMARK       I    between atoms: C55_55  and  N20_110 
REMARK       I    between atoms: C64_64  and  C65_65 
REMARK       I    between atoms: C64_64  and  N23_113 
REMARK       I    between atoms: C65_65  and  O15_84 
REMARK       I    between atoms: C66_66  and  C67_67 
REMARK       I    between atoms: C66_66  and  N22_112 
REMARK       I    between atoms: C67_67  and  O17_86 
REMARK       I    between atoms: C68_68  and  C69_69 
REMARK       I    between atoms: C68_68  and  N21_111 
REMARK       I    between atoms: C69_69  and  O19_88 
ROOT
HETATM    1  C1  UNL     1       8.435  -4.417   0.652  1.00  0.00     0.009 C 
HETATM    2  C2  UNL     1       7.816  -3.359  -0.258  1.00  0.00    -0.020 C 
HETATM    3  C3  UNL     1       8.175  -3.638  -1.718  1.00  0.00     0.009 C 
HETATM    4  C4  UNL     1       8.150  -1.910   0.160  1.00  0.00     0.038 C 
HETATM    5  C5  UNL     1       9.637  -1.524   0.147  1.00  0.00     0.177 C 
HETATM    6  C6  UNL     1      10.385  -2.003   1.411  1.00  0.00     0.241 C 
HETATM    7  C7  UNL     1      12.641  -2.538   2.314  1.00  0.00     0.177 C 
HETATM    8  C8  UNL     1      13.926  -3.154   1.744  1.00  0.00     0.045 C 
HETATM    9  C9  UNL     1      14.941  -3.605   2.797  1.00  0.00     0.076 C 
HETATM   10  C10 UNL     1      15.741  -5.183   4.904  1.00  0.00     0.089 C 
HETATM   11  C11 UNL     1      12.934  -1.248   3.105  1.00  0.00     0.238 C 
HETATM   12  C12 UNL     1      10.934   0.546  -0.290  1.00  0.00     0.241 C 
HETATM   13  C13 UNL     1      11.002   2.062  -0.019  1.00  0.00     0.182 C 
HETATM   14  C14 UNL     1      11.529   2.282   1.414  1.00  0.00     0.093 C 
HETATM   15  C15 UNL     1      12.718   3.180   1.461  1.00  0.00     0.028 A 
HETATM   16  C16 UNL     1      14.044   2.953   1.757  1.00  0.00     0.114 A 
HETATM   17  C17 UNL     1      13.904   5.040   1.322  1.00  0.00     0.180 A 
HETATM   18  C18 UNL     1       9.370   3.956  -0.216  1.00  0.00     0.236 C 
HETATM   19  C19 UNL     1       7.959   4.301  -0.713  1.00  0.00     0.225 C 
HETATM   20  C20 UNL     1       7.605   3.226  -2.907  1.00  0.00     0.241 C 
HETATM   21  C21 UNL     1       6.802   2.169  -3.703  1.00  0.00     0.180 C 
HETATM   22  C22 UNL     1       7.273   0.721  -3.419  1.00  0.00     0.009 C 
HETATM   23  C23 UNL     1       6.449  -0.299  -4.215  1.00  0.00     0.012 C 
HETATM   24  C24 UNL     1       8.756   0.540  -3.768  1.00  0.00     0.012 C 
HETATM   25  C25 UNL     1       4.655   2.081  -2.386  1.00  0.00     0.240 C 
HETATM   26  C26 UNL     1       3.158   2.474  -2.409  1.00  0.00     0.172 C 
HETATM   27  C27 UNL     1       2.421   1.736  -3.521  1.00  0.00     0.042 C 
HETATM   28  C28 UNL     1       2.830   2.969  -0.023  1.00  0.00     0.241 C 
HETATM   29  C29 UNL     1       2.134   2.572   1.296  1.00  0.00     0.181 C 
HETATM   30  C30 UNL     1       2.682   1.253   1.896  1.00  0.00     0.075 C 
HETATM   31  C31 UNL     1       2.072  -0.014   1.338  1.00  0.00    -0.028 A 
HETATM   32  C32 UNL     1       0.816  -0.515   1.639  1.00  0.00     0.096 A 
HETATM   33  C33 UNL     1       1.675  -1.868   0.068  1.00  0.00     0.042 A 
HETATM   34  C34 UNL     1       1.875  -2.870  -0.888  1.00  0.00     0.030 A 
HETATM   35  C35 UNL     1       3.119  -2.925  -1.520  1.00  0.00     0.002 A 
HETATM   36  C36 UNL     1       4.124  -2.018  -1.197  1.00  0.00     0.001 A 
HETATM   37  C37 UNL     1       3.906  -1.024  -0.236  1.00  0.00     0.014 A 
HETATM   38  C38 UNL     1       2.652  -0.928   0.399  1.00  0.00    -0.002 A 
HETATM   39  C39 UNL     1      -0.150   3.603   1.053  1.00  0.00     0.241 C 
HETATM   40  C40 UNL     1      -1.592   3.188   0.698  1.00  0.00     0.177 C 
HETATM   41  C41 UNL     1      -2.532   4.343   0.361  1.00  0.00     0.044 C 
HETATM   42  C42 UNL     1      -2.108   5.164  -0.859  1.00  0.00     0.105 C 
HETATM   43  C43 UNL     1      -3.305   5.714  -1.604  1.00  0.00     0.215 C 
HETATM   44  C44 UNL     1      -2.404   1.113  -0.408  1.00  0.00     0.241 C 
HETATM   45  C45 UNL     1      -2.161   0.084  -1.557  1.00  0.00     0.176 C 
HETATM   46  C46 UNL     1      -2.036   0.677  -2.971  1.00  0.00     0.036 C 
HETATM   47  C47 UNL     1      -3.319   0.989  -3.758  1.00  0.00     0.022 C 
HETATM   48  C48 UNL     1      -4.326   1.878  -3.035  1.00  0.00     0.121 C 
HETATM   49  C49 UNL     1      -5.911   1.608  -1.325  1.00  0.00     0.121 C 
HETATM   50  C50 UNL     1      -3.114  -1.899  -0.489  1.00  0.00     0.236 C 
HETATM   51  C51 UNL     1      -4.473  -2.344   0.043  1.00  0.00     0.225 C 
HETATM   52  C52 UNL     1      -6.103  -1.521   1.691  1.00  0.00     0.235 C 
HETATM   53  C53 UNL     1      -6.472  -0.360   2.624  1.00  0.00     0.225 C 
HETATM   54  C54 UNL     1      -8.807   0.369   2.244  1.00  0.00     0.246 C 
HETATM   55  C55 UNL     1     -10.270  -0.034   2.479  1.00  0.00     0.374 C 
HETATM   56  C56 UNL     1     -11.208   0.074   0.198  1.00  0.00     0.303 C 
HETATM   57  C57 UNL     1     -12.538   0.863   0.404  1.00  0.00     0.303 C 
HETATM   58  C58 UNL     1     -14.941   0.377   0.627  1.00  0.00     0.303 C 
HETATM   59  C59 UNL     1     -14.947  -0.145   2.101  1.00  0.00     0.303 C 
HETATM   60  C60 UNL     1     -14.267  -2.485   1.642  1.00  0.00     0.303 C 
HETATM   61  C61 UNL     1     -12.948  -3.274   1.381  1.00  0.00     0.303 C 
HETATM   62  C62 UNL     1     -10.873  -3.037   0.084  1.00  0.00     0.303 C 
HETATM   63  C63 UNL     1     -10.144  -2.010   1.012  1.00  0.00     0.303 C 
HETATM   64  C64 UNL     1     -12.931  -3.878  -0.971  1.00  0.00     0.381 C 
HETATM   65  C65 UNL     1     -12.486  -3.586  -2.398  1.00  0.00     0.169 C 
HETATM   66  C66 UNL     1     -13.897  -1.487   3.875  1.00  0.00     0.381 C 
HETATM   67  C67 UNL     1     -15.163  -1.930   4.603  1.00  0.00     0.169 C 
HETATM   68  C68 UNL     1     -13.885   0.467  -1.585  1.00  0.00     0.381 C 
HETATM   69  C69 UNL     1     -14.781  -0.528  -2.322  1.00  0.00     0.169 C 
HETATM   70  O1  UNL     1       9.858  -2.089   2.519  1.00  0.00    -0.271 OA
HETATM   71  O2  UNL     1      13.912  -0.529   2.922  1.00  0.00    -0.271 OA
HETATM   72  O3  UNL     1      11.880  -0.106  -0.724  1.00  0.00    -0.271 OA
HETATM   73  O4  UNL     1      10.128   4.799   0.255  1.00  0.00    -0.272 OA
HETATM   74  O5  UNL     1       8.443   3.942  -3.451  1.00  0.00    -0.271 OA
HETATM   75  O6  UNL     1       5.209   1.574  -1.410  1.00  0.00    -0.271 OA
HETATM   76  O7  UNL     1       3.642   3.891  -0.088  1.00  0.00    -0.271 OA
HETATM   77  O8  UNL     1       0.182   4.730   1.390  1.00  0.00    -0.271 OA
HETATM   78  O9  UNL     1      -4.381   5.132  -1.701  1.00  0.00    -0.274 OA
HETATM   79  O10 UNL     1      -3.236   0.935   0.486  1.00  0.00    -0.271 OA
HETATM   80  O11 UNL     1      -2.047  -2.262   0.004  1.00  0.00    -0.272 OA
HETATM   81  O12 UNL     1      -6.788  -2.541   1.604  1.00  0.00    -0.272 OA
HETATM   82  O13 UNL     1      -8.481   1.301   1.510  1.00  0.00    -0.272 OA
HETATM   83  O14 UNL     1     -12.326  -4.434  -3.267  1.00  0.00    -0.649 OA
HETATM   84  O15 UNL     1     -12.305  -2.289  -2.712  1.00  0.00    -0.775 OA
HETATM   85  O16 UNL     1     -16.278  -2.139   4.156  1.00  0.00    -0.649 OA
HETATM   86  O17 UNL     1     -14.939  -2.096   5.928  1.00  0.00    -0.775 OA
HETATM   87  O18 UNL     1     -15.415  -1.481  -1.898  1.00  0.00    -0.649 OA
HETATM   88  O19 UNL     1     -14.859  -0.231  -3.644  1.00  0.00    -0.775 OA
HETATM   89  N1  UNL     1      11.738  -2.190   1.213  1.00  0.00    -0.346 N 
HETATM   90  N2  UNL     1      11.965  -0.892   4.001  1.00  0.00    -0.368 N 
HETATM   91  N3  UNL     1       9.764  -0.062   0.138  1.00  0.00    -0.346 N 
HETATM   92  N4  UNL     1      14.770   4.114   1.667  1.00  0.00    -0.360 N 
ATOM     93  H4  UNL     1      15.769   4.233   1.833  1.00  0.00     0.166 HD
HETATM   94  N5  UNL     1      12.648   4.525   1.192  1.00  0.00    -0.354 N 
HETATM   95  N6  UNL     1       9.649   2.604  -0.228  1.00  0.00    -0.346 N 
HETATM   96  N7  UNL     1       7.392   3.250  -1.547  1.00  0.00    -0.351 N 
HETATM   97  N8  UNL     1       5.357   2.395  -3.529  1.00  0.00    -0.346 N 
HETATM   98  N9  UNL     1       2.513   2.195  -1.129  1.00  0.00    -0.346 N 
HETATM   99  N10 UNL     1       0.570  -1.601   0.842  1.00  0.00    -0.365 N 
HETATM  100  N11 UNL     1       0.694   2.515   1.055  1.00  0.00    -0.346 N 
HETATM  101  N12 UNL     1      -3.082   6.890  -2.255  1.00  0.00    -0.370 N 
HETATM  102  N13 UNL     1      -1.540   2.183  -0.374  1.00  0.00    -0.346 N 
HETATM  103  N14 UNL     1      -5.114   1.031  -2.147  1.00  0.00    -0.372 N 
ATOM    104  H14 UNL     1      -5.034   0.015  -2.179  1.00  0.00     0.161 HD
HETATM  105  N15 UNL     1      -6.661   0.841  -0.514  1.00  0.00    -0.279 NA
HETATM  106  N16 UNL     1      -6.157   2.917  -1.111  1.00  0.00    -0.279 NA
HETATM  107  N17 UNL     1      -3.207  -0.923  -1.469  1.00  0.00    -0.346 N 
HETATM  108  N18 UNL     1      -4.922  -1.358   1.011  1.00  0.00    -0.351 N 
HETATM  109  N19 UNL     1      -7.895  -0.417   2.922  1.00  0.00    -0.351 N 
HETATM  110  N20 UNL     1     -10.858  -0.771   1.350  1.00  0.00     0.100 N 
HETATM  111  N21 UNL     1     -13.710   0.161  -0.151  1.00  0.00     0.101 N 
HETATM  112  N22 UNL     1     -14.048  -1.259   2.427  1.00  0.00     0.101 N 
HETATM  113  N23 UNL     1     -12.345  -2.992   0.060  1.00  0.00     0.101 N 
HETATM  114  S1  UNL     1      14.313  -4.983   3.810  1.00  0.00    -0.173 SA
HETATM  115  H86 UNL     1     -12.037  -2.313  -3.651  1.00  0.00     0.167 HD
HETATM  116  H87 UNL     1     -15.813  -2.378   6.271  1.00  0.00     0.167 HD
HETATM  117  H88 UNL     1     -15.457  -0.930  -3.982  1.00  0.00     0.167 HD
HETATM  118  H89 UNL     1      12.145  -1.677   0.427  1.00  0.00     0.163 HD
HETATM  119  H90 UNL     1      11.034  -1.296   3.906  1.00  0.00     0.159 HD
HETATM  120  H91 UNL     1      12.051   0.012   4.446  1.00  0.00     0.159 HD
HETATM  121  H92 UNL     1       9.209   0.456   0.813  1.00  0.00     0.163 HD
HETATM  122  H93 UNL     1      11.809   5.031   0.915  1.00  0.00     0.166 HD
HETATM  123  H94 UNL     1       9.050   2.083  -0.863  1.00  0.00     0.163 HD
HETATM  124  H95 UNL     1       6.603   2.719  -1.176  1.00  0.00     0.163 HD
HETATM  125  H96 UNL     1       4.937   3.056  -4.171  1.00  0.00     0.163 HD
HETATM  126  H97 UNL     1       2.290   1.225  -0.936  1.00  0.00     0.163 HD
HETATM  127  H98 UNL     1      -0.310  -2.111   0.791  1.00  0.00     0.165 HD
HETATM  128  H99 UNL     1       0.321   1.668   0.644  1.00  0.00     0.163 HD
HETATM  129  HA0 UNL     1      -2.315   7.499  -2.003  1.00  0.00     0.159 HD
HETATM  130  HA1 UNL     1      -3.884   7.320  -2.700  1.00  0.00     0.159 HD
HETATM  131  HA2 UNL     1      -0.891   2.341  -1.134  1.00  0.00     0.163 HD
HETATM  132  HA3 UNL     1      -7.516   1.260  -0.144  1.00  0.00     0.126 HD
HETATM  133  HA4 UNL     1      -6.824  -0.088  -0.879  1.00  0.00     0.126 HD
HETATM  134  HA5 UNL     1      -5.496   3.593  -1.498  1.00  0.00     0.126 HD
HETATM  135  HA6 UNL     1      -6.368   3.144  -0.146  1.00  0.00     0.126 HD
HETATM  136  HA7 UNL     1      -4.140  -0.518  -1.603  1.00  0.00     0.163 HD
HETATM  137  HA8 UNL     1      -4.541  -0.410   0.926  1.00  0.00     0.163 HD
HETATM  138  HA9 UNL     1      -8.226  -1.326   3.229  1.00  0.00     0.163 HD
ENDROOT
TORSDOF 50
