REMARK  0 active torsions:
REMARK  status: ('A' for Active; 'I' for Inactive)
REMARK       I    between atoms: C2_2  and  C3_3 
REMARK       I    between atoms: C3_3  and  C5_5 
REMARK       I    between atoms: C5_5  and  C6_6 
REMARK       I    between atoms: C5_5  and  N8_81 
REMARK       I    between atoms: C6_6  and  N1_73 
REMARK       I    between atoms: C7_7  and  C8_8 
REMARK       I    between atoms: C7_7  and  C10_10 
REMARK       I    between atoms: C7_7  and  N1_73 
REMARK       I    between atoms: C8_8  and  C9_9 
REMARK       I    between atoms: C9_9  and  O3_59 
REMARK       I    between atoms: C10_10  and  N2_74 
REMARK       I    between atoms: C11_11  and  C12_12 
REMARK       I    between atoms: C11_11  and  C16_16 
REMARK       I    between atoms: C11_11  and  N2_74 
REMARK       I    between atoms: C12_12  and  C13_13 
REMARK       I    between atoms: C13_13  and  C14_14 
REMARK       I    between atoms: C14_14  and  N3_75 
REMARK       I    between atoms: C15_15  and  N4_77 
REMARK       I    between atoms: C15_15  and  N5_78 
REMARK       I    between atoms: C16_16  and  N6_79 
REMARK       I    between atoms: C17_17  and  C18_18 
REMARK       I    between atoms: C17_17  and  C22_22 
REMARK       I    between atoms: C17_17  and  N6_79 
REMARK       I    between atoms: C18_18  and  C20_20 
REMARK       I    between atoms: C22_22  and  N7_80 
REMARK       I    between atoms: C23_23  and  C24_24 
REMARK       I    between atoms: C23_23  and  C25_25 
REMARK       I    between atoms: C23_23  and  N7_80 
REMARK       I    between atoms: C24_24  and  S1_93 
REMARK       I    between atoms: C26_26  and  C27_27 
REMARK       I    between atoms: C26_26  and  N8_81 
REMARK       I    between atoms: C27_27  and  C28_28 
REMARK       I    between atoms: C27_27  and  N12_86 
REMARK       I    between atoms: C28_28  and  C29_29 
REMARK       I    between atoms: C29_29  and  C30_30 
REMARK       I    between atoms: C30_30  and  N9_82 
REMARK       I    between atoms: C31_31  and  N10_84 
REMARK       I    between atoms: C31_31  and  N11_85 
REMARK       I    between atoms: C32_32  and  C33_33 
REMARK       I    between atoms: C32_32  and  N12_86 
REMARK       I    between atoms: C37_37  and  C38_38 
REMARK       I    between atoms: C37_37  and  N13_87 
REMARK       I    between atoms: C38_38  and  N14_88 
REMARK       I    between atoms: C39_39  and  C40_40 
REMARK       I    between atoms: C39_39  and  N14_88 
REMARK       I    between atoms: C40_40  and  C41_41 
REMARK       I    between atoms: C40_40  and  N15_89 
REMARK       I    between atoms: C41_41  and  C42_42 
REMARK       I    between atoms: C48_48  and  C49_49 
REMARK       I    between atoms: C48_48  and  N15_89 
REMARK       I    between atoms: C49_49  and  C50_50 
REMARK       I    between atoms: C49_49  and  N16_90 
REMARK       I    between atoms: C50_50  and  S2_94 
REMARK       I    between atoms: C51_51  and  C52_52 
REMARK       I    between atoms: C51_51  and  N16_90 
REMARK       I    between atoms: C52_52  and  C53_53 
REMARK       I    between atoms: C52_52  and  N17_91 
REMARK       I    between atoms: C53_53  and  O14_70 
REMARK       I    between atoms: C54_54  and  C55_55 
REMARK       I    between atoms: C54_54  and  N17_91 
REMARK       I    between atoms: C55_55  and  C56_56 
REMARK       I    between atoms: C55_55  and  N18_92 
REMARK       I    between atoms: C56_56  and  O16_72 
ROOT
HETATM    1  C1  UNL     1      -1.691   5.852  -5.498  1.00  0.00     0.005 C 
HETATM    2  C2  UNL     1      -1.004   4.501  -5.655  1.00  0.00     0.002 C 
HETATM    3  C3  UNL     1      -1.949   3.314  -5.968  1.00  0.00     0.013 C 
HETATM    4  C4  UNL     1      -2.605   3.533  -7.342  1.00  0.00     0.012 C 
HETATM    5  C5  UNL     1      -3.012   3.062  -4.868  1.00  0.00     0.180 C 
HETATM    6  C6  UNL     1      -3.770   1.708  -4.996  1.00  0.00     0.241 C 
HETATM    7  C7  UNL     1      -5.122   0.065  -3.707  1.00  0.00     0.186 C 
HETATM    8  C8  UNL     1      -4.070  -0.948  -3.241  1.00  0.00     0.144 C 
HETATM    9  C9  UNL     1      -4.690  -2.293  -3.036  1.00  0.00     0.141 C 
HETATM   10  C10 UNL     1      -6.284   0.216  -2.687  1.00  0.00     0.241 C 
HETATM   11  C11 UNL     1      -8.111  -0.998  -1.568  1.00  0.00     0.176 C 
HETATM   12  C12 UNL     1      -9.455  -1.630  -1.941  1.00  0.00     0.036 C 
HETATM   13  C13 UNL     1      -9.368  -3.033  -2.557  1.00  0.00     0.022 C 
HETATM   14  C14 UNL     1     -10.738  -3.560  -2.988  1.00  0.00     0.121 C 
HETATM   15  C15 UNL     1     -12.735  -4.249  -1.957  1.00  0.00     0.121 C 
HETATM   16  C16 UNL     1      -7.335  -1.850  -0.531  1.00  0.00     0.241 C 
HETATM   17  C17 UNL     1      -6.446  -1.716   1.801  1.00  0.00     0.180 C 
HETATM   18  C18 UNL     1      -6.109  -3.219   1.993  1.00  0.00     0.013 C 
HETATM   19  C19 UNL     1      -5.147  -3.429   3.173  1.00  0.00     0.012 C 
HETATM   20  C20 UNL     1      -7.404  -4.042   2.199  1.00  0.00     0.002 C 
HETATM   21  C21 UNL     1      -7.182  -5.549   2.216  1.00  0.00     0.005 C 
HETATM   22  C22 UNL     1      -5.215  -0.820   1.492  1.00  0.00     0.241 C 
HETATM   23  C23 UNL     1      -3.384   0.535   2.443  1.00  0.00     0.155 C 
HETATM   24  C24 UNL     1      -3.744   1.988   2.106  1.00  0.00     0.103 C 
HETATM   25  C25 UNL     1      -2.540   0.465   3.706  1.00  0.00     0.257 C 
HETATM   26  C26 UNL     1      -1.498   2.403  -2.983  1.00  0.00     0.241 C 
HETATM   27  C27 UNL     1      -1.185   2.622  -1.482  1.00  0.00     0.176 C 
HETATM   28  C28 UNL     1      -0.533   3.977  -1.176  1.00  0.00     0.036 C 
HETATM   29  C29 UNL     1      -1.399   5.238  -1.294  1.00  0.00     0.022 C 
HETATM   30  C30 UNL     1      -2.755   5.164  -0.587  1.00  0.00     0.121 C 
HETATM   31  C31 UNL     1      -4.911   4.348  -1.067  1.00  0.00     0.121 C 
HETATM   32  C32 UNL     1      -0.112   1.082   0.187  1.00  0.00     0.241 C 
HETATM   33  C33 UNL     1       0.983  -0.004   0.329  1.00  0.00     0.179 C 
HETATM   34  C34 UNL     1       0.833  -0.786   1.637  1.00  0.00     0.037 C 
HETATM   35  C35 UNL     1       1.655   0.028   2.630  1.00  0.00     0.022 C 
HETATM   36  C36 UNL     1       2.835   0.491   1.790  1.00  0.00     0.127 C 
HETATM   37  C37 UNL     1       2.960   1.096  -0.676  1.00  0.00     0.238 C 
HETATM   38  C38 UNL     1       4.353   1.730  -0.519  1.00  0.00     0.225 C 
HETATM   39  C39 UNL     1       6.099  -0.016  -0.424  1.00  0.00     0.241 C 
HETATM   40  C40 UNL     1       7.054  -0.825   0.479  1.00  0.00     0.180 C 
HETATM   41  C41 UNL     1       6.299  -2.012   1.101  1.00  0.00     0.073 C 
HETATM   42  C42 UNL     1       7.211  -2.984   1.815  1.00  0.00    -0.056 A 
HETATM   43  C43 UNL     1       8.071  -3.819   1.088  1.00  0.00     0.007 A 
HETATM   44  C44 UNL     1       8.925  -4.702   1.750  1.00  0.00     0.001 A 
HETATM   45  C45 UNL     1       8.923  -4.764   3.141  1.00  0.00     0.000 A 
HETATM   46  C46 UNL     1       8.066  -3.944   3.872  1.00  0.00     0.001 A 
HETATM   47  C47 UNL     1       7.215  -3.056   3.214  1.00  0.00     0.007 A 
HETATM   48  C48 UNL     1       7.308   0.533   2.598  1.00  0.00     0.241 C 
HETATM   49  C49 UNL     1       8.339   1.168   3.558  1.00  0.00     0.185 C 
HETATM   50  C50 UNL     1       8.426   2.662   3.224  1.00  0.00     0.105 C 
HETATM   51  C51 UNL     1       9.998  -0.571   4.199  1.00  0.00     0.243 C 
HETATM   52  C52 UNL     1      11.201  -1.396   3.679  1.00  0.00     0.200 C 
HETATM   53  C53 UNL     1      11.888  -2.079   4.873  1.00  0.00     0.199 C 
HETATM   54  C54 UNL     1      11.964  -0.328   1.552  1.00  0.00     0.253 C 
HETATM   55  C55 UNL     1      13.180   0.319   0.860  1.00  0.00     0.332 C 
HETATM   56  C56 UNL     1      12.846   0.685  -0.594  1.00  0.00     0.209 C 
HETATM   57  O1  UNL     1      -3.858   1.051  -6.028  1.00  0.00    -0.271 OA
HETATM   58  O2  UNL     1      -5.597  -2.760  -3.710  1.00  0.00    -0.650 OA
HETATM   59  O3  UNL     1      -4.235  -2.910  -1.932  1.00  0.00    -0.776 OA
HETATM   60  O4  UNL     1      -6.354   1.162  -1.898  1.00  0.00    -0.271 OA
HETATM   61  O5  UNL     1      -6.660  -2.828  -0.856  1.00  0.00    -0.271 OA
HETATM   62  O6  UNL     1      -4.865  -0.518   0.352  1.00  0.00    -0.271 OA
HETATM   63  O7  UNL     1      -2.796  -0.286   4.648  1.00  0.00    -0.305 OA
HETATM   64  O8  UNL     1      -0.912   1.564  -3.665  1.00  0.00    -0.271 OA
HETATM   65  O9  UNL     1      -0.753   1.525   1.139  1.00  0.00    -0.271 OA
HETATM   66  O10 UNL     1       2.372   1.152  -1.761  1.00  0.00    -0.272 OA
HETATM   67  O11 UNL     1       5.947  -0.308  -1.609  1.00  0.00    -0.271 OA
HETATM   68  O12 UNL     1       6.096   0.680   2.761  1.00  0.00    -0.271 OA
HETATM   69  O13 UNL     1       9.333  -0.929   5.172  1.00  0.00    -0.271 OA
HETATM   70  O14 UNL     1      11.098  -3.124   5.430  1.00  0.00    -0.398 OA
HETATM   71  O15 UNL     1      10.872  -0.510   1.016  1.00  0.00    -0.271 OA
HETATM   72  O16 UNL     1      11.826   1.681  -0.648  1.00  0.00    -0.398 OA
HETATM   73  N1  UNL     1      -4.496   1.380  -3.863  1.00  0.00    -0.345 N 
HETATM   74  N2  UNL     1      -7.237  -0.789  -2.718  1.00  0.00    -0.346 N 
HETATM   75  N3  UNL     1     -11.579  -3.726  -1.805  1.00  0.00    -0.372 N 
ATOM     76  H3  UNL     1     -11.253  -3.433  -0.884  1.00  0.00     0.161 HD
HETATM   77  N4  UNL     1     -13.532  -4.443  -0.885  1.00  0.00    -0.279 NA
HETATM   78  N5  UNL     1     -13.352  -4.689  -3.076  1.00  0.00    -0.279 NA
HETATM   79  N6  UNL     1      -7.450  -1.395   0.773  1.00  0.00    -0.346 N 
HETATM   80  N7  UNL     1      -4.556  -0.328   2.594  1.00  0.00    -0.348 N 
HETATM   81  N8  UNL     1      -2.513   3.178  -3.492  1.00  0.00    -0.346 N 
HETATM   82  N9  UNL     1      -3.737   4.597  -1.516  1.00  0.00    -0.372 N 
ATOM     83  H9  UNL     1      -3.494   4.407  -2.488  1.00  0.00     0.161 HD
HETATM   84  N10 UNL     1      -5.412   4.506   0.174  1.00  0.00    -0.279 NA
HETATM   85  N11 UNL     1      -5.866   3.861  -1.886  1.00  0.00    -0.279 NA
HETATM   86  N12 UNL     1      -0.271   1.545  -1.095  1.00  0.00    -0.346 N 
HETATM   87  N13 UNL     1       2.309   0.614   0.440  1.00  0.00    -0.337 N 
HETATM   88  N14 UNL     1       5.339   0.944   0.196  1.00  0.00    -0.351 N 
HETATM   89  N15 UNL     1       7.829  -0.034   1.453  1.00  0.00    -0.346 N 
HETATM   90  N16 UNL     1       9.633   0.501   3.419  1.00  0.00    -0.345 N 
HETATM   91  N17 UNL     1      12.171  -0.628   2.885  1.00  0.00    -0.344 N 
HETATM   92  N18 UNL     1      14.329  -0.609   0.929  1.00  0.00     0.094 N 
HETATM   93  S1  UNL     1      -4.861   2.766   3.329  1.00  0.00    -0.180 SA
HETATM   94  S2  UNL     1       9.589   3.556   4.309  1.00  0.00    -0.180 SA
HETATM   95  H68 UNL     1      -5.002  -3.452  -1.625  1.00  0.00     0.167 HD
HETATM   96  H69 UNL     1      10.257  -2.713   5.723  1.00  0.00     0.209 HD
HETATM   97  H70 UNL     1      10.975   1.207  -0.585  1.00  0.00     0.209 HD
HETATM   98  H71 UNL     1      -4.237   1.856  -3.005  1.00  0.00     0.163 HD
HETATM   99  H72 UNL     1      -6.996  -1.631  -3.244  1.00  0.00     0.163 HD
HETATM  100  H73 UNL     1     -13.002  -4.273  -0.036  1.00  0.00     0.126 HD
HETATM  101  H74 UNL     1     -13.927  -5.375  -0.870  1.00  0.00     0.126 HD
HETATM  102  H75 UNL     1     -12.928  -4.370  -3.938  1.00  0.00     0.126 HD
HETATM  103  H76 UNL     1     -14.345  -4.489  -3.068  1.00  0.00     0.126 HD
HETATM  104  H77 UNL     1      -7.845  -0.467   0.861  1.00  0.00     0.163 HD
HETATM  105  H78 UNL     1      -4.722  -0.708   3.522  1.00  0.00     0.163 HD
HETATM  106  H79 UNL     1      -2.995   3.824  -2.860  1.00  0.00     0.163 HD
HETATM  107  H80 UNL     1      -6.401   4.729   0.169  1.00  0.00     0.126 HD
HETATM  108  H81 UNL     1      -4.895   5.120   0.789  1.00  0.00     0.126 HD
HETATM  109  H82 UNL     1      -5.525   3.688  -2.824  1.00  0.00     0.126 HD
HETATM  110  H83 UNL     1      -6.261   2.976  -1.547  1.00  0.00     0.126 HD
HETATM  111  H84 UNL     1       0.433   1.274  -1.790  1.00  0.00     0.163 HD
HETATM  112  H85 UNL     1       5.412   1.034   1.207  1.00  0.00     0.163 HD
HETATM  113  H86 UNL     1       8.805  -0.315   1.504  1.00  0.00     0.163 HD
HETATM  114  H87 UNL     1      10.156   0.669   2.569  1.00  0.00     0.163 HD
HETATM  115  H88 UNL     1      12.946  -0.183   3.364  1.00  0.00     0.163 HD
HETATM  116  H89 UNL     1      14.136  -1.432   0.355  1.00  0.00     0.314 HD
HETATM  117  H90 UNL     1      14.447  -0.956   1.879  1.00  0.00     0.314 HD
HETATM  118  H91 UNL     1      -5.884   1.921   3.136  1.00  0.00     0.101 HD
HETATM  119  H92 UNL     1       8.966   3.284   5.466  1.00  0.00     0.101 HD
ENDROOT
TORSDOF 48
