REMARK  0 active torsions:
REMARK  status: ('A' for Active; 'I' for Inactive)
REMARK       I    between atoms: C2_2  and  C3_3 
REMARK       I    between atoms: C3_3  and  C5_5 
REMARK       I    between atoms: C5_5  and  C6_6 
REMARK       I    between atoms: C5_5  and  N3_87 
REMARK       I    between atoms: C6_6  and  C7_7 
REMARK       I    between atoms: C6_6  and  O5_74 
REMARK       I    between atoms: C7_7  and  C8_8 
REMARK       I    between atoms: C8_8  and  N1_85 
REMARK       I    between atoms: C12_12  and  C13_13 
REMARK       I    between atoms: C13_13  and  C14_14 
REMARK       I    between atoms: C13_13  and  O4_73 
REMARK       I    between atoms: C14_14  and  C16_16 
REMARK       I    between atoms: C16_16  and  N2_86 
REMARK       I    between atoms: C17_17  and  C19_19 
REMARK       I    between atoms: C17_17  and  N2_86 
REMARK       I    between atoms: C19_19  and  C20_20 
REMARK       I    between atoms: C19_19  and  O3_72 
REMARK       I    between atoms: C29_29  and  C30_30 
REMARK       I    between atoms: C29_29  and  N3_87 
REMARK       I    between atoms: C30_30  and  C31_31 
REMARK       I    between atoms: C30_30  and  N4_88 
REMARK       I    between atoms: C34_34  and  C35_35 
REMARK       I    between atoms: C34_34  and  N4_88 
REMARK       I    between atoms: C35_35  and  C36_36 
REMARK       I    between atoms: C35_35  and  N5_89 
REMARK       I    between atoms: C40_40  and  O9_78 
REMARK       I    between atoms: C40_40  and  N5_89 
REMARK       I    between atoms: C41_41  and  C42_42 
REMARK       I    between atoms: C41_41  and  O9_78 
REMARK       I    between atoms: C45_45  and  N6_90 
REMARK       I    between atoms: C48_48  and  C49_49 
REMARK       I    between atoms: C48_48  and  N6_90 
REMARK       I    between atoms: C49_49  and  C50_50 
REMARK       I    between atoms: C49_49  and  N9_93 
REMARK       I    between atoms: C50_50  and  C51_51 
REMARK       I    between atoms: C51_51  and  C52_52 
REMARK       I    between atoms: C52_52  and  N7_91 
REMARK       I    between atoms: C53_53  and  N7_91 
REMARK       I    between atoms: C53_53  and  N8_92 
REMARK       I    between atoms: C54_54  and  C55_55 
REMARK       I    between atoms: C54_54  and  N9_93 
REMARK       I    between atoms: C55_55  and  C56_56 
REMARK       I    between atoms: C55_55  and  N10_94 
REMARK       I    between atoms: C59_59  and  N10_94 
REMARK       I    between atoms: C59_59  and  N11_95 
REMARK       I    between atoms: C60_60  and  C61_61 
REMARK       I    between atoms: C60_60  and  N11_95 
REMARK       I    between atoms: C61_61  and  O14_83 
REMARK       I    between atoms: C62_62  and  C63_63 
REMARK       I    between atoms: C62_62  and  O14_83 
REMARK       I    between atoms: C63_63  and  O15_84 
REMARK       I    between atoms: C64_64  and  C65_65 
REMARK       I    between atoms: C64_64  and  O15_84 
REMARK       I    between atoms: C65_65  and  C66_66 
ROOT
HETATM    1  C1  UNL     1      -9.661   4.245   1.686  1.00  0.00     0.005 C 
HETATM    2  C2  UNL     1      -9.936   2.896   1.034  1.00  0.00     0.002 C 
HETATM    3  C3  UNL     1      -8.659   2.070   0.770  1.00  0.00     0.006 C 
HETATM    4  C4  UNL     1      -9.031   0.608   0.488  1.00  0.00     0.012 C 
HETATM    5  C5  UNL     1      -7.660   2.719  -0.255  1.00  0.00     0.119 C 
HETATM    6  C6  UNL     1      -8.250   3.445  -1.522  1.00  0.00     0.152 C 
HETATM    7  C7  UNL     1      -9.163   2.615  -2.434  1.00  0.00     0.137 C 
HETATM    8  C8  UNL     1     -10.124   3.493  -3.221  1.00  0.00     0.222 C 
HETATM    9  C9  UNL     1     -11.646   3.780  -5.099  1.00  0.00     0.126 C 
HETATM   10  C10 UNL     1     -12.287   2.872  -6.130  1.00  0.00     0.022 C 
HETATM   11  C11 UNL     1     -11.284   1.738  -6.263  1.00  0.00     0.029 C 
HETATM   12  C12 UNL     1     -10.667   1.580  -4.860  1.00  0.00     0.117 C 
HETATM   13  C13 UNL     1     -11.274   0.365  -4.083  1.00  0.00     0.156 C 
HETATM   14  C14 UNL     1     -12.672   0.578  -3.452  1.00  0.00     0.105 C 
HETATM   15  C15 UNL     1     -12.706   1.347  -2.132  1.00  0.00     0.022 C 
HETATM   16  C16 UNL     1     -13.347  -0.776  -3.240  1.00  0.00     0.224 C 
HETATM   17  C17 UNL     1     -13.179  -2.970  -2.083  1.00  0.00     0.113 C 
HETATM   18  C18 UNL     1     -12.035  -3.968  -1.898  1.00  0.00     0.035 C 
HETATM   19  C19 UNL     1     -14.146  -2.884  -0.863  1.00  0.00     0.173 C 
HETATM   20  C20 UNL     1     -13.482  -2.421   0.423  1.00  0.00    -0.028 A 
HETATM   21  C21 UNL     1     -12.871  -3.325   1.305  1.00  0.00     0.010 A 
HETATM   22  C22 UNL     1     -12.236  -2.874   2.464  1.00  0.00     0.001 A 
HETATM   23  C23 UNL     1     -12.208  -1.514   2.761  1.00  0.00     0.000 A 
HETATM   24  C24 UNL     1     -12.822  -0.604   1.903  1.00  0.00     0.001 A 
HETATM   25  C25 UNL     1     -13.457  -1.055   0.745  1.00  0.00     0.010 A 
HETATM   26  C26 UNL     1      -9.392  -1.013  -3.536  1.00  0.00     0.202 C 
HETATM   27  C27 UNL     1      -6.617   5.160  -1.897  1.00  0.00     0.202 C 
HETATM   28  C28 UNL     1      -6.469   0.982  -1.665  1.00  0.00     0.153 C 
HETATM   29  C29 UNL     1      -5.441   1.884   0.450  1.00  0.00     0.243 C 
HETATM   30  C30 UNL     1      -4.083   1.195   0.157  1.00  0.00     0.180 C 
HETATM   31  C31 UNL     1      -3.070   2.107  -0.582  1.00  0.00     0.009 C 
HETATM   32  C32 UNL     1      -3.426   2.317  -2.053  1.00  0.00     0.012 C 
HETATM   33  C33 UNL     1      -2.868   3.467   0.097  1.00  0.00     0.012 C 
HETATM   34  C34 UNL     1      -2.604  -0.192   1.625  1.00  0.00     0.241 C 
HETATM   35  C35 UNL     1      -2.148  -0.387   3.100  1.00  0.00     0.184 C 
HETATM   36  C36 UNL     1      -0.871  -1.264   3.236  1.00  0.00     0.010 C 
HETATM   37  C37 UNL     1      -0.203  -1.151   4.613  1.00  0.00     0.012 C 
HETATM   38  C38 UNL     1      -1.194  -2.746   2.990  1.00  0.00     0.012 C 
HETATM   39  C39 UNL     1      -2.892   1.127   4.961  1.00  0.00     0.156 C 
HETATM   40  C40 UNL     1      -1.128   1.890   3.448  1.00  0.00     0.363 C 
HETATM   41  C41 UNL     1       0.630   2.439   1.959  1.00  0.00     0.219 C 
HETATM   42  C42 UNL     1       1.927   1.846   2.440  1.00  0.00    -0.034 A 
HETATM   43  C43 UNL     1       2.536   0.801   1.737  1.00  0.00     0.011 A 
HETATM   44  C44 UNL     1       3.722   0.230   2.207  1.00  0.00     0.030 A 
HETATM   45  C45 UNL     1       4.318   0.687   3.389  1.00  0.00     0.034 A 
HETATM   46  C46 UNL     1       3.704   1.720   4.097  1.00  0.00     0.030 A 
HETATM   47  C47 UNL     1       2.516   2.292   3.629  1.00  0.00     0.011 A 
HETATM   48  C48 UNL     1       6.314   0.349   4.871  1.00  0.00     0.245 C 
HETATM   49  C49 UNL     1       7.554  -0.572   5.000  1.00  0.00     0.177 C 
HETATM   50  C50 UNL     1       7.155  -2.014   5.363  1.00  0.00     0.036 C 
HETATM   51  C51 UNL     1       8.077  -2.666   6.407  1.00  0.00     0.022 C 
HETATM   52  C52 UNL     1       9.537  -2.798   5.986  1.00  0.00     0.124 C 
HETATM   53  C53 UNL     1      10.707  -3.503   3.951  1.00  0.00     0.313 C 
HETATM   54  C54 UNL     1       8.200  -0.928   2.583  1.00  0.00     0.241 C 
HETATM   55  C55 UNL     1       9.244  -0.525   1.514  1.00  0.00     0.181 C 
HETATM   56  C56 UNL     1       8.889   0.821   0.830  1.00  0.00     0.009 C 
HETATM   57  C57 UNL     1       7.582   0.723   0.037  1.00  0.00     0.012 C 
HETATM   58  C58 UNL     1       8.827   2.011   1.791  1.00  0.00     0.012 C 
HETATM   59  C59 UNL     1      11.708  -0.506   1.379  1.00  0.00     0.316 C 
HETATM   60  C60 UNL     1      14.131  -0.850   1.539  1.00  0.00     0.150 C 
HETATM   61  C61 UNL     1      14.316  -2.151   0.750  1.00  0.00     0.187 C 
HETATM   62  C62 UNL     1      16.056  -1.660  -0.818  1.00  0.00     0.193 C 
HETATM   63  C63 UNL     1      15.755  -2.502  -2.060  1.00  0.00     0.193 C 
HETATM   64  C64 UNL     1      17.522  -1.939  -3.558  1.00  0.00     0.168 C 
HETATM   65  C65 UNL     1      17.819  -1.283  -4.909  1.00  0.00     0.034 C 
HETATM   66  C66 UNL     1      17.352  -2.044  -6.182  1.00  0.00    -0.050 C 
HETATM   67  C67 UNL     1      17.750  -1.199  -7.410  1.00  0.00     0.014 C 
HETATM   68  C68 UNL     1      15.829  -2.247  -6.211  1.00  0.00     0.014 C 
HETATM   69  C69 UNL     1      18.044  -3.413  -6.293  1.00  0.00     0.014 C 
HETATM   70  O1  UNL     1     -10.317   4.673  -2.918  1.00  0.00    -0.273 OA
HETATM   71  O2  UNL     1     -14.454  -1.031  -3.708  1.00  0.00    -0.273 OA
HETATM   72  O3  UNL     1     -14.774  -4.152  -0.646  1.00  0.00    -0.389 OA
HETATM   73  O4  UNL     1     -10.363  -0.086  -3.056  1.00  0.00    -0.388 OA
HETATM   74  O5  UNL     1      -7.182   3.941  -2.364  1.00  0.00    -0.388 OA
HETATM   75  O6  UNL     1      -5.576   2.495   1.520  1.00  0.00    -0.271 OA
HETATM   76  O7  UNL     1      -2.269  -0.925   0.698  1.00  0.00    -0.271 OA
HETATM   77  O8  UNL     1      -0.944   2.916   4.091  1.00  0.00    -0.238 OA
HETATM   78  O9  UNL     1      -0.438   1.562   2.329  1.00  0.00    -0.299 OA
HETATM   79  O10 UNL     1       6.100   1.209   5.723  1.00  0.00    -0.271 OA
HETATM   80  O11 UNL     1      11.458  -2.536   3.911  1.00  0.00    -0.248 OA
HETATM   81  O12 UNL     1       7.148  -1.502   2.302  1.00  0.00    -0.271 OA
HETATM   82  O13 UNL     1      11.740  -0.301   0.174  1.00  0.00    -0.247 OA
HETATM   83  O14 UNL     1      15.682  -2.347   0.379  1.00  0.00    -0.387 OA
HETATM   84  O15 UNL     1      16.131  -1.841  -3.268  1.00  0.00    -0.389 OA
HETATM   85  N1  UNL     1     -10.837   2.910  -4.257  1.00  0.00    -0.345 N 
HETATM   86  N2  UNL     1     -12.640  -1.672  -2.476  1.00  0.00    -0.354 N 
HETATM   87  N3  UNL     1      -6.463   1.858  -0.501  1.00  0.00    -0.347 N 
HETATM   88  N4  UNL     1      -3.550   0.796   1.462  1.00  0.00    -0.346 N 
HETATM   89  N5  UNL     1      -2.082   0.935   3.771  1.00  0.00    -0.319 N 
HETATM   90  N6  UNL     1       5.511   0.056   3.786  1.00  0.00    -0.325 N 
HETATM   91  N7  UNL     1       9.700  -3.674   4.847  1.00  0.00    -0.343 N 
HETATM   92  N8  UNL     1      10.765  -4.483   3.020  1.00  0.00    -0.352 N 
HETATM   93  N9  UNL     1       8.460  -0.458   3.854  1.00  0.00    -0.346 N 
HETATM   94  N10 UNL     1      10.569  -0.516   2.142  1.00  0.00    -0.330 N 
HETATM   95  N11 UNL     1      12.820  -0.739   2.145  1.00  0.00    -0.341 N 
HETATM   96  HA6 UNL     1     -15.424  -4.262  -1.361  1.00  0.00     0.210 HD
HETATM   97  HA7 UNL     1     -11.814  -1.328  -1.991  1.00  0.00     0.163 HD
HETATM   98  HA8 UNL     1      -3.733   1.426   2.239  1.00  0.00     0.163 HD
HETATM   99  HA9 UNL     1       5.854  -0.679   3.165  1.00  0.00     0.169 HD
HETATM  100  HB0 UNL     1       9.252  -4.578   4.875  1.00  0.00     0.164 HD
HETATM  101  HB1 UNL     1      11.553  -4.428   2.387  1.00  0.00     0.160 HD
HETATM  102  HB2 UNL     1      10.479  -5.418   3.267  1.00  0.00     0.160 HD
HETATM  103  HB3 UNL     1       9.233   0.197   3.936  1.00  0.00     0.163 HD
HETATM  104  HB4 UNL     1      10.672  -1.126   2.949  1.00  0.00     0.165 HD
HETATM  105  HB5 UNL     1      12.660  -1.254   3.008  1.00  0.00     0.164 HD
ENDROOT
TORSDOF 43
