REMARK  23 active torsions:
REMARK  status: ('A' for Active; 'I' for Inactive)
REMARK    1  A    between atoms: C2_2  and  O16_60 
REMARK    2  A    between atoms: C3_3  and  C32_32 
REMARK    3  A    between atoms: C5_5  and  C10_10 
REMARK    4  A    between atoms: C6_6  and  O3_47 
REMARK    5  A    between atoms: C8_8  and  O2_46 
REMARK    6  A    between atoms: C13_13  and  O5_49 
REMARK    7  A    between atoms: C15_15  and  O4_48 
REMARK    8  A    between atoms: C17_17  and  O9_53 
REMARK    9  A    between atoms: C18_18  and  C19_19 
REMARK   10  A    between atoms: C21_21  and  O8_52 
REMARK   11  A    between atoms: C22_22  and  O7_51 
REMARK   12  A    between atoms: C25_25  and  C26_26 
REMARK   13  A    between atoms: C25_25  and  O9_53 
REMARK   14  A    between atoms: C28_28  and  O13_57 
REMARK   15  A    between atoms: C29_29  and  O12_56 
REMARK   16  A    between atoms: C30_30  and  O11_55 
REMARK   17  A    between atoms: C34_34  and  O15_59 
REMARK   18  A    between atoms: C35_35  and  O14_58 
REMARK   19  A    between atoms: C38_38  and  C39_39 
REMARK   20  A    between atoms: C38_38  and  O16_60 
REMARK   21  A    between atoms: C41_41  and  O20_64 
REMARK   22  A    between atoms: C42_42  and  O19_63 
REMARK   23  A    between atoms: C43_43  and  O18_62 
ROOT
HETATM    1  C1  UNL     1      -1.988  -0.771  -3.319  1.00  0.00     0.080 C 
HETATM    2  C2  UNL     1      -2.632   0.197  -2.323  1.00  0.00     0.170 C 
HETATM    3  C3  UNL     1      -1.647   0.456  -1.175  1.00  0.00     0.192 C 
HETATM    4  C4  UNL     1      -0.765  -1.714  -1.307  1.00  0.00     0.093 A 
HETATM    5  C5  UNL     1       0.118  -2.626  -0.679  1.00  0.00     0.047 A 
HETATM    6  C6  UNL     1       0.737  -3.583  -1.500  1.00  0.00     0.082 A 
HETATM    7  C7  UNL     1       0.466  -3.659  -2.863  1.00  0.00     0.074 A 
HETATM    8  C8  UNL     1      -0.423  -2.763  -3.447  1.00  0.00     0.077 A 
HETATM    9  C9  UNL     1      -1.055  -1.774  -2.685  1.00  0.00     0.012 A 
HETATM   10  O1  UNL     1      -1.361  -0.775  -0.497  1.00  0.00    -0.337 OA
ENDROOT
BRANCH   5  11
HETATM   11  C10 UNL     1       0.372  -2.570   0.783  1.00  0.00     0.047 A 
HETATM   12  C11 UNL     1       1.008  -1.452   1.374  1.00  0.00     0.093 A 
HETATM   13  C12 UNL     1       1.293  -1.404   2.751  1.00  0.00     0.012 A 
HETATM   14  O6  UNL     1       1.367  -0.420   0.535  1.00  0.00    -0.337 OA
HETATM   15  C13 UNL     1       0.894  -2.476   3.554  1.00  0.00     0.077 A 
HETATM   16  C16 UNL     1       1.987  -0.216   3.370  1.00  0.00     0.080 C 
HETATM   17  C14 UNL     1       0.248  -3.578   3.010  1.00  0.00     0.074 A 
HETATM   18  C15 UNL     1      -0.007  -3.620   1.640  1.00  0.00     0.082 A 
HETATM   19  C17 UNL     1       2.487   0.789   2.332  1.00  0.00     0.170 C 
HETATM   20  C18 UNL     1       1.456   0.854   1.195  1.00  0.00     0.192 C 
BRANCH  15  21
HETATM   21  O5  UNL     1       1.147  -2.420   4.896  1.00  0.00    -0.360 OA
HETATM   22  H24 UNL     1       0.811  -3.232   5.311  1.00  0.00     0.217 HD
ENDBRANCH  15  21
BRANCH  18  23
HETATM   23  O4  UNL     1      -0.644  -4.753   1.204  1.00  0.00    -0.360 OA
HETATM   24  H23 UNL     1      -0.827  -4.679   0.251  1.00  0.00     0.217 HD
ENDBRANCH  18  23
BRANCH  19  25
HETATM   25  O9  UNL     1       3.760   0.312   1.834  1.00  0.00    -0.309 OA
BRANCH  25  26
HETATM   26  C25 UNL     1       4.725   1.236   1.631  1.00  0.00     0.294 C 
HETATM   27  O10 UNL     1       4.661   2.422   1.910  1.00  0.00    -0.259 OA
BRANCH  26  28
HETATM   28  C26 UNL     1       5.922   0.610   1.010  1.00  0.00     0.045 A 
HETATM   29  C27 UNL     1       5.953  -0.747   0.648  1.00  0.00     0.057 A 
HETATM   30  C28 UNL     1       7.103  -1.269   0.069  1.00  0.00     0.102 A 
HETATM   31  C29 UNL     1       8.211  -0.464  -0.153  1.00  0.00     0.132 A 
HETATM   32  C30 UNL     1       8.184   0.880   0.202  1.00  0.00     0.102 A 
HETATM   33  C31 UNL     1       7.045   1.427   0.783  1.00  0.00     0.057 A 
BRANCH  30  34
HETATM   34  O13 UNL     1       7.135  -2.588  -0.280  1.00  0.00    -0.358 OA
HETATM   35  H29 UNL     1       8.023  -2.722  -0.669  1.00  0.00     0.217 HD
ENDBRANCH  30  34
BRANCH  31  36
HETATM   36  O12 UNL     1       9.328  -1.011  -0.725  1.00  0.00    -0.356 OA
HETATM   37  H28 UNL     1       9.961  -0.265  -0.781  1.00  0.00     0.218 HD
ENDBRANCH  31  36
BRANCH  32  38
HETATM   38  O11 UNL     1       9.304   1.625  -0.040  1.00  0.00    -0.358 OA
HETATM   39  H27 UNL     1       9.139   2.535   0.265  1.00  0.00     0.217 HD
ENDBRANCH  32  38
ENDBRANCH  26  28
ENDBRANCH  25  26
ENDBRANCH  19  25
BRANCH  20  40
HETATM   40  C19 UNL     1       1.756   1.943   0.176  1.00  0.00    -0.024 A 
HETATM   41  C20 UNL     1       2.360   1.658  -1.060  1.00  0.00     0.049 A 
HETATM   42  C21 UNL     1       2.600   2.684  -1.965  1.00  0.00     0.099 A 
HETATM   43  C22 UNL     1       2.280   3.999  -1.645  1.00  0.00     0.098 A 
HETATM   44  C23 UNL     1       1.677   4.305  -0.436  1.00  0.00     0.040 A 
HETATM   45  C24 UNL     1       1.418   3.278   0.474  1.00  0.00     0.013 A 
BRANCH  42  46
HETATM   46  O8  UNL     1       3.131   2.376  -3.184  1.00  0.00    -0.358 OA
HETATM   47  H26 UNL     1       2.818   3.062  -3.801  1.00  0.00     0.217 HD
ENDBRANCH  42  46
BRANCH  43  48
HETATM   48  O7  UNL     1       2.583   5.011  -2.509  1.00  0.00    -0.358 OA
HETATM   49  H25 UNL     1       3.515   4.866  -2.760  1.00  0.00     0.217 HD
ENDBRANCH  43  48
ENDBRANCH  20  40
ENDBRANCH   5  11
BRANCH   6  50
HETATM   50  O3  UNL     1       1.628  -4.508  -1.022  1.00  0.00    -0.360 OA
HETATM   51  H22 UNL     1       1.923  -4.241  -0.134  1.00  0.00     0.217 HD
ENDBRANCH   6  50
BRANCH   8  52
HETATM   52  O2  UNL     1      -0.619  -2.913  -4.791  1.00  0.00    -0.360 OA
HETATM   53  H21 UNL     1      -1.303  -2.303  -5.104  1.00  0.00     0.217 HD
ENDBRANCH   8  52
BRANCH   3  54
HETATM   54  C32 UNL     1      -2.150   1.484  -0.172  1.00  0.00    -0.024 A 
HETATM   55  C33 UNL     1      -2.006   2.854  -0.457  1.00  0.00     0.049 A 
HETATM   56  C34 UNL     1      -2.454   3.800   0.459  1.00  0.00     0.099 A 
HETATM   57  C35 UNL     1      -3.052   3.401   1.650  1.00  0.00     0.098 A 
HETATM   58  C36 UNL     1      -3.212   2.058   1.948  1.00  0.00     0.040 A 
HETATM   59  C37 UNL     1      -2.761   1.100   1.038  1.00  0.00     0.013 A 
BRANCH  56  60
HETATM   60  O15 UNL     1      -2.318   5.142   0.233  1.00  0.00    -0.358 OA
HETATM   61  H31 UNL     1      -1.903   5.259  -0.640  1.00  0.00     0.217 HD
ENDBRANCH  56  60
BRANCH  57  62
HETATM   62  O14 UNL     1      -3.487   4.340   2.541  1.00  0.00    -0.358 OA
HETATM   63  H30 UNL     1      -3.276   5.194   2.115  1.00  0.00     0.217 HD
ENDBRANCH  57  62
ENDBRANCH   3  54
BRANCH   2  64
HETATM   64  O16 UNL     1      -3.840  -0.425  -1.822  1.00  0.00    -0.309 OA
BRANCH  64  65
HETATM   65  C38 UNL     1      -4.911   0.388  -1.663  1.00  0.00     0.294 C 
HETATM   66  O17 UNL     1      -4.995   1.548  -2.032  1.00  0.00    -0.259 OA
BRANCH  65  67
HETATM   67  C39 UNL     1      -5.995  -0.315  -0.930  1.00  0.00     0.045 A 
HETATM   68  C40 UNL     1      -5.964  -1.699  -0.699  1.00  0.00     0.057 A 
HETATM   69  C41 UNL     1      -7.009  -2.294  -0.005  1.00  0.00     0.102 A 
HETATM   70  C42 UNL     1      -8.072  -1.533   0.462  1.00  0.00     0.132 A 
HETATM   71  C43 UNL     1      -8.104  -0.162   0.239  1.00  0.00     0.102 A 
HETATM   72  C44 UNL     1      -7.073   0.457  -0.457  1.00  0.00     0.057 A 
BRANCH  69  73
HETATM   73  O20 UNL     1      -6.984  -3.641   0.217  1.00  0.00    -0.358 OA
HETATM   74  H34 UNL     1      -7.802  -3.826   0.722  1.00  0.00     0.217 HD
ENDBRANCH  69  73
BRANCH  70  75
HETATM   75  O19 UNL     1      -9.084  -2.151   1.145  1.00  0.00    -0.356 OA
HETATM   76  H33 UNL     1      -9.702  -1.425   1.372  1.00  0.00     0.218 HD
ENDBRANCH  70  75
BRANCH  71  77
HETATM   77  O18 UNL     1      -9.172   0.538   0.727  1.00  0.00    -0.358 OA
HETATM   78  H32 UNL     1      -9.038   1.482   0.528  1.00  0.00     0.217 HD
ENDBRANCH  71  77
ENDBRANCH  65  67
ENDBRANCH  64  65
ENDBRANCH   2  64
TORSDOF 23
