REMARK  28 active torsions:
REMARK  status: ('A' for Active; 'I' for Inactive)
REMARK    1  A    between atoms: C2_2  and  C3_3 
REMARK    2  A    between atoms: C2_2  and  N2_73 
REMARK    3  A    between atoms: C3_3  and  C4_4 
REMARK    4  A    between atoms: C4_4  and  C5_5 
REMARK    5  A    between atoms: C5_5  and  C6_6 
REMARK    6  A    between atoms: C6_6  and  C7_7 
REMARK    7  A    between atoms: C7_7  and  C8_8 
REMARK    8  A    between atoms: C8_8  and  S1_70 
REMARK    9  A    between atoms: C9_9  and  C11_11 
REMARK   10  A    between atoms: C9_9  and  S2_71 
REMARK   11  A    between atoms: C11_11  and  C12_12 
REMARK   12  A    between atoms: C12_12  and  C13_13 
REMARK       I    between atoms: C13_13  and  N1_72 
REMARK   13  A    between atoms: C15_15  and  O6_65 
REMARK   14  A    between atoms: C17_17  and  C18_18 
REMARK   15  A    between atoms: C18_18  and  O3_62 
REMARK   16  A    between atoms: C19_19  and  C20_20 
REMARK   17  A    between atoms: C19_19  and  C26_26 
REMARK   18  A    between atoms: C19_19  and  C33_33 
REMARK   19  A    between atoms: C19_19  and  O3_62 
REMARK   20  A    between atoms: C29_29  and  O4_63 
REMARK   21  A    between atoms: C36_36  and  O5_64 
REMARK   22  A    between atoms: C40_40  and  C41_41 
REMARK       I    between atoms: C40_40  and  N2_73 
REMARK   23  A    between atoms: C44_44  and  N3_74 
REMARK   24  A    between atoms: C47_47  and  C48_48 
REMARK   25  A    between atoms: C47_47  and  N3_74 
REMARK   26  A    between atoms: C53_53  and  N8_82 
REMARK   27  A    between atoms: C54_54  and  C55_55 
REMARK       I    between atoms: C54_54  and  N8_82 
REMARK       I    between atoms: C58_58  and  N3_74 
REMARK   28  A    between atoms: S1_70  and  S2_71 
ROOT
HETATM    1  C5  UNL     1       3.217   0.960  -0.493  1.00  0.00     0.127 C 
HETATM    2  O1  UNL     1       3.730  -0.027   0.040  1.00  0.00    -0.298 OA
ENDROOT
BRANCH   1   3
HETATM    3  C4  UNL     1       3.739   2.355  -0.216  1.00  0.00     0.080 C 
BRANCH   3   4
HETATM    4  C3  UNL     1       3.481   2.841   1.210  1.00  0.00     0.032 C 
BRANCH   4   5
HETATM    5  C2  UNL     1       4.170   2.087   2.370  1.00  0.00     0.081 C 
HETATM    6  C1  UNL     1       3.185   1.225   3.161  1.00  0.00     0.032 C 
BRANCH   5   7
HETATM    7  N2  UNL     1       5.297   1.278   1.934  1.00  0.00    -0.353 N 
HETATM    8  C40 UNL     1       6.441   1.147   2.692  1.00  0.00     0.251 C 
HETATM    9  O7  UNL     1       6.660   1.803   3.706  1.00  0.00    -0.268 OA
HETATM   10  H68 UNL     1       5.060   0.511   1.305  1.00  0.00     0.163 HD
BRANCH   8  11
HETATM   11  C41 UNL     1       7.435   0.130   2.238  1.00  0.00     0.032 A 
HETATM   12  C42 UNL     1       8.392  -0.316   3.153  1.00  0.00     0.019 A 
HETATM   13  C43 UNL     1       9.357  -1.262   2.778  1.00  0.00     0.031 A 
HETATM   14  C44 UNL     1       9.395  -1.787   1.477  1.00  0.00     0.037 A 
HETATM   15  C45 UNL     1       8.429  -1.324   0.569  1.00  0.00     0.031 A 
HETATM   16  C46 UNL     1       7.463  -0.376   0.938  1.00  0.00     0.019 A 
BRANCH  14  17
HETATM   17  N3  UNL     1      10.408  -2.730   1.068  1.00  0.00    -0.313 N 
HETATM   18  C58 UNL     1      10.127  -3.690   0.078  1.00  0.00     0.220 C 
HETATM   19  C59 UNL     1      11.274  -4.535  -0.428  1.00  0.00     0.117 C 
HETATM   20  O10 UNL     1       9.003  -3.907  -0.381  1.00  0.00    -0.273 OA
BRANCH  17  21
HETATM   21  C47 UNL     1      11.749  -2.622   1.674  1.00  0.00     0.190 C 
BRANCH  21  22
HETATM   22  C48 UNL     1      12.700  -1.749   0.884  1.00  0.00     0.044 A 
HETATM   23  C49 UNL     1      12.472  -0.382   0.722  1.00  0.00     0.116 A 
HETATM   24  N4  UNL     1      13.307   0.437   0.032  1.00  0.00    -0.348 N 
HETATM   25  C50 UNL     1      14.394  -0.148  -0.515  1.00  0.00     0.153 A 
ATOM     26  H4  UNL     1      13.124   1.435  -0.067  1.00  0.00     0.167 HD
HETATM   27  C51 UNL     1      14.623  -1.507  -0.345  1.00  0.00     0.147 A 
HETATM   28  N7  UNL     1      15.243   0.702  -1.233  1.00  0.00    -0.174 N 
HETATM   29  C52 UNL     1      15.846  -2.048  -0.968  1.00  0.00     0.290 A 
HETATM   30  N5  UNL     1      13.803  -2.340   0.353  1.00  0.00    -0.350 N 
HETATM   31  O8  UNL     1      16.143  -3.237  -0.954  1.00  0.00    -0.265 OA
HETATM   32  N6  UNL     1      16.652  -1.125  -1.596  1.00  0.00    -0.154 N 
HETATM   33  C53 UNL     1      16.313   0.194  -1.738  1.00  0.00     0.689 A 
HETATM   34  H69 UNL     1      17.431  -1.520  -2.102  1.00  0.00     0.187 HD
ATOM     35  H5  UNL     1      14.002  -3.334   0.469  1.00  0.00     0.166 HD
ATOM     36  H7  UNL     1      15.022   1.691  -1.352  1.00  0.00     0.186 HD
BRANCH  33  37
HETATM   37  N8  UNL     1      17.225   0.933  -2.450  1.00  0.00    -0.159 N 
HETATM   38  C54 UNL     1      17.035   2.263  -2.797  1.00  0.00     0.239 C 
HETATM   39  O9  UNL     1      15.990   2.704  -3.264  1.00  0.00    -0.272 OA
HETATM   40  H70 UNL     1      18.182   0.630  -2.358  1.00  0.00     0.187 HD
BRANCH  38  41
HETATM   41  C55 UNL     1      18.317   3.095  -2.712  1.00  0.00     0.070 C 
HETATM   42  C56 UNL     1      18.093   4.507  -3.252  1.00  0.00     0.019 C 
HETATM   43  C57 UNL     1      18.824   3.160  -1.272  1.00  0.00     0.019 C 
ENDBRANCH  38  41
ENDBRANCH  33  37
ENDBRANCH  21  22
ENDBRANCH  17  21
ENDBRANCH  14  17
ENDBRANCH   8  11
ENDBRANCH   5   7
ENDBRANCH   4   5
ENDBRANCH   3   4
ENDBRANCH   1   3
BRANCH   1  44
HETATM   44  C6  UNL     1       2.054   0.812  -1.453  1.00  0.00     0.079 C 
BRANCH  44  45
HETATM   45  C7  UNL     1       0.727   1.242  -0.838  1.00  0.00     0.018 C 
BRANCH  45  46
HETATM   46  C8  UNL     1       0.249   0.260   0.234  1.00  0.00     0.086 C 
BRANCH  46  47
HETATM   47  S1  UNL     1      -1.284   0.837   1.041  1.00  0.00    -0.097 SA
BRANCH  47  48
HETATM   48  S2  UNL     1      -2.711   0.627  -0.426  1.00  0.00    -0.093 SA
BRANCH  48  49
HETATM   49  C9  UNL     1      -3.490  -1.008  -0.075  1.00  0.00     0.055 C 
HETATM   50  C10 UNL     1      -2.502  -2.149  -0.319  1.00  0.00     0.022 C 
BRANCH  49  51
HETATM   51  C11 UNL     1      -4.731  -1.195  -0.973  1.00  0.00     0.025 C 
BRANCH  51  52
HETATM   52  C12 UNL     1      -5.908  -0.272  -0.641  1.00  0.00     0.104 C 
BRANCH  52  53
HETATM   53  C13 UNL     1      -6.581  -0.690   0.653  1.00  0.00     0.220 C 
HETATM   54  O2  UNL     1      -6.207  -0.203   1.722  1.00  0.00    -0.273 OA
HETATM   55  N1  UNL     1      -7.526  -1.687   0.607  1.00  0.00    -0.343 N 
HETATM   56  C14 UNL     1      -7.961  -2.335   1.832  1.00  0.00     0.158 C 
HETATM   57  C17 UNL     1      -8.192  -2.294  -0.560  1.00  0.00     0.113 C 
HETATM   58  C15 UNL     1      -8.309  -3.750   1.377  1.00  0.00     0.138 C 
HETATM   59  C16 UNL     1      -8.932  -3.528   0.006  1.00  0.00     0.061 C 
BRANCH  58  60
HETATM   60  O6  UNL     1      -7.137  -4.553   1.216  1.00  0.00    -0.394 OA
HETATM   61  H67 UNL     1      -6.629  -4.497   2.044  1.00  0.00     0.210 HD
ENDBRANCH  58  60
BRANCH  57  62
HETATM   62  C18 UNL     1      -9.186  -1.339  -1.259  1.00  0.00     0.195 C 
BRANCH  62  63
HETATM   63  O3  UNL     1     -10.183  -0.922  -0.318  1.00  0.00    -0.363 OA
BRANCH  63  64
HETATM   64  C19 UNL     1     -10.934   0.294  -0.598  1.00  0.00     0.142 C 
BRANCH  64  65
HETATM   65  C20 UNL     1      -9.875   1.425  -0.752  1.00  0.00    -0.015 A 
HETATM   66  C21 UNL     1      -9.119   1.822   0.374  1.00  0.00     0.011 A 
HETATM   67  C22 UNL     1      -8.115   2.788   0.278  1.00  0.00     0.001 A 
HETATM   68  C23 UNL     1      -7.827   3.373  -0.950  1.00  0.00     0.000 A 
HETATM   69  C24 UNL     1      -8.531   2.979  -2.083  1.00  0.00     0.001 A 
HETATM   70  C25 UNL     1      -9.534   2.007  -1.989  1.00  0.00     0.011 A 
ENDBRANCH  64  65
BRANCH  64  71
HETATM   71  C26 UNL     1     -11.826   0.525   0.667  1.00  0.00    -0.014 A 
HETATM   72  C27 UNL     1     -12.363   1.794   0.963  1.00  0.00     0.013 A 
HETATM   73  C28 UNL     1     -13.184   1.998   2.080  1.00  0.00     0.037 A 
HETATM   74  C29 UNL     1     -13.500   0.935   2.922  1.00  0.00     0.068 A 
HETATM   75  C30 UNL     1     -12.992  -0.332   2.634  1.00  0.00     0.037 A 
HETATM   76  C31 UNL     1     -12.171  -0.538   1.521  1.00  0.00     0.013 A 
BRANCH  74  77
HETATM   77  O4  UNL     1     -14.287   0.996   4.039  1.00  0.00    -0.356 OA
HETATM   78  C32 UNL     1     -14.814   2.272   4.381  1.00  0.00     0.210 C 
ENDBRANCH  74  77
ENDBRANCH  64  71
BRANCH  64  79
HETATM   79  C33 UNL     1     -11.924   0.070  -1.776  1.00  0.00    -0.014 A 
HETATM   80  C34 UNL     1     -12.340  -1.225  -2.142  1.00  0.00     0.013 A 
HETATM   81  C35 UNL     1     -13.273  -1.440  -3.166  1.00  0.00     0.037 A 
HETATM   82  C36 UNL     1     -13.841  -0.360  -3.834  1.00  0.00     0.068 A 
HETATM   83  C37 UNL     1     -13.482   0.932  -3.454  1.00  0.00     0.037 A 
HETATM   84  C38 UNL     1     -12.553   1.145  -2.430  1.00  0.00     0.013 A 
BRANCH  82  85
HETATM   85  O5  UNL     1     -14.757  -0.427  -4.847  1.00  0.00    -0.356 OA
HETATM   86  C39 UNL     1     -15.177  -1.725  -5.247  1.00  0.00     0.210 C 
ENDBRANCH  82  85
ENDBRANCH  64  79
ENDBRANCH  63  64
ENDBRANCH  62  63
ENDBRANCH  57  62
ENDBRANCH  52  53
ENDBRANCH  51  52
ENDBRANCH  49  51
ENDBRANCH  48  49
ENDBRANCH  47  48
ENDBRANCH  46  47
ENDBRANCH  45  46
ENDBRANCH  44  45
ENDBRANCH   1  44
TORSDOF 28
