REMARK  0 active torsions:
REMARK  status: ('A' for Active; 'I' for Inactive)
REMARK       I    between atoms: C2_2  and  O1_57 
REMARK       I    between atoms: C3_3  and  C14_14 
REMARK       I    between atoms: C5_5  and  N1_69 
REMARK       I    between atoms: C8_8  and  C9_9 
REMARK       I    between atoms: C8_8  and  N1_69 
REMARK       I    between atoms: C9_9  and  C10_10 
REMARK       I    between atoms: C9_9  and  N3_71 
REMARK       I    between atoms: C10_10  and  C11_11 
REMARK       I    between atoms: C11_11  and  C12_12 
REMARK       I    between atoms: C12_12  and  C13_13 
REMARK       I    between atoms: C13_13  and  N2_70 
REMARK       I    between atoms: C14_14  and  N4_72 
REMARK       I    between atoms: C15_15  and  C16_16 
REMARK       I    between atoms: C15_15  and  C20_20 
REMARK       I    between atoms: C15_15  and  N4_72 
REMARK       I    between atoms: C16_16  and  C17_17 
REMARK       I    between atoms: C17_17  and  C18_18 
REMARK       I    between atoms: C18_18  and  C19_19 
REMARK       I    between atoms: C19_19  and  N5_73 
REMARK       I    between atoms: C20_20  and  N6_74 
REMARK       I    between atoms: C21_21  and  N6_74 
REMARK       I    between atoms: C23_23  and  C28_28 
REMARK       I    between atoms: C24_24  and  O5_61 
REMARK       I    between atoms: C28_28  and  N7_75 
REMARK       I    between atoms: C29_29  and  C30_30 
REMARK       I    between atoms: C29_29  and  C34_34 
REMARK       I    between atoms: C29_29  and  N7_75 
REMARK       I    between atoms: C30_30  and  C31_31 
REMARK       I    between atoms: C31_31  and  C32_32 
REMARK       I    between atoms: C32_32  and  C33_33 
REMARK       I    between atoms: C33_33  and  N8_76 
REMARK       I    between atoms: C34_34  and  N9_77 
REMARK       I    between atoms: C35_35  and  N9_77 
REMARK       I    between atoms: C37_37  and  C42_42 
REMARK       I    between atoms: C38_38  and  O8_64 
REMARK       I    between atoms: C42_42  and  N10_78 
REMARK       I    between atoms: C43_43  and  C44_44 
REMARK       I    between atoms: C43_43  and  C48_48 
REMARK       I    between atoms: C43_43  and  N10_78 
REMARK       I    between atoms: C44_44  and  C45_45 
REMARK       I    between atoms: C45_45  and  C46_46 
REMARK       I    between atoms: C46_46  and  C47_47 
REMARK       I    between atoms: C47_47  and  N11_79 
REMARK       I    between atoms: C48_48  and  N12_80 
REMARK       I    between atoms: C49_49  and  N12_80 
REMARK       I    between atoms: C51_51  and  C56_56 
REMARK       I    between atoms: C52_52  and  O11_67 
REMARK       I    between atoms: C56_56  and  N13_81 
ROOT
HETATM    1  C1  UNL     1       8.070  -2.963   1.090  1.00  0.00     0.210 C 
HETATM    2  C2  UNL     1       8.170  -0.590   0.825  1.00  0.00     0.084 A 
HETATM    3  C3  UNL     1       7.751   0.563   0.144  1.00  0.00     0.067 A 
HETATM    4  C4  UNL     1       8.177   1.836   0.560  1.00  0.00     0.049 A 
HETATM    5  C5  UNL     1       9.054   1.978   1.637  1.00  0.00     0.035 A 
HETATM    6  C6  UNL     1       9.493   0.830   2.295  1.00  0.00     0.032 A 
HETATM    7  C7  UNL     1       9.053  -0.441   1.898  1.00  0.00     0.040 A 
HETATM    8  C8  UNL     1      10.299   3.675   3.007  1.00  0.00     0.255 C 
HETATM    9  C9  UNL     1      10.434   5.219   3.079  1.00  0.00     0.309 C 
HETATM   10  C10 UNL     1      11.697   5.687   3.820  1.00  0.00     0.045 C 
HETATM   11  C11 UNL     1      12.966   5.719   2.954  1.00  0.00     0.004 C 
HETATM   12  C12 UNL     1      13.465   4.345   2.499  1.00  0.00     0.030 C 
HETATM   13  C13 UNL     1      14.763   4.404   1.687  1.00  0.00     0.267 C 
HETATM   14  C14 UNL     1       6.825   0.521  -1.014  1.00  0.00     0.255 C 
HETATM   15  C15 UNL     1       6.310  -0.536  -3.225  1.00  0.00     0.177 C 
HETATM   16  C16 UNL     1       7.170  -1.154  -4.345  1.00  0.00     0.035 C 
HETATM   17  C17 UNL     1       7.387  -2.677  -4.364  1.00  0.00     0.004 C 
HETATM   18  C18 UNL     1       7.780  -3.384  -3.066  1.00  0.00     0.030 C 
HETATM   19  C19 UNL     1       9.241  -3.228  -2.640  1.00  0.00     0.267 C 
HETATM   20  C20 UNL     1       4.910  -1.204  -3.085  1.00  0.00     0.245 C 
HETATM   21  C21 UNL     1       2.920  -1.139  -1.554  1.00  0.00     0.035 A 
HETATM   22  C22 UNL     1       2.225  -2.238  -2.055  1.00  0.00     0.049 A 
HETATM   23  C23 UNL     1       0.957  -2.592  -1.550  1.00  0.00     0.067 A 
HETATM   24  C24 UNL     1       0.376  -1.820  -0.518  1.00  0.00     0.084 A 
HETATM   25  C25 UNL     1       1.087  -0.724  -0.013  1.00  0.00     0.040 A 
HETATM   26  C26 UNL     1       2.345  -0.392  -0.524  1.00  0.00     0.032 A 
HETATM   27  C27 UNL     1      -1.479  -1.367   0.934  1.00  0.00     0.210 C 
HETATM   28  C28 UNL     1       0.309  -3.799  -2.176  1.00  0.00     0.255 C 
HETATM   29  C29 UNL     1      -1.689  -5.303  -2.193  1.00  0.00     0.177 C 
HETATM   30  C30 UNL     1      -1.810  -5.545  -3.709  1.00  0.00     0.035 C 
HETATM   31  C31 UNL     1      -2.385  -4.368  -4.508  1.00  0.00     0.004 C 
HETATM   32  C32 UNL     1      -2.418  -4.689  -6.007  1.00  0.00     0.030 C 
HETATM   33  C33 UNL     1      -3.042  -3.577  -6.854  1.00  0.00     0.267 C 
HETATM   34  C34 UNL     1      -3.095  -5.320  -1.546  1.00  0.00     0.245 C 
HETATM   35  C35 UNL     1      -4.868  -3.680  -0.847  1.00  0.00     0.035 A 
HETATM   36  C36 UNL     1      -5.181  -2.319  -0.833  1.00  0.00     0.049 A 
HETATM   37  C37 UNL     1      -6.384  -1.850  -0.271  1.00  0.00     0.067 A 
HETATM   38  C38 UNL     1      -7.306  -2.771   0.266  1.00  0.00     0.084 A 
HETATM   39  C39 UNL     1      -6.982  -4.132   0.253  1.00  0.00     0.040 A 
HETATM   40  C40 UNL     1      -5.773  -4.581  -0.295  1.00  0.00     0.032 A 
HETATM   41  C41 UNL     1      -9.485  -3.204   1.169  1.00  0.00     0.210 C 
HETATM   42  C42 UNL     1      -6.593  -0.366  -0.309  1.00  0.00     0.255 C 
HETATM   43  C43 UNL     1      -8.018   1.539   0.414  1.00  0.00     0.177 C 
HETATM   44  C44 UNL     1      -8.809   1.871  -0.867  1.00  0.00     0.035 C 
HETATM   45  C45 UNL     1      -9.834   0.830  -1.346  1.00  0.00     0.004 C 
HETATM   46  C46 UNL     1     -10.964   0.540  -0.358  1.00  0.00     0.030 C 
HETATM   47  C47 UNL     1     -12.003  -0.396  -0.978  1.00  0.00     0.267 C 
HETATM   48  C48 UNL     1      -8.789   1.895   1.709  1.00  0.00     0.245 C 
HETATM   49  C49 UNL     1      -9.715   3.909   2.887  1.00  0.00     0.035 A 
HETATM   50  C50 UNL     1     -10.263   3.255   3.993  1.00  0.00     0.049 A 
HETATM   51  C51 UNL     1     -10.967   3.973   4.977  1.00  0.00     0.067 A 
HETATM   52  C52 UNL     1     -11.094   5.361   4.859  1.00  0.00     0.084 A 
HETATM   53  C53 UNL     1     -10.557   6.019   3.752  1.00  0.00     0.040 A 
HETATM   54  C54 UNL     1      -9.866   5.297   2.777  1.00  0.00     0.032 A 
HETATM   55  C55 UNL     1     -10.983   6.740   6.694  1.00  0.00     0.210 C 
HETATM   56  C56 UNL     1     -11.535   3.246   6.142  1.00  0.00     0.252 C 
HETATM   57  O1  UNL     1       7.655  -1.787   0.409  1.00  0.00    -0.355 OA
HETATM   58  O2  UNL     1      10.849   2.929   3.810  1.00  0.00    -0.271 OA
HETATM   59  O3  UNL     1       5.901   1.327  -1.093  1.00  0.00    -0.268 OA
HETATM   60  O4  UNL     1       4.459  -1.954  -3.947  1.00  0.00    -0.271 OA
HETATM   61  O5  UNL     1      -0.859  -2.194  -0.047  1.00  0.00    -0.355 OA
HETATM   62  O6  UNL     1       0.930  -4.505  -2.961  1.00  0.00    -0.268 OA
HETATM   63  O7  UNL     1      -3.666  -6.375  -1.288  1.00  0.00    -0.271 OA
HETATM   64  O8  UNL     1      -8.479  -2.278   0.775  1.00  0.00    -0.355 OA
HETATM   65  O9  UNL     1      -5.871   0.347  -1.001  1.00  0.00    -0.268 OA
HETATM   66  O10 UNL     1      -9.147   1.023   2.499  1.00  0.00    -0.271 OA
HETATM   67  O11 UNL     1     -11.835   6.093   5.747  1.00  0.00    -0.355 OA
HETATM   68  O12 UNL     1     -11.501   3.692   7.281  1.00  0.00    -0.268 OA
HETATM   69  N1  UNL     1       9.439   3.288   1.986  1.00  0.00    -0.325 N 
HETATM   70  N2  UNL     1      15.901   4.847   2.482  1.00  0.00     0.078 N 
HETATM   71  N3  UNL     1       9.242   5.737   3.791  1.00  0.00     0.092 N 
HETATM   72  N4  UNL     1       7.061  -0.433  -1.970  1.00  0.00    -0.344 N 
HETATM   73  N5  UNL     1       9.602  -1.851  -2.315  1.00  0.00     0.078 N 
HETATM   74  N6  UNL     1       4.189  -0.732  -2.000  1.00  0.00    -0.325 N 
HETATM   75  N7  UNL     1      -0.997  -4.062  -1.825  1.00  0.00    -0.344 N 
HETATM   76  N8  UNL     1      -2.251  -2.352  -6.862  1.00  0.00     0.078 N 
HETATM   77  N9  UNL     1      -3.634  -4.047  -1.412  1.00  0.00    -0.325 N 
HETATM   78  N10 UNL     1      -7.601   0.149   0.461  1.00  0.00    -0.344 N 
HETATM   79  N11 UNL     1     -13.056  -0.695  -0.014  1.00  0.00     0.078 N 
HETATM   80  N12 UNL     1      -9.016   3.257   1.850  1.00  0.00    -0.325 N 
HETATM   81  N13 UNL     1     -12.098   2.026   5.883  1.00  0.00    -0.366 N 
HETATM   82  H61 UNL     1       9.042   4.035   1.427  1.00  0.00     0.169 HD
HETATM   83  H62 UNL     1      15.768   5.812   2.780  1.00  0.00     0.312 HD
HETATM   84  H63 UNL     1      16.740   4.845   1.903  1.00  0.00     0.312 HD
HETATM   85  H64 UNL     1       8.398   5.296   3.428  1.00  0.00     0.313 HD
HETATM   86  H65 UNL     1       9.300   5.438   4.768  1.00  0.00     0.313 HD
HETATM   87  H66 UNL     1       7.862  -1.056  -1.833  1.00  0.00     0.163 HD
HETATM   88  H67 UNL     1      10.499  -1.860  -1.824  1.00  0.00     0.312 HD
HETATM   89  H68 UNL     1       9.797  -1.353  -3.185  1.00  0.00     0.312 HD
HETATM   90  H69 UNL     1       4.607   0.065  -1.521  1.00  0.00     0.169 HD
HETATM   91  H70 UNL     1      -1.270  -3.638  -0.942  1.00  0.00     0.163 HD
HETATM   92  H71 UNL     1      -2.184  -1.973  -5.919  1.00  0.00     0.312 HD
HETATM   93  H72 UNL     1      -1.292  -2.570  -7.136  1.00  0.00     0.312 HD
HETATM   94  H73 UNL     1      -3.069  -3.299  -1.804  1.00  0.00     0.169 HD
HETATM   95  H74 UNL     1      -8.183  -0.490   1.002  1.00  0.00     0.163 HD
HETATM   96  H75 UNL     1     -13.770  -1.267  -0.463  1.00  0.00     0.312 HD
HETATM   97  H76 UNL     1     -13.520   0.169   0.266  1.00  0.00     0.312 HD
HETATM   98  H77 UNL     1      -8.640   3.857   1.126  1.00  0.00     0.169 HD
HETATM   99  H78 UNL     1     -12.256   1.676   4.948  1.00  0.00     0.159 HD
HETATM  100  H79 UNL     1     -12.545   1.552   6.656  1.00  0.00     0.159 HD
ENDROOT
TORSDOF 40
