REMARK  11 active torsions:
REMARK  status: ('A' for Active; 'I' for Inactive)
REMARK    1  A    between atoms: C3_3  and  C23_23 
REMARK    2  A    between atoms: C5_5  and  C8_8 
REMARK       I    between atoms: C8_8  and  N1_35 
REMARK    3  A    between atoms: C9_9  and  N1_35 
REMARK    4  A    between atoms: C11_11  and  C22_22 
REMARK    5  A    between atoms: C12_12  and  C15_15 
REMARK    6  A    between atoms: C15_15  and  N2_36 
REMARK    7  A    between atoms: C20_20  and  C21_21 
REMARK    8  A    between atoms: C20_20  and  N3_37 
REMARK    9  A    between atoms: C21_21  and  O2_34 
REMARK   10  A    between atoms: C24_24  and  C25_25 
REMARK   11  A    between atoms: C30_30  and  C31_31 
ROOT
HETATM    1  C1  UNL     1       4.643   3.498   1.824  1.00  0.00     0.049 C 
HETATM    2  C2  UNL     1       3.465   2.763   1.244  1.00  0.00    -0.043 A 
HETATM    3  C3  UNL     1       3.635   1.622   0.439  1.00  0.00     0.025 A 
HETATM    4  C4  UNL     1       2.521   0.962  -0.090  1.00  0.00     0.038 A 
HETATM    5  C5  UNL     1       1.230   1.426   0.184  1.00  0.00     0.033 A 
HETATM    6  C6  UNL     1       1.054   2.572   0.966  1.00  0.00     0.017 A 
HETATM    7  C7  UNL     1       2.166   3.232   1.495  1.00  0.00     0.009 A 
ENDROOT
BRANCH   5   8
HETATM    8  C8  UNL     1       0.073   0.692  -0.401  1.00  0.00     0.256 C 
HETATM    9  O1  UNL     1       0.205   0.194  -1.512  1.00  0.00    -0.267 OA
HETATM   10  N1  UNL     1      -1.041   0.620   0.416  1.00  0.00    -0.323 N 
HETATM   11  H30 UNL     1      -0.938   0.968   1.360  1.00  0.00     0.169 HD
BRANCH  10  12
HETATM   12  C9  UNL     1      -2.286   0.027   0.117  1.00  0.00     0.035 A 
HETATM   13  C10 UNL     1      -2.618  -0.515  -1.125  1.00  0.00     0.046 A 
HETATM   14  C11 UNL     1      -3.884  -1.096  -1.367  1.00  0.00     0.058 A 
HETATM   15  C12 UNL     1      -4.844  -1.103  -0.330  1.00  0.00    -0.015 A 
HETATM   16  C13 UNL     1      -4.500  -0.557   0.918  1.00  0.00     0.012 A 
HETATM   17  C14 UNL     1      -3.239   0.000   1.137  1.00  0.00     0.030 A 
BRANCH  14  18
HETATM   18  C22 UNL     1      -4.164  -1.658  -2.748  1.00  0.00     0.418 C 
HETATM   19  F1  UNL     1      -4.809  -0.783  -3.568  1.00  0.00    -0.166 F 
HETATM   20  F2  UNL     1      -3.020  -1.993  -3.419  1.00  0.00    -0.166 F 
HETATM   21  F3  UNL     1      -4.900  -2.807  -2.742  1.00  0.00    -0.166 F 
ENDBRANCH  14  18
BRANCH  15  22
HETATM   22  C15 UNL     1      -6.238  -1.683  -0.510  1.00  0.00     0.311 C 
BRANCH  22  23
HETATM   23  N2  UNL     1      -6.981  -1.011  -1.584  1.00  0.00     0.096 N 
HETATM   24  C16 UNL     1      -8.115  -1.838  -2.032  1.00  0.00     0.303 C 
HETATM   25  C17 UNL     1      -9.261  -2.001  -0.997  1.00  0.00     0.302 C 
HETATM   26  N3  UNL     1      -9.360  -0.898  -0.012  1.00  0.00     0.093 N 
HETATM   27  C18 UNL     1      -8.943   0.366  -0.641  1.00  0.00     0.302 C 
HETATM   28  C19 UNL     1      -7.484   0.320  -1.174  1.00  0.00     0.303 C 
BRANCH  26  29
HETATM   29  C20 UNL     1     -10.717  -0.785   0.563  1.00  0.00     0.298 C 
BRANCH  29  30
HETATM   30  C21 UNL     1     -11.057  -1.988   1.456  1.00  0.00     0.194 C 
BRANCH  30  31
HETATM   31  O2  UNL     1     -10.012  -2.191   2.407  1.00  0.00    -0.399 OA
HETATM   32  H29 UNL     1      -9.195  -1.933   1.933  1.00  0.00     0.209 HD
ENDBRANCH  30  31
ENDBRANCH  29  30
ENDBRANCH  26  29
ENDBRANCH  22  23
ENDBRANCH  15  22
ENDBRANCH  10  12
ENDBRANCH   5   8
BRANCH   3  33
HETATM   33  C23 UNL     1       4.939   1.108   0.139  1.00  0.00    -0.059 C 
HETATM   34  C24 UNL     1       6.032   0.679  -0.113  1.00  0.00    -0.042 C 
BRANCH  34  35
HETATM   35  C25 UNL     1       7.325   0.174  -0.411  1.00  0.00     0.104 A 
HETATM   36  C26 UNL     1       7.685  -0.630  -1.463  1.00  0.00     0.131 A 
HETATM   37  N4  UNL     1       9.030  -0.830  -1.300  1.00  0.00    -0.342 N 
HETATM   38  C27 UNL     1       9.422  -0.150  -0.171  1.00  0.00     0.153 A 
HETATM   39  C32 UNL     1       9.870  -1.620  -2.168  1.00  0.00     0.157 C 
HETATM   40  C28 UNL     1      10.745  -0.096   0.359  1.00  0.00     0.151 A 
HETATM   41  N5  UNL     1       8.396   0.471   0.387  1.00  0.00    -0.331 N 
HETATM   42  N6  UNL     1      11.824  -0.677  -0.125  1.00  0.00    -0.347 N 
HETATM   43  N7  UNL     1      11.037   0.611   1.496  1.00  0.00    -0.334 N 
HETATM   44  C29 UNL     1      12.842  -0.330   0.729  1.00  0.00     0.124 A 
ATOM     45  H6  UNL     1      11.889  -1.261  -0.958  1.00  0.00     0.167 HD
HETATM   46  C30 UNL     1      12.377   0.471   1.747  1.00  0.00     0.133 A 
HETATM   47  H31 UNL     1      10.354   1.134   2.032  1.00  0.00     0.167 HD
ATOM     48  H5  UNL     1       8.402   1.046   1.229  1.00  0.00     0.168 HD
BRANCH  46  49
HETATM   49  C31 UNL     1      13.048   1.096   2.894  1.00  0.00     0.433 C 
HETATM   50  F4  UNL     1      12.183   1.829   3.641  1.00  0.00    -0.165 F 
HETATM   51  F5  UNL     1      14.040   1.932   2.504  1.00  0.00    -0.165 F 
HETATM   52  F6  UNL     1      13.600   0.175   3.719  1.00  0.00    -0.165 F 
ENDBRANCH  46  49
ENDBRANCH  34  35
ENDBRANCH   3  33
TORSDOF 11
