REMARK  27 active torsions:
REMARK  status: ('A' for Active; 'I' for Inactive)
REMARK    1  A    between atoms: C3_3  and  C5_5 
REMARK    2  A    between atoms: C8_8  and  C11_11 
REMARK    3  A    between atoms: C11_11  and  C12_12 
REMARK    4  A    between atoms: C11_11  and  N6_46 
REMARK    5  A    between atoms: C12_12  and  C13_13 
REMARK    6  A    between atoms: C13_13  and  N3_40 
REMARK    7  A    between atoms: C14_14  and  C15_15 
REMARK       I    between atoms: C14_14  and  N3_40 
REMARK    8  A    between atoms: C15_15  and  N4_42 
REMARK    9  A    between atoms: C16_16  and  C18_18 
REMARK   10  A    between atoms: C16_16  and  N4_42 
REMARK   11  A    between atoms: C18_18  and  N5_44 
REMARK   12  A    between atoms: C19_19  and  C20_20 
REMARK       I    between atoms: C19_19  and  N5_44 
REMARK   13  A    between atoms: C21_21  and  C22_22 
REMARK   14  A    between atoms: C21_21  and  N6_46 
REMARK   15  A    between atoms: C22_22  and  C23_23 
REMARK   16  A    between atoms: C23_23  and  C24_24 
REMARK   17  A    between atoms: C24_24  and  C25_25 
REMARK   18  A    between atoms: C25_25  and  N7_47 
REMARK   19  A    between atoms: C26_26  and  C27_27 
REMARK   20  A    between atoms: C26_26  and  N7_47 
REMARK   21  A    between atoms: C27_27  and  C28_28 
REMARK   22  A    between atoms: C28_28  and  C29_29 
REMARK   23  A    between atoms: C29_29  and  C30_30 
REMARK   24  A    between atoms: C30_30  and  O4_52 
REMARK   25  A    between atoms: C31_31  and  N2_39 
REMARK   26  A    between atoms: C34_34  and  S2_56 
REMARK   27  A    between atoms: N8_48  and  S2_56 
ROOT
HETATM    1  C11 UNL     1      -0.169   0.250  -2.381  1.00  0.00     0.324 C 
ENDROOT
BRANCH   1   2
HETATM    2  C8  UNL     1      -1.606  -0.218  -2.148  1.00  0.00    -0.018 A 
HETATM    3  C7  UNL     1      -2.333   0.307  -1.072  1.00  0.00     0.011 A 
HETATM    4  C6  UNL     1      -3.621  -0.143  -0.785  1.00  0.00     0.014 A 
HETATM    5  C5  UNL     1      -4.205  -1.143  -1.565  1.00  0.00    -0.007 A 
HETATM    6  C10 UNL     1      -3.502  -1.645  -2.670  1.00  0.00     0.014 A 
HETATM    7  C9  UNL     1      -2.215  -1.183  -2.962  1.00  0.00     0.011 A 
BRANCH   5   8
HETATM    8  C3  UNL     1      -5.560  -1.611  -1.289  1.00  0.00     0.069 A 
HETATM    9  C4  UNL     1      -6.639  -1.506  -2.148  1.00  0.00     0.058 A 
HETATM   10  C2  UNL     1      -7.756  -1.931  -1.422  1.00  0.00     0.024 A 
HETATM   11  C1  UNL     1      -9.168  -1.974  -1.861  1.00  0.00     0.070 C 
HETATM   12  N1  UNL     1      -7.430  -2.305  -0.187  1.00  0.00    -0.298 N 
HETATM   13  N2  UNL     1      -6.060  -2.150  -0.100  1.00  0.00    -0.256 N 
ATOM     14  H1  UNL     1      -8.060  -2.637   0.543  1.00  0.00     0.187 HD
BRANCH  13  15
HETATM   15  C31 UNL     1      -5.408  -2.595   1.097  1.00  0.00     0.057 A 
HETATM   16  C32 UNL     1      -6.207  -2.869   2.224  1.00  0.00     0.033 A 
HETATM   17  C33 UNL     1      -5.636  -3.328   3.413  1.00  0.00     0.027 A 
HETATM   18  C34 UNL     1      -4.257  -3.536   3.490  1.00  0.00     0.074 A 
HETATM   19  C35 UNL     1      -3.449  -3.274   2.385  1.00  0.00     0.027 A 
HETATM   20  C36 UNL     1      -4.024  -2.800   1.192  1.00  0.00     0.033 A 
BRANCH  18  21
HETATM   21  S2  UNL     1      -3.578  -4.220   4.985  1.00  0.00     0.239 S 
HETATM   22  O5  UNL     1      -3.111  -5.551   4.658  1.00  0.00    -0.206 OA
HETATM   23  O6  UNL     1      -4.604  -4.072   6.008  1.00  0.00    -0.206 OA
BRANCH  21  24
HETATM   24  N8  UNL     1      -2.316  -3.240   5.423  1.00  0.00    -0.225 NA
HETATM   25  H46 UNL     1      -1.386  -3.728   5.351  1.00  0.00     0.136 HD
HETATM   26  H47 UNL     1      -2.098  -2.453   4.768  1.00  0.00     0.136 HD
ENDBRANCH  21  24
ENDBRANCH  18  21
ENDBRANCH  13  15
ENDBRANCH   5   8
ENDBRANCH   1   2
BRANCH   1  27
HETATM   27  C12 UNL     1      -0.099   1.216  -3.600  1.00  0.00     0.181 C 
HETATM   28  O1  UNL     1       0.143   0.824  -4.757  1.00  0.00    -0.293 OA
BRANCH  27  29
HETATM   29  C13 UNL     1      -0.455   2.685  -3.358  1.00  0.00     0.203 C 
BRANCH  29  30
HETATM   30  N3  UNL     1       0.533   3.296  -2.465  1.00  0.00    -0.353 N 
HETATM   31  C14 UNL     1      -0.026   3.792  -1.345  1.00  0.00     0.235 C 
HETATM   32  O2  UNL     1      -0.996   4.552  -1.320  1.00  0.00    -0.272 OA
ATOM     33  H3  UNL     1       1.531   3.341  -2.669  1.00  0.00     0.162 HD
BRANCH  31  34
HETATM   34  C15 UNL     1       0.753   3.383  -0.069  1.00  0.00     0.222 C 
BRANCH  34  35
HETATM   35  N4  UNL     1       0.079   2.288   0.659  1.00  0.00    -0.384 N 
ATOM     36  H4  UNL     1      -0.844   1.958   0.378  1.00  0.00     0.160 HD
BRANCH  35  37
HETATM   37  C16 UNL     1       0.738   1.730   1.727  1.00  0.00     0.013 C 
HETATM   38  C17 UNL     1       1.898   2.100   2.307  1.00  0.00     0.039 C 
BRANCH  37  39
HETATM   39  C18 UNL     1      -0.048   0.495   2.310  1.00  0.00     0.178 C 
BRANCH  39  40
HETATM   40  N5  UNL     1       0.813  -0.434   3.088  1.00  0.00    -0.355 N 
HETATM   41  C19 UNL     1       0.182  -1.494   3.630  1.00  0.00     0.228 C 
HETATM   42  O3  UNL     1      -1.034  -1.670   3.737  1.00  0.00    -0.273 OA
ATOM     43  H5  UNL     1       1.815  -0.279   3.204  1.00  0.00     0.162 HD
BRANCH  41  44
HETATM   44  C20 UNL     1       1.244  -2.502   4.158  1.00  0.00     0.188 C 
HETATM   45  S1  UNL     1       0.651  -4.111   4.927  1.00  0.00    -0.088 SA
ENDBRANCH  41  44
ENDBRANCH  39  40
ENDBRANCH  37  39
ENDBRANCH  35  37
ENDBRANCH  34  35
ENDBRANCH  31  34
ENDBRANCH  29  30
ENDBRANCH  27  29
ENDBRANCH   1  27
BRANCH   1  46
HETATM   46  N6  UNL     1       0.716  -0.963  -2.582  1.00  0.00     0.099 N 
HETATM   47  H44 UNL     1       0.464  -1.563  -1.792  1.00  0.00     0.317 HD
BRANCH  46  48
HETATM   48  C21 UNL     1       2.121  -0.577  -2.378  1.00  0.00     0.271 C 
BRANCH  48  49
HETATM   49  C22 UNL     1       2.576  -0.796  -0.929  1.00  0.00     0.030 C 
BRANCH  49  50
HETATM   50  C23 UNL     1       3.937  -0.145  -0.674  1.00  0.00     0.003 C 
BRANCH  50  51
HETATM   51  C24 UNL     1       4.434  -0.389   0.751  1.00  0.00     0.030 C 
BRANCH  51  52
HETATM   52  C25 UNL     1       5.285   0.743   1.341  1.00  0.00     0.269 C 
BRANCH  52  53
HETATM   53  N7  UNL     1       6.687   0.834   0.889  1.00  0.00     0.083 N 
HETATM   54  H45 UNL     1       7.171   1.398   1.585  1.00  0.00     0.315 HD
BRANCH  53  55
HETATM   55  C26 UNL     1       6.881   1.453  -0.422  1.00  0.00     0.269 C 
BRANCH  55  56
HETATM   56  C27 UNL     1       6.700   2.981  -0.476  1.00  0.00     0.030 C 
BRANCH  56  57
HETATM   57  C28 UNL     1       5.355   3.458  -1.033  1.00  0.00     0.004 C 
BRANCH  57  58
HETATM   58  C29 UNL     1       5.200   3.189  -2.536  1.00  0.00     0.026 C 
BRANCH  58  59
HETATM   59  C30 UNL     1       3.747   3.282  -2.982  1.00  0.00     0.164 C 
BRANCH  59  60
HETATM   60  O4  UNL     1       3.252   4.602  -2.809  1.00  0.00    -0.401 OA
HETATM   61  H48 UNL     1       2.290   4.451  -2.605  1.00  0.00     0.209 HD
ENDBRANCH  59  60
ENDBRANCH  58  59
ENDBRANCH  57  58
ENDBRANCH  56  57
ENDBRANCH  55  56
ENDBRANCH  53  55
ENDBRANCH  52  53
ENDBRANCH  51  52
ENDBRANCH  50  51
ENDBRANCH  49  50
ENDBRANCH  48  49
ENDBRANCH  46  48
ENDBRANCH   1  46
TORSDOF 27
