REMARK  12 active torsions:
REMARK  status: ('A' for Active; 'I' for Inactive)
REMARK    1  A    between atoms: C3_3  and  C23_23 
REMARK    2  A    between atoms: C5_5  and  C8_8 
REMARK       I    between atoms: C8_8  and  N1_33 
REMARK    3  A    between atoms: C9_9  and  N1_33 
REMARK    4  A    between atoms: C11_11  and  C22_22 
REMARK    5  A    between atoms: C12_12  and  C15_15 
REMARK    6  A    between atoms: C15_15  and  N2_34 
REMARK    7  A    between atoms: C20_20  and  C21_21 
REMARK    8  A    between atoms: C20_20  and  N3_35 
REMARK    9  A    between atoms: C21_21  and  O2_32 
REMARK   10  A    between atoms: C24_24  and  C25_25 
REMARK   11  A    between atoms: C27_27  and  C30_30 
REMARK   12  A    between atoms: C28_28  and  N5_38 
ROOT
HETATM    1  C8  UNL     1       1.003  -1.493   2.830  1.00  0.00     0.256 C 
HETATM    2  O1  UNL     1       0.503  -1.144   3.892  1.00  0.00    -0.267 OA
HETATM    3  N1  UNL     1       0.373  -1.577   1.601  1.00  0.00    -0.323 N 
HETATM    4  H28 UNL     1       0.891  -2.013   0.850  1.00  0.00     0.169 HD
ENDROOT
BRANCH   1   5
HETATM    5  C5  UNL     1       2.430  -1.917   2.832  1.00  0.00     0.033 A 
HETATM    6  C4  UNL     1       3.285  -1.622   1.763  1.00  0.00     0.038 A 
HETATM    7  C3  UNL     1       4.624  -2.033   1.801  1.00  0.00     0.025 A 
HETATM    8  C2  UNL     1       5.120  -2.738   2.913  1.00  0.00    -0.043 A 
HETATM    9  C1  UNL     1       6.554  -3.191   2.985  1.00  0.00     0.049 C 
HETATM   10  C7  UNL     1       4.258  -3.009   3.986  1.00  0.00     0.009 A 
HETATM   11  C6  UNL     1       2.924  -2.597   3.949  1.00  0.00     0.017 A 
BRANCH   7  12
HETATM   12  C23 UNL     1       5.467  -1.707   0.688  1.00  0.00    -0.061 C 
HETATM   13  C24 UNL     1       6.174  -1.434  -0.244  1.00  0.00    -0.060 C 
BRANCH  13  14
HETATM   14  C25 UNL     1       7.020  -1.111  -1.348  1.00  0.00     0.034 A 
HETATM   15  C26 UNL     1       7.444   0.196  -1.566  1.00  0.00     0.038 A 
HETATM   16  C27 UNL     1       8.269   0.470  -2.662  1.00  0.00     0.018 A 
HETATM   17  C28 UNL     1       8.645  -0.575  -3.518  1.00  0.00     0.089 A 
HETATM   18  N4  UNL     1       8.247  -1.846  -3.298  1.00  0.00    -0.355 N 
HETATM   19  C29 UNL     1       7.444  -2.088  -2.235  1.00  0.00     0.110 A 
ATOM     20  H4  UNL     1       8.543  -2.603  -3.915  1.00  0.00     0.166 HD
BRANCH  16  21
HETATM   21  C30 UNL     1       8.680   1.872  -2.872  1.00  0.00     0.095 C 
HETATM   22  N6  UNL     1       9.354   2.267  -3.905  1.00  0.00    -0.407 N 
HETATM   23  H31 UNL     1       9.518   3.281  -3.844  1.00  0.00     0.155 HD
ATOM     24  H6  UNL     1       9.674   1.665  -4.664  1.00  0.00     0.155 HD
ENDBRANCH  16  21
BRANCH  17  25
HETATM   25  N5  UNL     1       9.538  -0.384  -4.584  1.00  0.00    -0.288 NA
HETATM   26  H29 UNL     1       9.280   0.498  -5.039  1.00  0.00     0.125 HD
HETATM   27  H30 UNL     1      10.453  -0.175  -4.193  1.00  0.00     0.125 HD
ENDBRANCH  17  25
ENDBRANCH  13  14
ENDBRANCH   7  12
ENDBRANCH   1   5
BRANCH   3  28
HETATM   28  C9  UNL     1      -0.952  -1.204   1.294  1.00  0.00     0.035 A 
HETATM   29  C10 UNL     1      -1.403  -1.454  -0.008  1.00  0.00     0.046 A 
HETATM   30  C11 UNL     1      -2.713  -1.120  -0.421  1.00  0.00     0.058 A 
HETATM   31  C12 UNL     1      -3.578  -0.495   0.503  1.00  0.00    -0.015 A 
HETATM   32  C13 UNL     1      -3.118  -0.251   1.808  1.00  0.00     0.012 A 
HETATM   33  C14 UNL     1      -1.821  -0.600   2.197  1.00  0.00     0.030 A 
BRANCH  30  34
HETATM   34  C22 UNL     1      -3.116  -1.421  -1.851  1.00  0.00     0.418 C 
HETATM   35  F1  UNL     1      -2.973  -0.358  -2.688  1.00  0.00    -0.166 F 
HETATM   36  F2  UNL     1      -4.394  -1.871  -1.991  1.00  0.00    -0.166 F 
HETATM   37  F3  UNL     1      -2.342  -2.408  -2.402  1.00  0.00    -0.166 F 
ENDBRANCH  30  34
BRANCH  31  38
HETATM   38  C15 UNL     1      -4.991  -0.075   0.140  1.00  0.00     0.311 C 
BRANCH  38  39
HETATM   39  N2  UNL     1      -5.030   0.886  -0.965  1.00  0.00     0.096 N 
HETATM   40  C16 UNL     1      -4.484   2.210  -0.611  1.00  0.00     0.303 C 
HETATM   41  C17 UNL     1      -5.438   3.108   0.215  1.00  0.00     0.302 C 
HETATM   42  N3  UNL     1      -6.831   3.187  -0.285  1.00  0.00     0.093 N 
HETATM   43  C18 UNL     1      -6.963   2.453  -1.557  1.00  0.00     0.302 C 
HETATM   44  C19 UNL     1      -6.403   1.012  -1.511  1.00  0.00     0.303 C 
BRANCH  42  45
HETATM   45  C20 UNL     1      -7.786   2.765   0.757  1.00  0.00     0.298 C 
BRANCH  45  46
HETATM   46  C21 UNL     1      -9.273   2.882   0.373  1.00  0.00     0.194 C 
BRANCH  46  47
HETATM   47  O2  UNL     1      -9.735   1.717  -0.310  1.00  0.00    -0.399 OA
HETATM   48  H27 UNL     1      -9.667   0.971   0.309  1.00  0.00     0.209 HD
ENDBRANCH  46  47
ENDBRANCH  45  46
ENDBRANCH  42  45
ENDBRANCH  38  39
ENDBRANCH  31  38
ENDBRANCH   3  28
TORSDOF 12
