REMARK  21 active torsions:
REMARK  status: ('A' for Active; 'I' for Inactive)
REMARK    1  A    between atoms: C3_3  and  C7_7 
REMARK    2  A    between atoms: C4_4  and  O2_33 
REMARK    3  A    between atoms: C6_6  and  O1_32 
REMARK    4  A    between atoms: C9_9  and  C10_10 
REMARK    5  A    between atoms: C10_10  and  C11_11 
REMARK    6  A    between atoms: C11_11  and  C12_12 
REMARK    7  A    between atoms: C12_12  and  C13_13 
REMARK    8  A    between atoms: C13_13  and  C14_14 
REMARK    9  A    between atoms: C14_14  and  C15_15 
REMARK   10  A    between atoms: C15_15  and  C16_16 
REMARK       I    between atoms: C16_16  and  N2_43 
REMARK   11  A    between atoms: C17_17  and  C18_18 
REMARK   12  A    between atoms: C17_17  and  O7_38 
REMARK   13  A    between atoms: C17_17  and  N2_43 
REMARK   14  A    between atoms: C18_18  and  C19_19 
REMARK   15  A    between atoms: C19_19  and  C20_20 
REMARK   16  A    between atoms: C20_20  and  C21_21 
REMARK   17  A    between atoms: C21_21  and  C22_22 
REMARK       I    between atoms: C22_22  and  N3_44 
REMARK   18  A    between atoms: C23_23  and  N3_44 
REMARK   19  A    between atoms: C24_24  and  C26_26 
REMARK   20  A    between atoms: C27_27  and  O6_37 
REMARK   21  A    between atoms: C29_29  and  O5_36 
ROOT
HETATM    1  C17 UNL     1      -1.419   1.153   2.849  1.00  0.00     0.220 C 
ENDROOT
BRANCH   1   2
HETATM    2  C18 UNL     1      -2.249   0.079   2.138  1.00  0.00     0.053 C 
BRANCH   2   3
HETATM    3  C19 UNL     1      -2.643   0.365   0.680  1.00  0.00     0.005 C 
BRANCH   3   4
HETATM    4  C20 UNL     1      -3.492   1.614   0.417  1.00  0.00     0.009 C 
BRANCH   4   5
HETATM    5  C21 UNL     1      -4.811   1.674   1.188  1.00  0.00     0.103 C 
BRANCH   5   6
HETATM    6  C22 UNL     1      -5.832   0.637   0.742  1.00  0.00     0.223 C 
HETATM    7  O4  UNL     1      -5.707   0.008  -0.302  1.00  0.00    -0.273 OA
HETATM    8  N3  UNL     1      -6.880   0.559   1.635  1.00  0.00    -0.307 N 
HETATM    9  H36 UNL     1      -6.909   1.152   2.451  1.00  0.00     0.171 HD
BRANCH   8  10
HETATM   10  C23 UNL     1      -7.926  -0.304   1.471  1.00  0.00     0.151 A 
HETATM   11  S2  UNL     1      -9.118  -0.188   2.685  1.00  0.00    -0.063 SA
HETATM   12  C25 UNL     1     -10.013  -1.419   1.890  1.00  0.00     0.083 A 
HETATM   13  C24 UNL     1      -9.333  -1.857   0.768  1.00  0.00     0.053 A 
HETATM   14  N4  UNL     1      -8.136  -1.187   0.533  1.00  0.00    -0.335 N 
ATOM     15  H4  UNL     1      -7.514  -1.361  -0.257  1.00  0.00     0.168 HD
BRANCH  13  16
HETATM   16  C26 UNL     1      -9.795  -2.890  -0.162  1.00  0.00     0.024 A 
HETATM   17  C27 UNL     1     -10.706  -3.909   0.168  1.00  0.00     0.080 A 
HETATM   18  C28 UNL     1     -11.097  -4.858  -0.784  1.00  0.00     0.074 A 
HETATM   19  C29 UNL     1     -10.573  -4.802  -2.070  1.00  0.00     0.068 A 
HETATM   20  C30 UNL     1      -9.661  -3.818  -2.424  1.00  0.00     0.037 A 
HETATM   21  C31 UNL     1      -9.276  -2.870  -1.471  1.00  0.00     0.019 A 
BRANCH  17  22
HETATM   22  O6  UNL     1     -11.219  -4.014   1.434  1.00  0.00    -0.360 OA
HETATM   23  H33 UNL     1     -11.743  -4.831   1.492  1.00  0.00     0.217 HD
ENDBRANCH  17  22
BRANCH  19  24
HETATM   24  O5  UNL     1     -10.980  -5.749  -2.963  1.00  0.00    -0.361 OA
HETATM   25  H32 UNL     1     -10.517  -5.597  -3.804  1.00  0.00     0.217 HD
ENDBRANCH  19  24
ENDBRANCH  13  16
ENDBRANCH   8  10
ENDBRANCH   5   6
ENDBRANCH   4   5
ENDBRANCH   3   4
ENDBRANCH   2   3
ENDBRANCH   1   2
BRANCH   1  26
HETATM   26  O7  UNL     1      -2.176   2.324   3.060  1.00  0.00    -0.377 OA
HETATM   27  H34 UNL     1      -1.574   2.918   3.539  1.00  0.00     0.212 HD
ENDBRANCH   1  26
BRANCH   1  28
HETATM   28  N2  UNL     1      -0.273   1.580   2.107  1.00  0.00    -0.335 N 
HETATM   29  C16 UNL     1       0.874   0.817   2.084  1.00  0.00     0.219 C 
HETATM   30  O3  UNL     1       1.048  -0.155   2.809  1.00  0.00    -0.274 OA
HETATM   31  H35 UNL     1      -0.448   2.211   1.338  1.00  0.00     0.165 HD
BRANCH  29  32
HETATM   32  C15 UNL     1       1.901   1.331   1.092  1.00  0.00     0.103 C 
BRANCH  32  33
HETATM   33  C14 UNL     1       3.131   0.428   1.016  1.00  0.00     0.009 C 
BRANCH  33  34
HETATM   34  C13 UNL     1       4.141   0.869  -0.047  1.00  0.00     0.000 C 
BRANCH  34  35
HETATM   35  C12 UNL     1       4.747   2.262   0.155  1.00  0.00     0.000 C 
BRANCH  35  36
HETATM   36  C11 UNL     1       5.453   2.494   1.497  1.00  0.00     0.006 C 
BRANCH  36  37
HETATM   37  C10 UNL     1       6.599   1.528   1.814  1.00  0.00     0.065 C 
BRANCH  37  38
HETATM   38  C9  UNL     1       7.728   1.627   0.835  1.00  0.00     0.051 A 
HETATM   39  S1  UNL     1       9.003   2.752   1.077  1.00  0.00    -0.086 SA
HETATM   40  C8  UNL     1       9.733   2.218  -0.378  1.00  0.00     0.082 A 
HETATM   41  C7  UNL     1       8.984   1.208  -0.950  1.00  0.00     0.052 A 
HETATM   42  N1  UNL     1       7.825   0.890  -0.251  1.00  0.00    -0.353 N 
ATOM     43  H1  UNL     1       7.146   0.185  -0.539  1.00  0.00     0.166 HD
BRANCH  41  44
HETATM   44  C3  UNL     1       9.299   0.537  -2.211  1.00  0.00     0.024 A 
HETATM   45  C2  UNL     1       8.228   0.058  -2.987  1.00  0.00     0.019 A 
HETATM   46  C1  UNL     1       8.451  -0.591  -4.203  1.00  0.00     0.037 A 
HETATM   47  C6  UNL     1       9.750  -0.773  -4.654  1.00  0.00     0.068 A 
HETATM   48  C5  UNL     1      10.834  -0.322  -3.907  1.00  0.00     0.074 A 
HETATM   49  C4  UNL     1      10.606   0.327  -2.687  1.00  0.00     0.080 A 
BRANCH  47  50
HETATM   50  O1  UNL     1       9.921  -1.409  -5.848  1.00  0.00    -0.361 OA
HETATM   51  H30 UNL     1      10.870  -1.478  -6.040  1.00  0.00     0.217 HD
ENDBRANCH  47  50
BRANCH  49  52
HETATM   52  O2  UNL     1      11.689   0.739  -1.954  1.00  0.00    -0.360 OA
HETATM   53  H31 UNL     1      12.502   0.393  -2.357  1.00  0.00     0.217 HD
ENDBRANCH  49  52
ENDBRANCH  41  44
ENDBRANCH  37  38
ENDBRANCH  36  37
ENDBRANCH  35  36
ENDBRANCH  34  35
ENDBRANCH  33  34
ENDBRANCH  32  33
ENDBRANCH  29  32
ENDBRANCH   1  28
TORSDOF 21
