REMARK  30 active torsions:
REMARK  status: ('A' for Active; 'I' for Inactive)
REMARK    1  A    between atoms: C2_2  and  O1_46 
REMARK    2  A    between atoms: C3_3  and  O13_58 
REMARK    3  A    between atoms: C6_6  and  C8_8 
REMARK    4  A    between atoms: C13_13  and  N4_65 
REMARK       I    between atoms: C15_15  and  N4_65 
REMARK       I    between atoms: C15_15  and  N5_66 
REMARK    5  A    between atoms: C16_16  and  C17_17 
REMARK    6  A    between atoms: C16_16  and  N5_66 
REMARK    7  A    between atoms: C17_17  and  C18_18 
REMARK    8  A    between atoms: C18_18  and  C19_19 
REMARK    9  A    between atoms: C19_19  and  O3_48 
REMARK   10  A    between atoms: C20_20  and  O3_48 
REMARK   11  A    between atoms: C20_20  and  O5_50 
REMARK   12  A    between atoms: C21_21  and  C22_22 
REMARK   13  A    between atoms: C21_21  and  O5_50 
REMARK   14  A    between atoms: C22_22  and  C23_23 
REMARK   15  A    between atoms: C23_23  and  C24_24 
REMARK   16  A    between atoms: C24_24  and  N6_67 
REMARK   17  A    between atoms: C25_25  and  C26_26 
REMARK   18  A    between atoms: C25_25  and  N6_67 
REMARK   19  A    between atoms: C26_26  and  C27_27 
REMARK   20  A    between atoms: C26_26  and  O7_52 
REMARK   21  A    between atoms: C27_27  and  O6_51 
REMARK       I    between atoms: C28_28  and  N6_67 
REMARK       I    between atoms: C28_28  and  N7_68 
REMARK   22  A    between atoms: C29_29  and  N7_68 
REMARK   23  A    between atoms: C31_31  and  C36_36 
REMARK   24  A    between atoms: C38_38  and  O10_55 
REMARK   25  A    between atoms: C39_39  and  O9_54 
REMARK   26  A    between atoms: C43_43  and  C44_44 
REMARK   27  A    between atoms: C43_43  and  N5_66 
REMARK   28  A    between atoms: C44_44  and  C45_45 
REMARK   29  A    between atoms: C44_44  and  O12_57 
REMARK   30  A    between atoms: C45_45  and  O11_56 
ROOT
HETATM    1  C20 UNL     1       0.113   3.701   4.592  1.00  0.00     0.406 C 
HETATM    2  O4  UNL     1       1.316   3.793   4.398  1.00  0.00    -0.230 OA
ENDROOT
BRANCH   1   3
HETATM    3  O3  UNL     1      -0.788   4.711   4.533  1.00  0.00    -0.298 OA
BRANCH   3   4
HETATM    4  C19 UNL     1      -0.315   5.969   4.034  1.00  0.00     0.181 C 
BRANCH   4   5
HETATM    5  C18 UNL     1      -0.582   6.061   2.530  1.00  0.00     0.028 C 
BRANCH   5   6
HETATM    6  C17 UNL     1      -2.067   5.876   2.188  1.00  0.00     0.022 C 
BRANCH   6   7
HETATM    7  C16 UNL     1      -2.375   6.050   0.696  1.00  0.00     0.127 C 
BRANCH   7   8
HETATM    8  N5  UNL     1      -1.808   4.996  -0.154  1.00  0.00    -0.331 N 
HETATM    9  C15 UNL     1      -2.293   3.696  -0.282  1.00  0.00     0.324 C 
HETATM   10  O2  UNL     1      -1.745   2.894  -1.041  1.00  0.00    -0.247 OA
HETATM   11  N4  UNL     1      -3.393   3.393   0.479  1.00  0.00    -0.295 N 
HETATM   12  H51 UNL     1      -4.000   4.148   0.743  1.00  0.00     0.172 HD
BRANCH  11  13
HETATM   13  C13 UNL     1      -3.867   2.090   0.699  1.00  0.00     0.110 A 
HETATM   14  C12 UNL     1      -5.128   1.944   1.252  1.00  0.00     0.051 A 
HETATM   15  C11 UNL     1      -5.597   0.657   1.503  1.00  0.00     0.037 A 
HETATM   16  C10 UNL     1      -4.808  -0.446   1.224  1.00  0.00     0.076 A 
HETATM   17  C14 UNL     1      -3.525  -0.201   0.687  1.00  0.00     0.134 A 
HETATM   18  N1  UNL     1      -5.267  -1.689   1.471  1.00  0.00    -0.361 N 
HETATM   19  N2  UNL     1      -3.083   1.032   0.430  1.00  0.00    -0.327 N 
HETATM   20  N3  UNL     1      -2.707  -1.221   0.422  1.00  0.00    -0.339 N 
ATOM     21  H2  UNL     1      -2.154   1.171   0.031  1.00  0.00     0.169 HD
HETATM   22  C8  UNL     1      -3.148  -2.483   0.645  1.00  0.00     0.059 A 
ATOM     23  H3  UNL     1      -1.769  -1.054   0.059  1.00  0.00     0.167 HD
HETATM   24  C9  UNL     1      -4.417  -2.698   1.168  1.00  0.00     0.119 A 
ATOM     25  H1  UNL     1      -6.194  -1.858   1.861  1.00  0.00     0.165 HD
BRANCH  22  26
HETATM   26  C6  UNL     1      -2.211  -3.570   0.312  1.00  0.00    -0.005 A 
HETATM   27  C5  UNL     1      -2.652  -4.761  -0.297  1.00  0.00     0.017 A 
HETATM   28  C4  UNL     1      -1.758  -5.789  -0.604  1.00  0.00     0.040 A 
HETATM   29  C3  UNL     1      -0.415  -5.631  -0.300  1.00  0.00     0.099 A 
HETATM   30  C2  UNL     1       0.066  -4.464   0.298  1.00  0.00     0.102 A 
HETATM   31  C7  UNL     1      -0.833  -3.438   0.593  1.00  0.00     0.053 A 
BRANCH  29  32
HETATM   32  O13 UNL     1       0.449  -6.646  -0.613  1.00  0.00    -0.358 OA
HETATM   33  H50 UNL     1       1.327  -6.310  -0.335  1.00  0.00     0.217 HD
ENDBRANCH  29  32
BRANCH  30  34
HETATM   34  O1  UNL     1       1.414  -4.463   0.548  1.00  0.00    -0.353 OA
HETATM   35  C1  UNL     1       1.981  -3.236   0.998  1.00  0.00     0.210 C 
ENDBRANCH  30  34
ENDBRANCH  22  26
ENDBRANCH  11  13
BRANCH   8  36
HETATM   36  C43 UNL     1      -0.630   5.362  -0.958  1.00  0.00     0.161 C 
BRANCH  36  37
HETATM   37  C44 UNL     1      -0.982   6.027  -2.306  1.00  0.00     0.159 C 
BRANCH  37  38
HETATM   38  C45 UNL     1      -1.048   5.033  -3.474  1.00  0.00     0.197 C 
BRANCH  38  39
HETATM   39  O11 UNL     1      -2.176   4.172  -3.389  1.00  0.00    -0.398 OA
HETATM   40  H48 UNL     1      -1.951   3.481  -2.731  1.00  0.00     0.209 HD
ENDBRANCH  38  39
ENDBRANCH  37  38
BRANCH  37  41
HETATM   41  O12 UNL     1       0.012   7.015  -2.613  1.00  0.00    -0.392 OA
HETATM   42  H49 UNL     1      -0.086   7.744  -1.977  1.00  0.00     0.210 HD
ENDBRANCH  37  41
ENDBRANCH  36  37
ENDBRANCH   8  36
ENDBRANCH   7   8
ENDBRANCH   6   7
ENDBRANCH   5   6
ENDBRANCH   4   5
ENDBRANCH   3   4
ENDBRANCH   1   3
BRANCH   1  43
HETATM   43  O5  UNL     1      -0.578   2.557   4.810  1.00  0.00    -0.298 OA
BRANCH  43  44
HETATM   44  C21 UNL     1       0.158   1.325   4.813  1.00  0.00     0.181 C 
BRANCH  44  45
HETATM   45  C22 UNL     1      -0.309   0.431   3.661  1.00  0.00     0.028 C 
BRANCH  45  46
HETATM   46  C23 UNL     1       0.501   0.603   2.372  1.00  0.00     0.022 C 
BRANCH  46  47
HETATM   47  C24 UNL     1       0.209   1.902   1.614  1.00  0.00     0.127 C 
BRANCH  47  48
HETATM   48  N6  UNL     1       1.176   2.176   0.546  1.00  0.00    -0.331 N 
HETATM   49  C28 UNL     1       1.328   1.302  -0.532  1.00  0.00     0.324 C 
HETATM   50  O8  UNL     1       2.439   1.106  -1.017  1.00  0.00    -0.247 OA
HETATM   51  N7  UNL     1       0.144   0.766  -0.960  1.00  0.00    -0.295 N 
HETATM   52  H52 UNL     1      -0.672   1.362  -0.841  1.00  0.00     0.172 HD
BRANCH  48  53
HETATM   53  C25 UNL     1       2.243   3.149   0.815  1.00  0.00     0.161 C 
BRANCH  53  54
HETATM   54  C26 UNL     1       3.339   2.649   1.770  1.00  0.00     0.159 C 
BRANCH  54  55
HETATM   55  C27 UNL     1       4.208   3.815   2.258  1.00  0.00     0.197 C 
BRANCH  55  56
HETATM   56  O6  UNL     1       3.439   4.817   2.921  1.00  0.00    -0.398 OA
HETATM   57  H45 UNL     1       2.918   4.373   3.624  1.00  0.00     0.209 HD
ENDBRANCH  55  56
ENDBRANCH  54  55
BRANCH  54  58
HETATM   58  O7  UNL     1       4.174   1.669   1.152  1.00  0.00    -0.392 OA
HETATM   59  H46 UNL     1       3.688   1.298   0.380  1.00  0.00     0.210 HD
ENDBRANCH  54  58
ENDBRANCH  53  54
ENDBRANCH  48  53
BRANCH  51  60
HETATM   60  C29 UNL     1       0.005  -0.331  -1.810  1.00  0.00     0.110 A 
HETATM   61  C35 UNL     1      -1.229  -0.511  -2.415  1.00  0.00     0.051 A 
HETATM   62  C34 UNL     1      -1.438  -1.652  -3.178  1.00  0.00     0.037 A 
HETATM   63  C33 UNL     1      -0.435  -2.593  -3.306  1.00  0.00     0.076 A 
HETATM   64  C30 UNL     1       0.799  -2.325  -2.664  1.00  0.00     0.134 A 
HETATM   65  N10 UNL     1      -0.667  -3.721  -4.009  1.00  0.00    -0.361 N 
HETATM   66  N8  UNL     1       1.007  -1.216  -1.950  1.00  0.00    -0.327 N 
HETATM   67  N9  UNL     1       1.789  -3.220  -2.734  1.00  0.00    -0.339 N 
ATOM     68  H8  UNL     1       1.914  -1.043  -1.517  1.00  0.00     0.169 HD
HETATM   69  C31 UNL     1       1.569  -4.380  -3.400  1.00  0.00     0.059 A 
ATOM     70  H9  UNL     1       2.691  -3.034  -2.296  1.00  0.00     0.167 HD
HETATM   71  C32 UNL     1       0.354  -4.606  -4.034  1.00  0.00     0.119 A 
ATOM     72  H10 UNL     1      -1.551  -3.894  -4.488  1.00  0.00     0.165 HD
BRANCH  69  73
HETATM   73  C36 UNL     1       2.674  -5.354  -3.388  1.00  0.00    -0.005 A 
HETATM   74  C37 UNL     1       2.438  -6.743  -3.299  1.00  0.00     0.053 A 
HETATM   75  C38 UNL     1       3.494  -7.657  -3.273  1.00  0.00     0.102 A 
HETATM   76  C39 UNL     1       4.804  -7.177  -3.351  1.00  0.00     0.099 A 
HETATM   77  C40 UNL     1       5.074  -5.820  -3.430  1.00  0.00     0.040 A 
HETATM   78  C41 UNL     1       4.012  -4.915  -3.440  1.00  0.00     0.017 A 
BRANCH  75  79
HETATM   79  O10 UNL     1       3.381  -9.021  -3.176  1.00  0.00    -0.353 OA
HETATM   80  C42 UNL     1       2.079  -9.534  -2.915  1.00  0.00     0.210 C 
ENDBRANCH  75  79
BRANCH  76  81
HETATM   81  O9  UNL     1       5.859  -8.048  -3.339  1.00  0.00    -0.358 OA
HETATM   82  H47 UNL     1       5.454  -8.934  -3.272  1.00  0.00     0.217 HD
ENDBRANCH  76  81
ENDBRANCH  69  73
ENDBRANCH  51  60
ENDBRANCH  47  48
ENDBRANCH  46  47
ENDBRANCH  45  46
ENDBRANCH  44  45
ENDBRANCH  43  44
ENDBRANCH   1  43
TORSDOF 30
