REMARK  29 active torsions:
REMARK  status: ('A' for Active; 'I' for Inactive)
REMARK    1  A    between atoms: C4_4  and  N2_70 
REMARK    2  A    between atoms: C6_6  and  C7_7 
REMARK       I    between atoms: C6_6  and  N2_70 
REMARK    3  A    between atoms: C7_7  and  C8_8 
REMARK    4  A    between atoms: C8_8  and  C9_9 
REMARK    5  A    between atoms: C9_9  and  C10_10 
REMARK    6  A    between atoms: C10_10  and  C11_11 
REMARK       I    between atoms: C11_11  and  N3_71 
REMARK    7  A    between atoms: C12_12  and  N3_71 
REMARK    8  A    between atoms: C17_17  and  C18_18 
REMARK    9  A    between atoms: C17_17  and  N4_72 
REMARK       I    between atoms: C18_18  and  N5_73 
REMARK   10  A    between atoms: C19_19  and  C20_20 
REMARK   11  A    between atoms: C19_19  and  N5_73 
REMARK   12  A    between atoms: C23_23  and  N6_74 
REMARK       I    between atoms: C26_26  and  N6_74 
REMARK       I    between atoms: C26_26  and  N8_77 
REMARK       I    between atoms: C27_27  and  N7_75 
REMARK   13  A    between atoms: C27_27  and  O7_89 
REMARK   14  A    between atoms: C28_28  and  C29_29 
REMARK   15  A    between atoms: C28_28  and  O7_89 
REMARK       I    between atoms: C35_35  and  N8_77 
REMARK   16  A    between atoms: C35_35  and  O9_91 
REMARK   17  A    between atoms: C36_36  and  C37_37 
REMARK   18  A    between atoms: C36_36  and  O9_91 
REMARK   19  A    between atoms: C43_43  and  C44_44 
REMARK   20  A    between atoms: C43_43  and  N1_69 
REMARK       I    between atoms: C44_44  and  N9_78 
REMARK   21  A    between atoms: C45_45  and  C46_46 
REMARK   22  A    between atoms: C45_45  and  N9_78 
REMARK   23  A    between atoms: C49_49  and  N10_79 
REMARK       I    between atoms: C52_52  and  N10_79 
REMARK       I    between atoms: C52_52  and  N12_82 
REMARK       I    between atoms: C53_53  and  N11_80 
REMARK   24  A    between atoms: C53_53  and  O12_94 
REMARK   25  A    between atoms: C54_54  and  C55_55 
REMARK   26  A    between atoms: C54_54  and  O12_94 
REMARK       I    between atoms: C61_61  and  N12_82 
REMARK   27  A    between atoms: C61_61  and  O14_96 
REMARK   28  A    between atoms: C62_62  and  C63_63 
REMARK   29  A    between atoms: C62_62  and  O14_96 
ROOT
HETATM    1  C8  UNL     1       1.384  -2.071   0.356  1.00  0.00     0.010 C 
ENDROOT
BRANCH   1   2
HETATM    2  C7  UNL     1       1.092  -1.256   1.616  1.00  0.00     0.103 C 
BRANCH   2   3
HETATM    3  C6  UNL     1      -0.344  -0.768   1.690  1.00  0.00     0.218 C 
HETATM    4  N2  UNL     1      -0.534   0.187   2.668  1.00  0.00    -0.348 N 
HETATM    5  H67 UNL     1       0.219   0.341   3.326  1.00  0.00     0.163 HD
HETATM    6  O2  UNL     1      -1.243  -1.195   0.974  1.00  0.00    -0.274 OA
BRANCH   4   7
HETATM    7  C4  UNL     1      -1.877   0.604   3.064  1.00  0.00     0.176 C 
HETATM    8  C3  UNL     1      -2.210  -0.125   4.383  1.00  0.00     0.243 C 
HETATM    9  N1  UNL     1      -2.079   0.593   5.572  1.00  0.00    -0.342 N 
HETATM   10  O1  UNL     1      -2.458  -1.336   4.399  1.00  0.00    -0.271 OA
HETATM   11  C2  UNL     1      -2.171   2.047   5.585  1.00  0.00     0.126 C 
HETATM   12  C1  UNL     1      -1.427   2.676   4.422  1.00  0.00     0.022 C 
HETATM   13  C5  UNL     1      -1.989   2.123   3.125  1.00  0.00     0.036 C 
BRANCH   9  14
HETATM   14  C43 UNL     1      -2.447  -0.097   6.814  1.00  0.00     0.228 C 
BRANCH  14  15
HETATM   15  C44 UNL     1      -3.972  -0.116   6.960  1.00  0.00     0.235 C 
HETATM   16  N9  UNL     1      -4.577  -1.111   6.216  1.00  0.00    -0.355 N 
HETATM   17  H72 UNL     1      -3.968  -1.586   5.548  1.00  0.00     0.162 HD
HETATM   18  O10 UNL     1      -4.585   0.738   7.594  1.00  0.00    -0.272 OA
BRANCH  16  19
HETATM   19  C45 UNL     1      -5.963  -1.002   5.834  1.00  0.00     0.161 C 
BRANCH  19  20
HETATM   20  C46 UNL     1      -6.087  -0.198   4.561  1.00  0.00    -0.040 A 
HETATM   21  C47 UNL     1      -5.822  -0.783   3.317  1.00  0.00     0.010 A 
HETATM   22  C48 UNL     1      -5.894  -0.025   2.144  1.00  0.00     0.024 A 
HETATM   23  C49 UNL     1      -6.258   1.328   2.183  1.00  0.00     0.015 A 
HETATM   24  C50 UNL     1      -6.460   1.924   3.434  1.00  0.00     0.024 A 
HETATM   25  C51 UNL     1      -6.384   1.168   4.609  1.00  0.00     0.010 A 
BRANCH  23  26
HETATM   26  N10 UNL     1      -6.300   2.066   0.967  1.00  0.00    -0.230 NA
HETATM   27  C52 UNL     1      -6.980   3.264   0.887  1.00  0.00     0.170 C 
HETATM   28  N11 UNL     1      -6.486   4.447   1.017  1.00  0.00    -0.278 N 
HETATM   29  N12 UNL     1      -8.331   3.130   0.633  1.00  0.00    -0.278 N 
HETATM   30  C53 UNL     1      -5.140   4.528   1.205  1.00  0.00     0.367 C 
ATOM     31  H11 UNL     1      -7.073   5.280   0.981  1.00  0.00     0.173 HD
HETATM   32  O11 UNL     1      -4.591   4.620   2.294  1.00  0.00    -0.238 OA
HETATM   33  C61 UNL     1      -9.286   4.110   0.522  1.00  0.00     0.367 C 
HETATM   34  H74 UNL     1      -8.720   2.202   0.661  1.00  0.00     0.173 HD
HETATM   35  O13 UNL     1      -9.131   5.318   0.456  1.00  0.00    -0.238 OA
HETATM   36  H73 UNL     1      -6.553   1.423   0.221  1.00  0.00     0.136 HD
BRANCH  30  37
HETATM   37  O12 UNL     1      -4.507   4.525   0.004  1.00  0.00    -0.299 OA
BRANCH  37  38
HETATM   38  C54 UNL     1      -3.085   4.641   0.050  1.00  0.00     0.219 C 
BRANCH  38  39
HETATM   39  C55 UNL     1      -2.486   3.601  -0.862  1.00  0.00    -0.034 A 
HETATM   40  C56 UNL     1      -2.671   2.236  -0.594  1.00  0.00     0.009 A 
HETATM   41  C57 UNL     1      -2.078   1.267  -1.403  1.00  0.00     0.001 A 
HETATM   42  C58 UNL     1      -1.300   1.651  -2.493  1.00  0.00     0.000 A 
HETATM   43  C59 UNL     1      -1.119   3.003  -2.778  1.00  0.00     0.001 A 
HETATM   44  C60 UNL     1      -1.707   3.975  -1.966  1.00  0.00     0.009 A 
ENDBRANCH  38  39
ENDBRANCH  37  38
ENDBRANCH  30  37
BRANCH  33  45
HETATM   45  O14 UNL     1     -10.497   3.497   0.456  1.00  0.00    -0.299 OA
BRANCH  45  46
HETATM   46  C62 UNL     1     -11.595   4.405   0.327  1.00  0.00     0.219 C 
BRANCH  46  47
HETATM   47  C63 UNL     1     -12.858   3.586   0.272  1.00  0.00    -0.034 A 
HETATM   48  C64 UNL     1     -13.493   3.180   1.455  1.00  0.00     0.009 A 
HETATM   49  C65 UNL     1     -14.652   2.404   1.406  1.00  0.00     0.001 A 
HETATM   50  C66 UNL     1     -15.183   2.019   0.176  1.00  0.00     0.000 A 
HETATM   51  C67 UNL     1     -14.553   2.406  -1.006  1.00  0.00     0.001 A 
HETATM   52  C68 UNL     1     -13.394   3.182  -0.959  1.00  0.00     0.009 A 
ENDBRANCH  46  47
ENDBRANCH  45  46
ENDBRANCH  33  45
ENDBRANCH  23  26
ENDBRANCH  19  20
ENDBRANCH  16  19
ENDBRANCH  14  15
ENDBRANCH   9  14
ENDBRANCH   4   7
ENDBRANCH   2   3
ENDBRANCH   1   2
BRANCH   1  53
HETATM   53  C9  UNL     1       1.519  -1.175  -0.875  1.00  0.00     0.010 C 
BRANCH  53  54
HETATM   54  C10 UNL     1       1.779  -1.984  -2.142  1.00  0.00     0.103 C 
BRANCH  54  55
HETATM   55  C11 UNL     1       2.141  -1.081  -3.305  1.00  0.00     0.218 C 
HETATM   56  N3  UNL     1       2.877  -1.716  -4.278  1.00  0.00    -0.348 N 
HETATM   57  H68 UNL     1       2.848  -2.732  -4.319  1.00  0.00     0.163 HD
HETATM   58  O3  UNL     1       1.818   0.099  -3.380  1.00  0.00    -0.274 OA
BRANCH  56  59
HETATM   59  C12 UNL     1       3.239  -1.034  -5.517  1.00  0.00     0.176 C 
HETATM   60  C13 UNL     1       3.571  -2.102  -6.579  1.00  0.00     0.243 C 
HETATM   61  N4  UNL     1       4.383  -1.714  -7.642  1.00  0.00    -0.342 N 
HETATM   62  O4  UNL     1       3.071  -3.231  -6.518  1.00  0.00    -0.271 OA
HETATM   63  C14 UNL     1       5.354  -0.634  -7.490  1.00  0.00     0.126 C 
HETATM   64  C15 UNL     1       4.850   0.506  -6.623  1.00  0.00     0.022 C 
HETATM   65  C16 UNL     1       4.383  -0.051  -5.290  1.00  0.00     0.036 C 
BRANCH  61  66
HETATM   66  C17 UNL     1       4.699  -2.735  -8.646  1.00  0.00     0.228 C 
BRANCH  66  67
HETATM   67  C18 UNL     1       5.789  -3.671  -8.111  1.00  0.00     0.235 C 
HETATM   68  N5  UNL     1       5.289  -4.733  -7.385  1.00  0.00    -0.355 N 
HETATM   69  H69 UNL     1       4.311  -4.649  -7.108  1.00  0.00     0.162 HD
HETATM   70  O5  UNL     1       6.986  -3.422  -8.228  1.00  0.00    -0.272 OA
BRANCH  68  71
HETATM   71  C19 UNL     1       6.131  -5.490  -6.490  1.00  0.00     0.161 C 
BRANCH  71  72
HETATM   72  C20 UNL     1       5.963  -4.985  -5.078  1.00  0.00    -0.040 A 
HETATM   73  C21 UNL     1       5.060  -5.601  -4.205  1.00  0.00     0.011 A 
HETATM   74  C22 UNL     1       4.881  -5.109  -2.909  1.00  0.00     0.030 A 
HETATM   75  C23 UNL     1       5.587  -3.985  -2.458  1.00  0.00     0.049 A 
HETATM   76  C24 UNL     1       6.476  -3.361  -3.340  1.00  0.00     0.030 A 
HETATM   77  C25 UNL     1       6.663  -3.856  -4.636  1.00  0.00     0.011 A 
BRANCH  75  78
HETATM   78  N6  UNL     1       5.350  -3.541  -1.136  1.00  0.00    -0.191 N 
HETATM   79  C26 UNL     1       5.754  -2.344  -0.588  1.00  0.00     0.691 C 
HETATM   80  N7  UNL     1       6.306  -2.171   0.566  1.00  0.00    -0.135 N 
HETATM   81  N8  UNL     1       5.455  -1.223  -1.338  1.00  0.00    -0.135 N 
HETATM   82  C27 UNL     1       6.579  -3.238   1.367  1.00  0.00     0.379 C 
ATOM     83  H7  UNL     1       6.539  -1.229   0.880  1.00  0.00     0.189 HD
HETATM   84  O6  UNL     1       6.268  -4.404   1.147  1.00  0.00    -0.238 OA
HETATM   85  C35 UNL     1       5.604   0.094  -0.988  1.00  0.00     0.379 C 
HETATM   86  H71 UNL     1       4.832  -1.369  -2.116  1.00  0.00     0.189 HD
HETATM   87  O8  UNL     1       6.390   0.567  -0.183  1.00  0.00    -0.238 OA
HETATM   88  H70 UNL     1       5.466  -4.329  -0.490  1.00  0.00     0.184 HD
BRANCH  82  89
HETATM   89  O7  UNL     1       7.247  -2.818   2.468  1.00  0.00    -0.299 OA
BRANCH  89  90
HETATM   90  C28 UNL     1       7.597  -3.868   3.370  1.00  0.00     0.219 C 
BRANCH  90  91
HETATM   91  C29 UNL     1       8.319  -3.314   4.577  1.00  0.00    -0.034 A 
HETATM   92  C30 UNL     1       8.241  -3.990   5.805  1.00  0.00     0.009 A 
HETATM   93  C31 UNL     1       8.930  -3.516   6.923  1.00  0.00     0.001 A 
HETATM   94  C32 UNL     1       9.714  -2.369   6.826  1.00  0.00     0.000 A 
HETATM   95  C33 UNL     1       9.812  -1.696   5.610  1.00  0.00     0.001 A 
HETATM   96  C34 UNL     1       9.124  -2.169   4.491  1.00  0.00     0.009 A 
ENDBRANCH  90  91
ENDBRANCH  89  90
ENDBRANCH  82  89
BRANCH  85  97
HETATM   97  O9  UNL     1       4.763   0.826  -1.763  1.00  0.00    -0.299 OA
BRANCH  97  98
HETATM   98  C36 UNL     1       4.721   2.229  -1.478  1.00  0.00     0.219 C 
BRANCH  98  99
HETATM   99  C37 UNL     1       3.728   2.514  -0.380  1.00  0.00    -0.034 A 
HETATM  100  C38 UNL     1       4.167   2.781   0.925  1.00  0.00     0.009 A 
HETATM  101  C39 UNL     1       3.248   3.033   1.945  1.00  0.00     0.001 A 
HETATM  102  C40 UNL     1       1.882   3.011   1.673  1.00  0.00     0.000 A 
HETATM  103  C41 UNL     1       1.434   2.729   0.384  1.00  0.00     0.001 A 
HETATM  104  C42 UNL     1       2.352   2.482  -0.638  1.00  0.00     0.009 A 
ENDBRANCH  98  99
ENDBRANCH  97  98
ENDBRANCH  85  97
ENDBRANCH  75  78
ENDBRANCH  71  72
ENDBRANCH  68  71
ENDBRANCH  66  67
ENDBRANCH  61  66
ENDBRANCH  56  59
ENDBRANCH  54  55
ENDBRANCH  53  54
ENDBRANCH   1  53
TORSDOF 29
