REMARK  8 active torsions:
REMARK  status: ('A' for Active; 'I' for Inactive)
REMARK    1  A    between atoms: C5_5  and  C6_6 
REMARK       I    between atoms: C6_6  and  N2_33 
REMARK    2  A    between atoms: C11_11  and  C12_12 
REMARK       I    between atoms: C11_11  and  N3_34 
REMARK    3  A    between atoms: C15_15  and  N4_35 
REMARK    4  A    between atoms: C18_18  and  C19_19 
REMARK       I    between atoms: C18_18  and  N4_35 
REMARK    5  A    between atoms: C21_21  and  C23_23 
REMARK    6  A    between atoms: C25_25  and  C26_26 
REMARK    7  A    between atoms: C27_27  and  N7_39 
REMARK    8  A    between atoms: C29_29  and  N10_44 
ROOT
HETATM    1  C18 UNL     1       1.694   0.556  -0.313  1.00  0.00     0.290 C 
HETATM    2  N4  UNL     1       0.954   0.114  -1.397  1.00  0.00    -0.320 N 
HETATM    3  O3  UNL     1       1.257   0.729   0.820  1.00  0.00    -0.264 OA
HETATM    4  H31 UNL     1       1.513   0.029  -2.246  1.00  0.00     0.169 HD
ENDROOT
BRANCH   1   5
HETATM    5  C19 UNL     1       3.088   0.783  -0.690  1.00  0.00     0.177 A 
HETATM    6  N5  UNL     1       3.519   0.524  -1.914  1.00  0.00    -0.345 N 
HETATM    7  C20 UNL     1       4.866   0.770  -1.892  1.00  0.00     0.120 A 
ATOM      8  H5  UNL     1       2.964   0.207  -2.709  1.00  0.00     0.167 HD
HETATM    9  C21 UNL     1       5.285   1.178  -0.643  1.00  0.00     0.065 A 
HETATM   10  N6  UNL     1       4.119   1.263   0.093  1.00  0.00    -0.331 N 
HETATM   11  C22 UNL     1       3.963   1.827   1.412  1.00  0.00     0.158 C 
BRANCH   9  12
HETATM   12  C23 UNL     1       6.762   1.457  -0.198  1.00  0.00     0.043 A 
HETATM   13  C24 UNL     1       7.170   1.709   1.092  1.00  0.00     0.134 A 
HETATM   14  N7  UNL     1       8.541   1.878   1.076  1.00  0.00    -0.250 N 
HETATM   15  N8  UNL     1       9.025   1.741  -0.182  1.00  0.00    -0.288 N 
HETATM   16  C25 UNL     1       7.963   1.477  -0.966  1.00  0.00     0.146 A 
ATOM     17  H8  UNL     1       9.998   1.822  -0.476  1.00  0.00     0.187 HD
BRANCH  14  18
HETATM   18  C27 UNL     1       9.419   2.158   2.178  1.00  0.00     0.126 A 
HETATM   19  C31 UNL     1       8.911   2.302   3.468  1.00  0.00     0.052 A 
HETATM   20  C30 UNL     1       9.796   2.580   4.515  1.00  0.00     0.028 A 
HETATM   21  C29 UNL     1      11.155   2.748   4.268  1.00  0.00     0.021 A 
HETATM   22  C28 UNL     1      11.574   2.526   2.961  1.00  0.00     0.113 A 
HETATM   23  N9  UNL     1      10.748   2.265   1.920  1.00  0.00    -0.349 N 
ATOM     24  H9  UNL     1      11.112   2.153   0.974  1.00  0.00     0.167 HD
BRANCH  21  25
HETATM   25  N10 UNL     1      12.057   2.896   5.324  1.00  0.00    -0.302 NA
HETATM   26  H32 UNL     1      11.673   3.350   6.147  1.00  0.00     0.124 HD
HETATM   27  H33 UNL     1      12.957   3.287   5.056  1.00  0.00     0.124 HD
ENDBRANCH  21  25
ENDBRANCH  14  18
BRANCH  16  28
HETATM   28  C26 UNL     1       8.131   1.262  -2.445  1.00  0.00     0.434 C 
HETATM   29  F1  UNL     1       7.774   0.000  -2.812  1.00  0.00    -0.165 F 
HETATM   30  F2  UNL     1       7.344   2.107  -3.168  1.00  0.00    -0.165 F 
HETATM   31  F3  UNL     1       9.401   1.447  -2.892  1.00  0.00    -0.165 F 
ENDBRANCH  16  28
ENDBRANCH   9  12
ENDBRANCH   1   5
BRANCH   2  32
HETATM   32  C15 UNL     1      -0.405  -0.232  -1.458  1.00  0.00     0.036 A 
HETATM   33  C14 UNL     1      -0.900  -0.657  -2.699  1.00  0.00     0.054 A 
HETATM   34  C13 UNL     1      -2.242  -1.023  -2.846  1.00  0.00     0.051 A 
HETATM   35  C12 UNL     1      -3.098  -0.970  -1.744  1.00  0.00     0.054 A 
HETATM   36 CL1  UNL     1      -2.784  -1.498  -4.415  1.00  0.00    -0.083 Cl
HETATM   37  C17 UNL     1      -2.615  -0.540  -0.504  1.00  0.00     0.021 A 
HETATM   38  C16 UNL     1      -1.272  -0.177  -0.364  1.00  0.00     0.030 A 
BRANCH  35  39
HETATM   39  C11 UNL     1      -4.524  -1.341  -1.854  1.00  0.00     0.255 C 
HETATM   40  N3  UNL     1      -4.808  -2.685  -2.107  1.00  0.00    -0.345 N 
HETATM   41  C8  UNL     1      -6.158  -2.996  -2.571  1.00  0.00     0.146 C 
HETATM   42  C9  UNL     1      -4.282  -3.692  -1.161  1.00  0.00     0.146 C 
HETATM   43  C7  UNL     1      -7.159  -2.961  -1.396  1.00  0.00     0.145 C 
HETATM   44  N2  UNL     1      -6.490  -3.188  -0.101  1.00  0.00    -0.347 N 
HETATM   45  C6  UNL     1      -6.356  -2.207   0.875  1.00  0.00     0.251 C 
HETATM   46  C10 UNL     1      -5.400  -4.180  -0.198  1.00  0.00     0.145 C 
HETATM   47  O1  UNL     1      -5.344  -2.156   1.585  1.00  0.00    -0.271 OA
HETATM   48  O2  UNL     1      -5.396  -0.483  -1.698  1.00  0.00    -0.267 OA
BRANCH  45  49
HETATM   49  C5  UNL     1      -7.419  -1.095   1.069  1.00  0.00     0.279 C 
HETATM   50  C4  UNL     1      -8.896  -1.388   0.807  1.00  0.00     0.045 C 
HETATM   51  C3  UNL     1      -9.373  -0.340  -0.193  1.00  0.00     0.030 C 
HETATM   52  C2  UNL     1      -8.426   0.829  -0.023  1.00  0.00     0.235 C 
HETATM   53  N1  UNL     1      -7.112   0.184   0.285  1.00  0.00    -0.062 N 
HETATM   54  C1  UNL     1      -6.137   1.092   0.962  1.00  0.00     0.270 C 
HETATM   55  H30 UNL     1      -6.642  -0.092  -0.607  1.00  0.00     0.280 HD
ENDBRANCH  45  49
ENDBRANCH  35  39
ENDBRANCH   2  32
TORSDOF 8
