REMARK  0 active torsions:
REMARK  status: ('A' for Active; 'I' for Inactive)
REMARK       I    between atoms: C2_2  and  N1_67 
REMARK       I    between atoms: C3_3  and  N1_67 
REMARK       I    between atoms: C5_5  and  C10_10 
REMARK       I    between atoms: C6_6  and  O2_56 
REMARK       I    between atoms: C10_10  and  N2_68 
REMARK       I    between atoms: C11_11  and  C12_12 
REMARK       I    between atoms: C11_11  and  C16_16 
REMARK       I    between atoms: C11_11  and  N2_68 
REMARK       I    between atoms: C12_12  and  C13_13 
REMARK       I    between atoms: C13_13  and  C14_14 
REMARK       I    between atoms: C14_14  and  N3_69 
REMARK       I    between atoms: C15_15  and  N3_69 
REMARK       I    between atoms: C15_15  and  N4_70 
REMARK       I    between atoms: C15_15  and  N5_71 
REMARK       I    between atoms: C16_16  and  N6_72 
REMARK       I    between atoms: C17_17  and  N6_72 
REMARK       I    between atoms: C19_19  and  C24_24 
REMARK       I    between atoms: C20_20  and  O5_59 
REMARK       I    between atoms: C24_24  and  N7_73 
REMARK       I    between atoms: C25_25  and  C26_26 
REMARK       I    between atoms: C25_25  and  C30_30 
REMARK       I    between atoms: C25_25  and  N7_73 
REMARK       I    between atoms: C26_26  and  C27_27 
REMARK       I    between atoms: C27_27  and  C28_28 
REMARK       I    between atoms: C28_28  and  N8_74 
REMARK       I    between atoms: C29_29  and  N9_76 
REMARK       I    between atoms: C29_29  and  N10_77 
REMARK       I    between atoms: C30_30  and  N11_78 
REMARK       I    between atoms: C31_31  and  N11_78 
REMARK       I    between atoms: C33_33  and  C38_38 
REMARK       I    between atoms: C34_34  and  O8_62 
REMARK       I    between atoms: C38_38  and  N12_79 
REMARK       I    between atoms: C39_39  and  C40_40 
REMARK       I    between atoms: C39_39  and  C44_44 
REMARK       I    between atoms: C39_39  and  N12_79 
REMARK       I    between atoms: C40_40  and  C41_41 
REMARK       I    between atoms: C41_41  and  C42_42 
REMARK       I    between atoms: C42_42  and  N13_80 
REMARK       I    between atoms: C43_43  and  N14_82 
REMARK       I    between atoms: C43_43  and  N15_83 
REMARK       I    between atoms: C44_44  and  N16_84 
REMARK       I    between atoms: C45_45  and  N16_84 
REMARK       I    between atoms: C47_47  and  C52_52 
REMARK       I    between atoms: C48_48  and  O11_65 
REMARK       I    between atoms: C52_52  and  N17_85 
REMARK       I    between atoms: C53_53  and  C54_54 
REMARK       I    between atoms: C53_53  and  N17_85 
REMARK       I    between atoms: C54_54  and  N18_86 
ROOT
HETATM    1  C1  UNL     1     -15.778  -3.547   2.766  1.00  0.00     0.117 C 
HETATM    2  C2  UNL     1     -14.745  -2.949   1.843  1.00  0.00     0.218 C 
HETATM    3  C3  UNL     1     -13.026  -3.719   0.189  1.00  0.00     0.035 A 
HETATM    4  C4  UNL     1     -12.544  -2.465  -0.198  1.00  0.00     0.049 A 
HETATM    5  C5  UNL     1     -11.523  -2.354  -1.158  1.00  0.00     0.067 A 
HETATM    6  C6  UNL     1     -10.957  -3.517  -1.698  1.00  0.00     0.084 A 
HETATM    7  C7  UNL     1     -11.447  -4.770  -1.334  1.00  0.00     0.040 A 
HETATM    8  C8  UNL     1     -12.473  -4.868  -0.392  1.00  0.00     0.032 A 
HETATM    9  C9  UNL     1      -8.675  -3.588  -1.995  1.00  0.00     0.210 C 
HETATM   10  C10 UNL     1     -11.066  -0.986  -1.526  1.00  0.00     0.255 C 
HETATM   11  C11 UNL     1      -9.828   0.404  -3.160  1.00  0.00     0.177 C 
HETATM   12  C12 UNL     1      -9.821   0.557  -4.685  1.00  0.00     0.036 C 
HETATM   13  C13 UNL     1      -9.178   1.854  -5.204  1.00  0.00     0.033 C 
HETATM   14  C14 UNL     1      -9.685   3.148  -4.554  1.00  0.00     0.275 C 
HETATM   15  C15 UNL     1     -11.803   4.309  -4.009  1.00  0.00     0.673 C 
HETATM   16  C16 UNL     1      -8.402   0.297  -2.564  1.00  0.00     0.245 C 
HETATM   17  C17 UNL     1      -7.305   0.522  -0.313  1.00  0.00     0.035 A 
HETATM   18  C18 UNL     1      -5.978   0.334  -0.698  1.00  0.00     0.049 A 
HETATM   19  C19 UNL     1      -4.936   0.314   0.255  1.00  0.00     0.067 A 
HETATM   20  C20 UNL     1      -5.242   0.505   1.619  1.00  0.00     0.084 A 
HETATM   21  C21 UNL     1      -6.577   0.684   1.999  1.00  0.00     0.040 A 
HETATM   22  C22 UNL     1      -7.595   0.696   1.042  1.00  0.00     0.032 A 
HETATM   23  C23 UNL     1      -4.427   1.131   3.773  1.00  0.00     0.210 C 
HETATM   24  C24 UNL     1      -3.548   0.102  -0.282  1.00  0.00     0.255 C 
HETATM   25  C25 UNL     1      -1.123  -0.126   0.238  1.00  0.00     0.177 C 
HETATM   26  C26 UNL     1      -0.764  -1.534  -0.264  1.00  0.00     0.036 C 
HETATM   27  C27 UNL     1      -0.879  -2.678   0.755  1.00  0.00     0.022 C 
HETATM   28  C28 UNL     1       0.273  -2.804   1.755  1.00  0.00     0.121 C 
HETATM   29  C29 UNL     1       2.610  -3.096   1.700  1.00  0.00     0.121 C 
HETATM   30  C30 UNL     1      -0.267   0.423   1.407  1.00  0.00     0.245 C 
HETATM   31  C31 UNL     1       2.116   0.771   2.067  1.00  0.00     0.035 A 
HETATM   32  C32 UNL     1       3.396   0.267   1.838  1.00  0.00     0.049 A 
HETATM   33  C33 UNL     1       4.465   0.559   2.703  1.00  0.00     0.067 A 
HETATM   34  C34 UNL     1       4.262   1.428   3.791  1.00  0.00     0.084 A 
HETATM   35  C35 UNL     1       2.986   1.973   3.985  1.00  0.00     0.040 A 
HETATM   36  C36 UNL     1       1.922   1.639   3.136  1.00  0.00     0.032 A 
HETATM   37  C37 UNL     1       5.104   2.482   5.768  1.00  0.00     0.210 C 
HETATM   38  C38 UNL     1       5.749  -0.152   2.411  1.00  0.00     0.255 C 
HETATM   39  C39 UNL     1       8.120  -0.461   3.109  1.00  0.00     0.177 C 
HETATM   40  C40 UNL     1       9.083   0.217   4.109  1.00  0.00     0.036 C 
HETATM   41  C41 UNL     1       9.523   1.623   3.654  1.00  0.00     0.022 C 
HETATM   42  C42 UNL     1      10.861   2.054   4.257  1.00  0.00     0.121 C 
HETATM   43  C43 UNL     1      12.536   1.460   2.677  1.00  0.00     0.121 C 
HETATM   44  C44 UNL     1       8.929  -0.777   1.820  1.00  0.00     0.245 C 
HETATM   45  C45 UNL     1       8.999  -0.135  -0.570  1.00  0.00     0.035 A 
HETATM   46  C46 UNL     1      10.371   0.112  -0.625  1.00  0.00     0.049 A 
HETATM   47  C47 UNL     1      11.010   0.431  -1.836  1.00  0.00     0.067 A 
HETATM   48  C48 UNL     1      10.256   0.480  -3.025  1.00  0.00     0.084 A 
HETATM   49  C49 UNL     1       8.877   0.231  -2.961  1.00  0.00     0.040 A 
HETATM   50  C50 UNL     1       8.252  -0.057  -1.741  1.00  0.00     0.032 A 
HETATM   51  C51 UNL     1      10.147   0.917  -5.378  1.00  0.00     0.210 C 
HETATM   52  C52 UNL     1      12.472   0.745  -1.733  1.00  0.00     0.254 C 
HETATM   53  C53 UNL     1      14.628   1.020  -2.919  1.00  0.00     0.152 C 
HETATM   54  C54 UNL     1      15.486  -0.141  -2.395  1.00  0.00     0.286 C 
HETATM   55  O1  UNL     1     -14.573  -1.737   1.797  1.00  0.00    -0.274 OA
HETATM   56  O2  UNL     1      -9.954  -3.466  -2.632  1.00  0.00    -0.355 OA
HETATM   57  O3  UNL     1     -11.124  -0.065  -0.715  1.00  0.00    -0.268 OA
HETATM   58  O4  UNL     1      -7.438  -0.058  -3.236  1.00  0.00    -0.271 OA
HETATM   59  O5  UNL     1      -4.217   0.472   2.529  1.00  0.00    -0.355 OA
HETATM   60  O6  UNL     1      -3.344   0.062  -1.492  1.00  0.00    -0.268 OA
HETATM   61  O7  UNL     1      -0.797   0.900   2.413  1.00  0.00    -0.271 OA
HETATM   62  O8  UNL     1       5.333   1.690   4.606  1.00  0.00    -0.355 OA
HETATM   63  O9  UNL     1       5.766  -1.127   1.661  1.00  0.00    -0.268 OA
HETATM   64  O10 UNL     1      10.015  -1.354   1.875  1.00  0.00    -0.271 OA
HETATM   65  O11 UNL     1      10.918   0.779  -4.189  1.00  0.00    -0.355 OA
HETATM   66  O12 UNL     1      12.971   1.011  -0.640  1.00  0.00    -0.268 OA
HETATM   67  N1  UNL     1     -14.054  -3.915   1.134  1.00  0.00    -0.327 N 
HETATM   68  N2  UNL     1     -10.532  -0.824  -2.785  1.00  0.00    -0.344 N 
HETATM   69  N3  UNL     1     -11.140   3.238  -4.675  1.00  0.00     0.146 N 
HETATM   70  N4  UNL     1     -11.477   4.295  -2.631  1.00  0.00     0.142 N 
HETATM   71  N5  UNL     1     -11.330   5.547  -4.501  1.00  0.00     0.142 N 
HETATM   72  N6  UNL     1      -8.394   0.553  -1.200  1.00  0.00    -0.325 N 
HETATM   73  N7  UNL     1      -2.527  -0.041   0.625  1.00  0.00    -0.344 N 
HETATM   74  N8  UNL     1       1.538  -2.905   1.026  1.00  0.00    -0.372 N 
ATOM     75  H8  UNL     1       1.565  -2.825   0.009  1.00  0.00     0.161 HD
HETATM   76  N9  UNL     1       3.796  -3.235   1.068  1.00  0.00    -0.279 NA
HETATM   77  N10 UNL     1       2.788  -3.189   3.035  1.00  0.00    -0.279 NA
HETATM   78  N11 UNL     1       1.098   0.344   1.191  1.00  0.00    -0.325 N 
HETATM   79  N12 UNL     1       6.902   0.350   2.965  1.00  0.00    -0.344 N 
HETATM   80  N13 UNL     1      11.927   1.188   3.769  1.00  0.00    -0.372 N 
ATOM     81  H13 UNL     1      12.190   0.359   4.302  1.00  0.00     0.161 HD
HETATM   82  N14 UNL     1      13.519   0.642   2.241  1.00  0.00    -0.279 NA
HETATM   83  N15 UNL     1      12.359   2.490   1.820  1.00  0.00    -0.279 NA
HETATM   84  N16 UNL     1       8.332  -0.378   0.641  1.00  0.00    -0.325 N 
HETATM   85  N17 UNL     1      13.211   0.717  -2.889  1.00  0.00    -0.355 N 
HETATM   86  N18 UNL     1      16.917   0.163  -2.467  1.00  0.00     0.079 N 
HETATM   87  H54 UNL     1     -14.311  -4.878   1.317  1.00  0.00     0.169 HD
HETATM   88  H55 UNL     1     -10.307  -1.666  -3.307  1.00  0.00     0.163 HD
HETATM   89  H56 UNL     1     -11.362   3.349  -5.663  1.00  0.00     0.321 HD
HETATM   90  H57 UNL     1     -11.629   3.337  -2.318  1.00  0.00     0.318 HD
HETATM   91  H58 UNL     1     -12.160   4.852  -2.128  1.00  0.00     0.318 HD
HETATM   92  H59 UNL     1     -10.391   5.639  -4.123  1.00  0.00     0.318 HD
HETATM   93  H60 UNL     1     -11.852   6.284  -4.037  1.00  0.00     0.318 HD
HETATM   94  H61 UNL     1      -9.318   0.680  -0.781  1.00  0.00     0.169 HD
HETATM   95  H62 UNL     1      -2.725   0.136   1.609  1.00  0.00     0.163 HD
HETATM   96  H63 UNL     1       3.706  -3.050   0.076  1.00  0.00     0.126 HD
HETATM   97  H64 UNL     1       4.543  -2.659   1.462  1.00  0.00     0.126 HD
HETATM   98  H65 UNL     1       1.946  -3.365   3.567  1.00  0.00     0.126 HD
HETATM   99  H66 UNL     1       3.522  -3.846   3.277  1.00  0.00     0.126 HD
HETATM  100  H67 UNL     1       1.395  -0.296   0.461  1.00  0.00     0.169 HD
HETATM  101  H68 UNL     1       6.749   1.049   3.687  1.00  0.00     0.163 HD
HETATM  102  H69 UNL     1      13.519   0.501   1.232  1.00  0.00     0.126 HD
HETATM  103  H70 UNL     1      13.483  -0.242   2.736  1.00  0.00     0.126 HD
HETATM  104  H71 UNL     1      12.619   2.275   0.858  1.00  0.00     0.126 HD
HETATM  105  H72 UNL     1      11.471   2.964   1.880  1.00  0.00     0.126 HD
HETATM  106  H73 UNL     1       7.316  -0.396   0.646  1.00  0.00     0.169 HD
HETATM  107  H74 UNL     1      12.728   0.542  -3.765  1.00  0.00     0.162 HD
HETATM  108  H75 UNL     1      17.438  -0.625  -2.083  1.00  0.00     0.312 HD
HETATM  109  H76 UNL     1      17.118   0.951  -1.849  1.00  0.00     0.312 HD
ENDROOT
TORSDOF 33
