REMARK  31 active torsions:
REMARK  status: ('A' for Active; 'I' for Inactive)
REMARK    1  A    between atoms: C2_2  and  C3_3 
REMARK    2  A    between atoms: C2_2  and  O22_80 
REMARK    3  A    between atoms: C7_7  and  C17_17 
REMARK    4  A    between atoms: C13_13  and  N3_83 
REMARK       I    between atoms: C17_17  and  N5_85 
REMARK    5  A    between atoms: C18_18  and  C19_19 
REMARK    6  A    between atoms: C18_18  and  C56_56 
REMARK    7  A    between atoms: C18_18  and  N5_85 
REMARK    8  A    between atoms: C19_19  and  C20_20 
REMARK    9  A    between atoms: C20_20  and  C21_21 
REMARK   10  A    between atoms: C21_21  and  C22_22 
REMARK   11  A    between atoms: C22_22  and  N6_86 
REMARK       I    between atoms: C23_23  and  N6_86 
REMARK       I    between atoms: C23_23  and  N7_87 
REMARK   12  A    between atoms: C24_24  and  N7_87 
REMARK       I    between atoms: C28_28  and  N8_89 
REMARK       I    between atoms: C28_28  and  N9_91 
REMARK   13  A    between atoms: C29_29  and  C30_30 
REMARK   14  A    between atoms: C29_29  and  N9_91 
REMARK   15  A    between atoms: C30_30  and  C31_31 
REMARK   16  A    between atoms: C31_31  and  C32_32 
REMARK   17  A    between atoms: C32_32  and  C33_33 
REMARK   18  A    between atoms: C33_33  and  C34_34 
REMARK   19  A    between atoms: C33_33  and  N11_93 
REMARK       I    between atoms: C34_34  and  N10_92 
REMARK   20  A    between atoms: C35_35  and  C36_36 
REMARK   21  A    between atoms: C35_35  and  N10_92 
REMARK   22  A    between atoms: C36_36  and  O11_69 
REMARK   23  A    between atoms: C37_37  and  C38_38 
REMARK       I    between atoms: C37_37  and  N11_93 
REMARK   24  A    between atoms: C44_44  and  N12_94 
REMARK   25  A    between atoms: C48_48  and  C52_52 
REMARK   26  A    between atoms: C52_52  and  C53_53 
REMARK       I    between atoms: C53_53  and  N16_98 
REMARK       I    between atoms: C56_56  and  N17_99 
REMARK   27  A    between atoms: C57_57  and  C58_58 
REMARK   28  A    between atoms: C57_57  and  N17_99 
REMARK   29  A    between atoms: C58_58  and  O21_79 
REMARK   30  A    between atoms: O13_71  and  N12_94 
REMARK   31  A    between atoms: O14_72  and  N12_94 
ROOT
HETATM    1  C24 UNL     1      -2.464   1.907   2.233  1.00  0.00     0.036 A 
HETATM    2  C25 UNL     1      -1.749   3.119   1.757  1.00  0.00     0.032 A 
HETATM    3  C26 UNL     1      -0.648   3.066   1.002  1.00  0.00     0.032 A 
HETATM    4  C27 UNL     1      -0.047   1.774   0.580  1.00  0.00     0.036 A 
HETATM    5  C28 UNL     1       1.658   2.643  -0.690  1.00  0.00     0.320 C 
HETATM    6  C54 UNL     1      -0.732   0.563   1.097  1.00  0.00     0.032 A 
HETATM    7  C55 UNL     1      -1.833   0.616   1.853  1.00  0.00     0.032 A 
HETATM    8  O8  UNL     1       1.137   3.566  -1.303  1.00  0.00    -0.247 OA
HETATM    9  N8  UNL     1       1.000   1.580  -0.156  1.00  0.00    -0.309 N 
ATOM     10  H8  UNL     1       1.331   0.632  -0.335  1.00  0.00     0.170 HD
HETATM   11  N9  UNL     1       2.999   2.532  -0.491  1.00  0.00    -0.343 N 
HETATM   12  H65 UNL     1       3.311   1.655  -0.072  1.00  0.00     0.164 HD
ENDROOT
BRANCH   1  13
HETATM   13  N7  UNL     1      -3.538   2.113   2.928  1.00  0.00    -0.309 N 
HETATM   14  C23 UNL     1      -4.300   1.075   3.367  1.00  0.00     0.320 C 
HETATM   15  O7  UNL     1      -4.504   0.026   2.772  1.00  0.00    -0.247 OA
HETATM   16  N6  UNL     1      -4.880   1.390   4.557  1.00  0.00    -0.343 N 
HETATM   17  H64 UNL     1      -4.689   2.325   4.887  1.00  0.00     0.164 HD
ATOM     18  H7  UNL     1      -3.817   3.069   3.150  1.00  0.00     0.170 HD
BRANCH  16  19
HETATM   19  C22 UNL     1      -5.869   0.568   5.213  1.00  0.00     0.124 C 
BRANCH  19  20
HETATM   20  C21 UNL     1      -7.295   1.069   4.973  1.00  0.00     0.020 C 
BRANCH  20  21
HETATM   21  C20 UNL     1      -7.762   1.033   3.513  1.00  0.00     0.004 C 
BRANCH  21  22
HETATM   22  C19 UNL     1      -7.948  -0.388   2.967  1.00  0.00     0.035 C 
BRANCH  22  23
HETATM   23  C18 UNL     1      -8.399  -0.392   1.497  1.00  0.00     0.176 C 
BRANCH  23  24
HETATM   24  C56 UNL     1      -7.195  -0.404   0.537  1.00  0.00     0.240 C 
HETATM   25  O19 UNL     1      -6.805  -1.439  -0.005  1.00  0.00    -0.271 OA
HETATM   26  N17 UNL     1      -6.585   0.815   0.355  1.00  0.00    -0.349 N 
HETATM   27  H73 UNL     1      -7.103   1.664   0.562  1.00  0.00     0.163 HD
BRANCH  26  28
HETATM   28  C57 UNL     1      -5.371   0.929  -0.434  1.00  0.00     0.232 C 
BRANCH  28  29
HETATM   29  C58 UNL     1      -5.662   1.075  -1.919  1.00  0.00     0.158 C 
HETATM   30  O20 UNL     1      -6.736   1.333  -2.442  1.00  0.00    -0.649 OA
BRANCH  29  31
HETATM   31  O21 UNL     1      -4.551   0.944  -2.673  1.00  0.00    -0.775 OA
HETATM   32  H58 UNL     1      -4.864   1.059  -3.594  1.00  0.00     0.167 HD
ENDBRANCH  29  31
ENDBRANCH  28  29
ENDBRANCH  26  28
ENDBRANCH  23  24
BRANCH  23  33
HETATM   33  N5  UNL     1      -9.201  -1.576   1.199  1.00  0.00    -0.346 N 
HETATM   34  C17 UNL     1     -10.553  -1.611   1.423  1.00  0.00     0.241 C 
HETATM   35  O6  UNL     1     -11.162  -0.643   1.880  1.00  0.00    -0.271 OA
HETATM   36  H63 UNL     1      -8.695  -2.387   0.852  1.00  0.00     0.163 HD
BRANCH  34  37
HETATM   37  C7  UNL     1     -11.256  -2.942   1.094  1.00  0.00     0.177 C 
HETATM   38  C8  UNL     1     -11.094  -3.376  -0.384  1.00  0.00     0.045 C 
HETATM   39  C9  UNL     1     -12.314  -3.200  -1.300  1.00  0.00     0.082 C 
HETATM   40  S1  UNL     1     -12.204  -1.952  -2.634  1.00  0.00    -0.129 SA
HETATM   41  C10 UNL     1     -11.801  -0.448  -1.760  1.00  0.00     0.016 A 
HETATM   42  C11 UNL     1     -12.594   0.231  -0.811  1.00  0.00     0.051 A 
HETATM   43  C15 UNL     1     -10.550   0.097  -2.114  1.00  0.00     0.022 A 
HETATM   44  C12 UNL     1     -12.100   1.404  -0.201  1.00  0.00     0.054 A 
HETATM   45  C16 UNL     1     -13.928  -0.208  -0.319  1.00  0.00     0.253 C 
HETATM   46  C13 UNL     1     -10.836   1.889  -0.541  1.00  0.00     0.103 A 
HETATM   47  C14 UNL     1     -10.064   1.255  -1.510  1.00  0.00     0.037 A 
HETATM   48  O5  UNL     1     -14.233  -0.028   0.858  1.00  0.00    -0.268 OA
HETATM   49  N4  UNL     1     -14.781  -0.826  -1.201  1.00  0.00    -0.341 N 
HETATM   50  C3  UNL     1     -16.085  -1.337  -0.747  1.00  0.00     0.205 C 
HETATM   51  H62 UNL     1     -14.398  -1.189  -2.070  1.00  0.00     0.163 HD
HETATM   52  C4  UNL     1     -15.816  -2.674  -0.014  1.00  0.00     0.243 C 
HETATM   53  O1  UNL     1     -15.820  -3.765  -0.579  1.00  0.00    -0.271 OA
HETATM   54  N1  UNL     1     -15.410  -2.519   1.303  1.00  0.00    -0.350 N 
HETATM   55  C5  UNL     1     -14.905  -3.649   2.071  1.00  0.00     0.225 C 
HETATM   56  H60 UNL     1     -15.172  -1.572   1.600  1.00  0.00     0.163 HD
HETATM   57  C6  UNL     1     -13.425  -3.948   1.791  1.00  0.00     0.236 C 
HETATM   58  O2  UNL     1     -12.947  -5.077   1.880  1.00  0.00    -0.272 OA
HETATM   59  N2  UNL     1     -12.645  -2.845   1.526  1.00  0.00    -0.346 N 
HETATM   60  H61 UNL     1     -13.041  -1.913   1.634  1.00  0.00     0.163 HD
BRANCH  46  61
HETATM   61  N3  UNL     1     -10.282   3.037   0.170  1.00  0.00    -0.116 N 
HETATM   62  O3  UNL     1     -11.068   3.924   0.526  1.00  0.00    -0.532 OA
HETATM   63  O4  UNL     1      -9.057   3.039   0.376  1.00  0.00    -0.532 OA
ENDBRANCH  46  61
BRANCH  50  64
HETATM   64  C2  UNL     1     -17.078  -1.557  -1.907  1.00  0.00     0.146 C 
HETATM   65  C1  UNL     1     -17.169  -0.351  -2.838  1.00  0.00     0.042 C 
BRANCH  64  66
HETATM   66  O22 UNL     1     -18.389  -1.766  -1.368  1.00  0.00    -0.393 OA
HETATM   67  H59 UNL     1     -18.943  -2.124  -2.083  1.00  0.00     0.210 HD
ENDBRANCH  64  66
ENDBRANCH  50  64
ENDBRANCH  34  37
ENDBRANCH  23  33
ENDBRANCH  22  23
ENDBRANCH  21  22
ENDBRANCH  20  21
ENDBRANCH  19  20
ENDBRANCH  16  19
ENDBRANCH   1  13
BRANCH  11  68
HETATM   68  C29 UNL     1       3.969   3.418  -1.078  1.00  0.00     0.124 C 
BRANCH  68  69
HETATM   69  C30 UNL     1       4.266   3.099  -2.545  1.00  0.00     0.020 C 
BRANCH  69  70
HETATM   70  C31 UNL     1       4.637   1.646  -2.871  1.00  0.00     0.004 C 
BRANCH  70  71
HETATM   71  C32 UNL     1       6.104   1.256  -2.656  1.00  0.00     0.035 C 
BRANCH  71  72
HETATM   72  C33 UNL     1       6.590   1.137  -1.206  1.00  0.00     0.176 C 
BRANCH  72  73
HETATM   73  C34 UNL     1       5.743   0.104  -0.424  1.00  0.00     0.240 C 
HETATM   74  O9  UNL     1       4.718   0.416   0.179  1.00  0.00    -0.271 OA
HETATM   75  N10 UNL     1       6.139  -1.208  -0.604  1.00  0.00    -0.349 N 
HETATM   76  H66 UNL     1       7.109  -1.295  -0.895  1.00  0.00     0.163 HD
BRANCH  75  77
HETATM   77  C35 UNL     1       5.760  -2.212   0.387  1.00  0.00     0.232 C 
BRANCH  77  78
HETATM   78  C36 UNL     1       6.949  -2.468   1.311  1.00  0.00     0.158 C 
HETATM   79  O10 UNL     1       6.915  -3.028   2.394  1.00  0.00    -0.649 OA
BRANCH  78  80
HETATM   80  O11 UNL     1       8.113  -2.070   0.743  1.00  0.00    -0.775 OA
HETATM   81  H55 UNL     1       8.794  -2.024   1.468  1.00  0.00     0.167 HD
ENDBRANCH  78  80
ENDBRANCH  77  78
ENDBRANCH  75  77
ENDBRANCH  72  73
BRANCH  72  82
HETATM   82  N11 UNL     1       8.013   0.739  -1.201  1.00  0.00    -0.346 N 
HETATM   83  C37 UNL     1       8.755   0.859  -0.031  1.00  0.00     0.241 C 
HETATM   84  O12 UNL     1       8.228   1.190   1.029  1.00  0.00    -0.271 OA
HETATM   85  H67 UNL     1       8.517   0.825  -2.073  1.00  0.00     0.163 HD
BRANCH  83  86
HETATM   86  C38 UNL     1      10.288   0.660  -0.202  1.00  0.00     0.177 C 
HETATM   87  C39 UNL     1      10.692  -0.578  -1.033  1.00  0.00     0.045 C 
HETATM   88  C40 UNL     1      11.517  -0.280  -2.294  1.00  0.00     0.082 C 
HETATM   89  S2  UNL     1      13.014   0.735  -1.983  1.00  0.00    -0.129 SA
HETATM   90  C41 UNL     1      14.276  -0.182  -2.883  1.00  0.00     0.016 A 
HETATM   91  C42 UNL     1      15.485  -0.653  -2.322  1.00  0.00     0.051 A 
HETATM   92  C46 UNL     1      14.037  -0.405  -4.249  1.00  0.00     0.022 A 
HETATM   93  C43 UNL     1      16.382  -1.379  -3.135  1.00  0.00     0.052 A 
HETATM   94  C47 UNL     1      15.931  -0.471  -0.897  1.00  0.00     0.253 C 
HETATM   95  C44 UNL     1      16.135  -1.614  -4.494  1.00  0.00     0.088 A 
HETATM   96  C45 UNL     1      14.949  -1.113  -5.038  1.00  0.00     0.036 A 
HETATM   97  O15 UNL     1      16.767  -1.221  -0.403  1.00  0.00    -0.268 OA
HETATM   98  N13 UNL     1      15.402   0.592  -0.199  1.00  0.00    -0.343 N 
HETATM   99  C48 UNL     1      15.374   0.594   1.275  1.00  0.00     0.185 C 
HETATM  100  H68 UNL     1      14.611   1.040  -0.650  1.00  0.00     0.163 HD
HETATM  101  C49 UNL     1      14.023  -0.095   1.630  1.00  0.00     0.241 C 
HETATM  102  O16 UNL     1      13.602  -1.064   0.994  1.00  0.00    -0.271 OA
HETATM  103  N14 UNL     1      13.263   0.459   2.644  1.00  0.00    -0.351 N 
HETATM  104  C50 UNL     1      12.058  -0.253   3.074  1.00  0.00     0.225 C 
HETATM  105  H69 UNL     1      13.819   0.833   3.415  1.00  0.00     0.163 HD
HETATM  106  C51 UNL     1      10.955  -0.315   2.000  1.00  0.00     0.236 C 
HETATM  107  O17 UNL     1      10.076  -1.175   2.017  1.00  0.00    -0.272 OA
HETATM  108  N15 UNL     1      11.005   0.712   1.073  1.00  0.00    -0.346 N 
HETATM  109  H70 UNL     1      11.857   1.257   1.103  1.00  0.00     0.163 HD
BRANCH  95 110
HETATM  110  N12 UNL     1      17.052  -2.344  -5.289  1.00  0.00    -0.129 N 
BRANCH 110 111
HETATM  111  O13 UNL     1      18.337  -2.582  -4.837  1.00  0.00    -0.263 OA
HETATM  112  H56 UNL     1      18.784  -1.745  -5.057  1.00  0.00     0.247 HD
ENDBRANCH 110 111
BRANCH 110 113
HETATM  113  O14 UNL     1      16.891  -2.405  -6.662  1.00  0.00    -0.263 OA
HETATM  114  H57 UNL     1      17.146  -3.328  -6.839  1.00  0.00     0.247 HD
ENDBRANCH 110 113
ENDBRANCH  95 110
BRANCH  99 115
HETATM  115  C52 UNL     1      15.539   2.040   1.736  1.00  0.00     0.137 C 
BRANCH 115 116
HETATM  116  C53 UNL     1      15.907   2.106   3.196  1.00  0.00     0.217 C 
HETATM  117  O18 UNL     1      15.414   1.368   4.042  1.00  0.00    -0.274 OA
HETATM  118  N16 UNL     1      16.760   3.108   3.545  1.00  0.00    -0.370 N 
HETATM  119  H71 UNL     1      17.066   3.134   4.511  1.00  0.00     0.159 HD
HETATM  120  H72 UNL     1      17.335   3.591   2.867  1.00  0.00     0.159 HD
ENDBRANCH 115 116
ENDBRANCH  99 115
ENDBRANCH  83  86
ENDBRANCH  72  82
ENDBRANCH  71  72
ENDBRANCH  70  71
ENDBRANCH  69  70
ENDBRANCH  68  69
ENDBRANCH  11  68
TORSDOF 31
