REMARK  0 active torsions:
REMARK  status: ('A' for Active; 'I' for Inactive)
REMARK       I    between atoms: C2_2  and  C3_3 
REMARK       I    between atoms: C3_3  and  C5_5 
REMARK       I    between atoms: C5_5  and  C6_6 
REMARK       I    between atoms: C5_5  and  N11_94 
REMARK       I    between atoms: C6_6  and  C7_7 
REMARK       I    between atoms: C6_6  and  O12_81 
REMARK       I    between atoms: C7_7  and  C8_8 
REMARK       I    between atoms: C8_8  and  N1_84 
REMARK       I    between atoms: C12_12  and  C13_13 
REMARK       I    between atoms: C13_13  and  C14_14 
REMARK       I    between atoms: C13_13  and  O11_80 
REMARK       I    between atoms: C14_14  and  C16_16 
REMARK       I    between atoms: C16_16  and  N2_85 
REMARK       I    between atoms: C17_17  and  C18_18 
REMARK       I    between atoms: C17_17  and  C25_25 
REMARK       I    between atoms: C17_17  and  N2_85 
REMARK       I    between atoms: C18_18  and  C19_19 
REMARK       I    between atoms: C25_25  and  N3_86 
REMARK       I    between atoms: C26_26  and  C27_27 
REMARK       I    between atoms: C26_26  and  N3_86 
REMARK       I    between atoms: C30_30  and  N4_87 
REMARK       I    between atoms: C33_33  and  C34_34 
REMARK       I    between atoms: C33_33  and  N4_87 
REMARK       I    between atoms: C34_34  and  C35_35 
REMARK       I    between atoms: C34_34  and  N7_90 
REMARK       I    between atoms: C35_35  and  C36_36 
REMARK       I    between atoms: C36_36  and  C37_37 
REMARK       I    between atoms: C37_37  and  N5_88 
REMARK       I    between atoms: C38_38  and  N5_88 
REMARK       I    between atoms: C38_38  and  N6_89 
REMARK       I    between atoms: C39_39  and  C40_40 
REMARK       I    between atoms: C39_39  and  N7_90 
REMARK       I    between atoms: C40_40  and  C41_41 
REMARK       I    between atoms: C40_40  and  N8_91 
REMARK       I    between atoms: C44_44  and  C45_45 
REMARK       I    between atoms: C44_44  and  N8_91 
REMARK       I    between atoms: C45_45  and  C46_46 
REMARK       I    between atoms: C46_46  and  C47_47 
REMARK       I    between atoms: C47_47  and  N9_92 
REMARK       I    between atoms: C50_50  and  C54_54 
REMARK       I    between atoms: C58_58  and  C59_59 
REMARK       I    between atoms: C58_58  and  N11_94 
REMARK       I    between atoms: C59_59  and  C60_60 
REMARK       I    between atoms: C59_59  and  N12_95 
REMARK       I    between atoms: C63_63  and  C64_64 
REMARK       I    between atoms: C63_63  and  N12_95 
REMARK       I    between atoms: C64_64  and  C65_65 
REMARK       I    between atoms: C64_64  and  N13_96 
REMARK       I    between atoms: N9_92  and  N10_93 
ROOT
HETATM    1  C1  UNL     1     -10.464  -0.109  -1.700  1.00  0.00     0.005 C 
HETATM    2  C2  UNL     1      -9.278  -0.889  -1.146  1.00  0.00     0.002 C 
HETATM    3  C3  UNL     1      -8.459  -1.647  -2.223  1.00  0.00     0.006 C 
HETATM    4  C4  UNL     1      -9.338  -2.731  -2.863  1.00  0.00     0.012 C 
HETATM    5  C5  UNL     1      -7.142  -2.219  -1.591  1.00  0.00     0.119 C 
HETATM    6  C6  UNL     1      -6.260  -3.160  -2.491  1.00  0.00     0.152 C 
HETATM    7  C7  UNL     1      -6.658  -4.645  -2.367  1.00  0.00     0.137 C 
HETATM    8  C8  UNL     1      -6.039  -5.311  -1.147  1.00  0.00     0.222 C 
HETATM    9  C9  UNL     1      -6.717  -7.537  -2.070  1.00  0.00     0.126 C 
HETATM   10  C10 UNL     1      -6.935  -8.796  -1.249  1.00  0.00     0.022 C 
HETATM   11  C11 UNL     1      -5.635  -8.918  -0.473  1.00  0.00     0.029 C 
HETATM   12  C12 UNL     1      -5.280  -7.459  -0.131  1.00  0.00     0.117 C 
HETATM   13  C13 UNL     1      -3.745  -7.297   0.130  1.00  0.00     0.156 C 
HETATM   14  C14 UNL     1      -2.810  -6.953  -1.057  1.00  0.00     0.105 C 
HETATM   15  C15 UNL     1      -2.903  -7.909  -2.242  1.00  0.00     0.022 C 
HETATM   16  C16 UNL     1      -2.899  -5.497  -1.518  1.00  0.00     0.224 C 
HETATM   17  C17 UNL     1      -2.400  -3.163  -0.773  1.00  0.00     0.180 C 
HETATM   18  C18 UNL     1      -1.495  -2.629  -1.897  1.00  0.00     0.073 C 
HETATM   19  C19 UNL     1      -0.015  -2.886  -1.722  1.00  0.00    -0.056 A 
HETATM   20  C20 UNL     1       0.549  -4.113  -2.096  1.00  0.00     0.007 A 
HETATM   21  C21 UNL     1       1.917  -4.343  -1.937  1.00  0.00     0.001 A 
HETATM   22  C22 UNL     1       2.736  -3.348  -1.407  1.00  0.00     0.000 A 
HETATM   23  C23 UNL     1       2.187  -2.123  -1.035  1.00  0.00     0.001 A 
HETATM   24  C24 UNL     1       0.820  -1.893  -1.192  1.00  0.00     0.007 A 
HETATM   25  C25 UNL     1      -2.105  -2.504   0.593  1.00  0.00     0.241 C 
HETATM   26  C26 UNL     1      -2.082  -0.353   1.814  1.00  0.00     0.161 C 
HETATM   27  C27 UNL     1      -0.692   0.224   1.781  1.00  0.00    -0.040 A 
HETATM   28  C28 UNL     1       0.383  -0.491   2.320  1.00  0.00     0.011 A 
HETATM   29  C29 UNL     1       1.680   0.024   2.259  1.00  0.00     0.030 A 
HETATM   30  C30 UNL     1       1.930   1.259   1.651  1.00  0.00     0.034 A 
HETATM   31  C31 UNL     1       0.862   1.970   1.104  1.00  0.00     0.030 A 
HETATM   32  C32 UNL     1      -0.439   1.455   1.165  1.00  0.00     0.011 A 
HETATM   33  C33 UNL     1       3.779   2.880   1.113  1.00  0.00     0.245 C 
HETATM   34  C34 UNL     1       5.327   2.944   1.214  1.00  0.00     0.177 C 
HETATM   35  C35 UNL     1       5.911   2.522  -0.142  1.00  0.00     0.036 C 
HETATM   36  C36 UNL     1       7.426   2.717  -0.214  1.00  0.00     0.022 C 
HETATM   37  C37 UNL     1       7.952   2.508  -1.631  1.00  0.00     0.124 C 
HETATM   38  C38 UNL     1      10.046   2.509  -2.877  1.00  0.00     0.291 C 
HETATM   39  C39 UNL     1       5.806   2.533   3.615  1.00  0.00     0.241 C 
HETATM   40  C40 UNL     1       6.410   1.523   4.628  1.00  0.00     0.180 C 
HETATM   41  C41 UNL     1       6.149   1.932   6.098  1.00  0.00     0.009 C 
HETATM   42  C42 UNL     1       6.940   1.062   7.085  1.00  0.00     0.012 C 
HETATM   43  C43 UNL     1       4.658   1.823   6.446  1.00  0.00     0.012 C 
HETATM   44  C44 UNL     1       8.341   0.551   3.394  1.00  0.00     0.218 C 
HETATM   45  C45 UNL     1       9.851   0.513   3.305  1.00  0.00     0.112 C 
HETATM   46  C46 UNL     1      10.403   1.708   2.544  1.00  0.00     0.113 C 
HETATM   47  C47 UNL     1      10.392   2.984   3.366  1.00  0.00     0.232 C 
HETATM   48  C48 UNL     1       9.634   6.099   2.387  1.00  0.00     0.115 C 
HETATM   49  C49 UNL     1      10.109   6.987   1.223  1.00  0.00     0.032 C 
HETATM   50  C50 UNL     1      11.411   6.542   0.555  1.00  0.00     0.089 C 
HETATM   51  C51 UNL     1      12.501   6.212   1.588  1.00  0.00     0.036 C 
HETATM   52  C52 UNL     1      11.971   6.117   3.035  1.00  0.00     0.076 C 
HETATM   53  C53 UNL     1      13.028   5.515   3.968  1.00  0.00     0.028 C 
HETATM   54  C54 UNL     1      11.228   5.327  -0.357  1.00  0.00     0.177 C 
HETATM   55  C55 UNL     1      -3.670  -6.835   2.492  1.00  0.00     0.202 C 
HETATM   56  C56 UNL     1      -5.258  -3.190  -4.666  1.00  0.00     0.202 C 
HETATM   57  C57 UNL     1      -5.945  -1.458   0.459  1.00  0.00     0.153 C 
HETATM   58  C58 UNL     1      -5.346  -0.380  -1.609  1.00  0.00     0.243 C 
HETATM   59  C59 UNL     1      -5.803   0.433  -2.851  1.00  0.00     0.180 C 
HETATM   60  C60 UNL     1      -4.622   1.087  -3.624  1.00  0.00     0.009 C 
HETATM   61  C61 UNL     1      -5.103   2.069  -4.699  1.00  0.00     0.012 C 
HETATM   62  C62 UNL     1      -3.750   0.026  -4.307  1.00  0.00     0.012 C 
HETATM   63  C63 UNL     1      -6.556   2.500  -1.614  1.00  0.00     0.252 C 
HETATM   64  C64 UNL     1      -7.828   3.186  -1.026  1.00  0.00     0.316 C 
HETATM   65  C65 UNL     1      -8.216   4.442  -1.861  1.00  0.00     0.020 C 
HETATM   66  C66 UNL     1      -8.578   4.068  -3.305  1.00  0.00     0.012 C 
HETATM   67  C67 UNL     1      -9.409   5.191  -1.250  1.00  0.00     0.012 C 
HETATM   68  C68 UNL     1      -7.567   2.207   1.207  1.00  0.00     0.310 C 
HETATM   69  C69 UNL     1      -6.652   4.387   0.812  1.00  0.00     0.310 C 
HETATM   70  O1  UNL     1      -5.725  -4.667  -0.149  1.00  0.00    -0.273 OA
HETATM   71  O2  UNL     1      -3.357  -5.160  -2.607  1.00  0.00    -0.273 OA
HETATM   72  O3  UNL     1      -1.723  -3.151   1.570  1.00  0.00    -0.271 OA
HETATM   73  O4  UNL     1       3.143   3.743   0.513  1.00  0.00    -0.271 OA
HETATM   74  O5  UNL     1       9.569   2.034  -3.900  1.00  0.00    -0.254 OA
HETATM   75  O6  UNL     1       5.300   3.603   3.939  1.00  0.00    -0.271 OA
HETATM   76  O7  UNL     1       7.612  -0.099   2.647  1.00  0.00    -0.274 OA
HETATM   77  O8  UNL     1      10.038   3.005   4.545  1.00  0.00    -0.272 OA
HETATM   78  O9  UNL     1      10.513   4.378   0.084  1.00  0.00    -0.648 OA
HETATM   79  O10 UNL     1      11.832   5.351  -1.464  1.00  0.00    -0.648 OA
HETATM   80  O11 UNL     1      -3.481  -6.339   1.174  1.00  0.00    -0.388 OA
HETATM   81  O12 UNL     1      -6.332  -2.711  -3.857  1.00  0.00    -0.388 OA
HETATM   82  O13 UNL     1      -4.189  -0.297  -1.178  1.00  0.00    -0.271 OA
HETATM   83  O14 UNL     1      -5.418   2.918  -1.431  1.00  0.00    -0.271 OA
HETATM   84  N1  UNL     1      -5.894  -6.686  -1.217  1.00  0.00    -0.345 N 
HETATM   85  N2  UNL     1      -2.361  -4.613  -0.615  1.00  0.00    -0.347 N 
HETATM   86  N3  UNL     1      -2.339  -1.149   0.640  1.00  0.00    -0.355 N 
HETATM   87  N4  UNL     1       3.265   1.698   1.624  1.00  0.00    -0.325 N 
HETATM   88  N5  UNL     1       9.386   2.650  -1.692  1.00  0.00    -0.348 N 
HETATM   89  N6  UNL     1      11.338   2.915  -2.814  1.00  0.00    -0.254 NA
HETATM   90  N7  UNL     1       5.813   2.088   2.303  1.00  0.00    -0.346 N 
HETATM   91  N8  UNL     1       7.840   1.383   4.361  1.00  0.00    -0.347 N 
HETATM   92  N9  UNL     1      10.823   4.068   2.625  1.00  0.00    -0.289 N 
HETATM   93  N10 UNL     1      10.692   5.388   3.137  1.00  0.00    -0.225 NA
HETATM   94  N11 UNL     1      -6.304  -1.157  -0.924  1.00  0.00    -0.347 N 
HETATM   95  N12 UNL     1      -6.830   1.381  -2.384  1.00  0.00    -0.346 N 
HETATM   96  N13 UNL     1      -7.708   3.444   0.439  1.00  0.00     0.094 N 
HETATM   97  HA1 UNL     1      -2.326  -4.933   0.356  1.00  0.00     0.163 HD
HETATM   98  HA2 UNL     1      -2.812  -0.695  -0.143  1.00  0.00     0.162 HD
HETATM   99  HA3 UNL     1       3.954   1.111   2.079  1.00  0.00     0.169 HD
HETATM  100  HA4 UNL     1       9.828   3.315  -1.042  1.00  0.00     0.163 HD
HETATM  101  HA5 UNL     1      11.518   3.748  -2.236  1.00  0.00     0.128 HD
HETATM  102  HA6 UNL     1      11.784   2.989  -3.715  1.00  0.00     0.128 HD
HETATM  103  HA7 UNL     1       6.406   1.285   2.086  1.00  0.00     0.163 HD
HETATM  104  HA8 UNL     1       8.467   2.106   4.728  1.00  0.00     0.163 HD
HETATM  105  HA9 UNL     1      10.761   3.976   1.592  1.00  0.00     0.184 HD
HETATM  106  HB0 UNL     1      -7.770   1.021  -2.338  1.00  0.00     0.163 HD
ENDROOT
TORSDOF 38
