REMARK  0 active torsions:
REMARK  status: ('A' for Active; 'I' for Inactive)
REMARK       I    between atoms: C2_2  and  C3_3 
REMARK       I    between atoms: C2_2  and  C7_7 
REMARK       I    between atoms: C2_2  and  N1_58 
REMARK       I    between atoms: C3_3  and  C4_4 
REMARK       I    between atoms: C4_4  and  C5_5 
REMARK       I    between atoms: C5_5  and  N2_59 
REMARK       I    between atoms: C6_6  and  N2_59 
REMARK       I    between atoms: C6_6  and  N3_60 
REMARK       I    between atoms: C7_7  and  N4_61 
REMARK       I    between atoms: C8_8  and  N4_61 
REMARK       I    between atoms: C10_10  and  C15_15 
REMARK       I    between atoms: C11_11  and  O3_79 
REMARK       I    between atoms: C15_15  and  N5_62 
REMARK       I    between atoms: C16_16  and  C17_17 
REMARK       I    between atoms: C16_16  and  C21_21 
REMARK       I    between atoms: C16_16  and  N5_62 
REMARK       I    between atoms: C17_17  and  C18_18 
REMARK       I    between atoms: C18_18  and  C19_19 
REMARK       I    between atoms: C19_19  and  N6_63 
REMARK       I    between atoms: C20_20  and  N6_63 
REMARK       I    between atoms: C20_20  and  N7_64 
REMARK       I    between atoms: C21_21  and  N8_65 
REMARK       I    between atoms: C22_22  and  N8_65 
REMARK       I    between atoms: C24_24  and  C29_29 
REMARK       I    between atoms: C25_25  and  O7_83 
REMARK       I    between atoms: C29_29  and  N9_66 
REMARK       I    between atoms: C30_30  and  C31_31 
REMARK       I    between atoms: C30_30  and  C35_35 
REMARK       I    between atoms: C30_30  and  N9_66 
REMARK       I    between atoms: C31_31  and  C32_32 
REMARK       I    between atoms: C32_32  and  C33_33 
REMARK       I    between atoms: C33_33  and  N10_67 
REMARK       I    between atoms: C34_34  and  N11_69 
REMARK       I    between atoms: C34_34  and  N12_70 
REMARK       I    between atoms: C35_35  and  N13_71 
REMARK       I    between atoms: C36_36  and  N13_71 
REMARK       I    between atoms: C38_38  and  C43_43 
REMARK       I    between atoms: C39_39  and  O10_86 
REMARK       I    between atoms: C43_43  and  N14_72 
REMARK       I    between atoms: C44_44  and  C45_45 
REMARK       I    between atoms: C44_44  and  C49_49 
REMARK       I    between atoms: C44_44  and  N14_72 
REMARK       I    between atoms: C45_45  and  C46_46 
REMARK       I    between atoms: C46_46  and  C47_47 
REMARK       I    between atoms: C47_47  and  N15_73 
REMARK       I    between atoms: C48_48  and  N15_73 
REMARK       I    between atoms: C48_48  and  N16_74 
REMARK       I    between atoms: C49_49  and  N17_75 
REMARK       I    between atoms: C50_50  and  N17_75 
REMARK       I    between atoms: C52_52  and  C57_57 
REMARK       I    between atoms: C53_53  and  O14_90 
REMARK       I    between atoms: C57_57  and  N18_76 
ROOT
HETATM    1  C1  UNL     1      15.532  -1.026   1.988  1.00  0.00     0.307 C 
HETATM    2  C2  UNL     1      14.230   1.022   2.147  1.00  0.00     0.311 C 
HETATM    3  C3  UNL     1      14.062   2.254   3.053  1.00  0.00     0.047 C 
HETATM    4  C4  UNL     1      15.264   3.211   3.094  1.00  0.00     0.022 C 
HETATM    5  C5  UNL     1      16.647   2.596   3.293  1.00  0.00     0.124 C 
HETATM    6  C6  UNL     1      17.892   1.367   4.981  1.00  0.00     0.291 C 
HETATM    7  C7  UNL     1      12.831   0.526   1.690  1.00  0.00     0.255 C 
HETATM    8  C8  UNL     1      11.088   1.088  -0.028  1.00  0.00     0.035 A 
HETATM    9  C9  UNL     1      10.167   0.085   0.274  1.00  0.00     0.049 A 
HETATM   10  C10 UNL     1       8.952  -0.031  -0.436  1.00  0.00     0.067 A 
HETATM   11  C11 UNL     1       8.670   0.875  -1.476  1.00  0.00     0.084 A 
HETATM   12  C12 UNL     1       9.590   1.888  -1.766  1.00  0.00     0.040 A 
HETATM   13  C13 UNL     1      10.788   1.988  -1.053  1.00  0.00     0.032 A 
HETATM   14  C14 UNL     1       7.447   1.220  -3.490  1.00  0.00     0.210 C 
HETATM   15  C15 UNL     1       8.045  -1.157  -0.028  1.00  0.00     0.255 C 
HETATM   16  C16 UNL     1       5.878  -2.311  -0.365  1.00  0.00     0.177 C 
HETATM   17  C17 UNL     1       6.274  -3.634  -1.047  1.00  0.00     0.036 C 
HETATM   18  C18 UNL     1       6.779  -3.551  -2.496  1.00  0.00     0.022 C 
HETATM   19  C19 UNL     1       5.787  -2.950  -3.489  1.00  0.00     0.124 C 
HETATM   20  C20 UNL     1       7.139  -2.545  -5.499  1.00  0.00     0.291 C 
HETATM   21  C21 UNL     1       4.440  -1.876  -0.732  1.00  0.00     0.245 C 
HETATM   22  C22 UNL     1       2.074  -2.607  -0.319  1.00  0.00     0.035 A 
HETATM   23  C23 UNL     1       1.432  -1.735  -1.197  1.00  0.00     0.049 A 
HETATM   24  C24 UNL     1       0.030  -1.743  -1.322  1.00  0.00     0.067 A 
HETATM   25  C25 UNL     1      -0.749  -2.613  -0.534  1.00  0.00     0.084 A 
HETATM   26  C26 UNL     1      -0.100  -3.490   0.339  1.00  0.00     0.040 A 
HETATM   27  C27 UNL     1       1.296  -3.487   0.441  1.00  0.00     0.032 A 
HETATM   28  C28 UNL     1      -2.912  -3.247   0.275  1.00  0.00     0.210 C 
HETATM   29  C29 UNL     1      -0.563  -0.778  -2.297  1.00  0.00     0.255 C 
HETATM   30  C30 UNL     1      -2.527  -0.273  -3.765  1.00  0.00     0.177 C 
HETATM   31  C31 UNL     1      -3.032  -1.024  -5.010  1.00  0.00     0.036 C 
HETATM   32  C32 UNL     1      -3.616  -2.434  -4.801  1.00  0.00     0.022 C 
HETATM   33  C33 UNL     1      -4.791  -2.555  -3.832  1.00  0.00     0.121 C 
HETATM   34  C34 UNL     1      -6.915  -1.582  -3.548  1.00  0.00     0.121 C 
HETATM   35  C35 UNL     1      -3.674   0.472  -3.032  1.00  0.00     0.245 C 
HETATM   36  C36 UNL     1      -4.606   0.681  -0.722  1.00  0.00     0.035 A 
HETATM   37  C37 UNL     1      -5.924   0.939  -1.089  1.00  0.00     0.049 A 
HETATM   38  C38 UNL     1      -6.926   1.162  -0.126  1.00  0.00     0.067 A 
HETATM   39  C39 UNL     1      -6.580   1.173   1.242  1.00  0.00     0.084 A 
HETATM   40  C40 UNL     1      -5.248   0.922   1.603  1.00  0.00     0.040 A 
HETATM   41  C41 UNL     1      -4.275   0.665   0.631  1.00  0.00     0.032 A 
HETATM   42  C42 UNL     1      -7.208   1.505   3.533  1.00  0.00     0.210 C 
HETATM   43  C43 UNL     1      -8.321   1.324  -0.666  1.00  0.00     0.255 C 
HETATM   44  C44 UNL     1     -10.685   1.975  -0.148  1.00  0.00     0.177 C 
HETATM   45  C45 UNL     1     -11.432   0.829  -0.855  1.00  0.00     0.036 C 
HETATM   46  C46 UNL     1     -12.668   1.268  -1.661  1.00  0.00     0.022 C 
HETATM   47  C47 UNL     1     -12.421   2.400  -2.661  1.00  0.00     0.124 C 
HETATM   48  C48 UNL     1     -10.452   3.266  -3.848  1.00  0.00     0.291 C 
HETATM   49  C49 UNL     1     -11.473   2.361   1.126  1.00  0.00     0.245 C 
HETATM   50  C50 UNL     1     -11.610   1.654   3.535  1.00  0.00     0.035 A 
HETATM   51  C51 UNL     1     -11.063   0.769   4.466  1.00  0.00     0.049 A 
HETATM   52  C52 UNL     1     -11.457   0.787   5.818  1.00  0.00     0.067 A 
HETATM   53  C53 UNL     1     -12.435   1.706   6.245  1.00  0.00     0.084 A 
HETATM   54  C54 UNL     1     -12.986   2.584   5.302  1.00  0.00     0.040 A 
HETATM   55  C55 UNL     1     -12.573   2.561   3.962  1.00  0.00     0.032 A 
HETATM   56  C56 UNL     1     -13.748   2.661   8.006  1.00  0.00     0.210 C 
HETATM   57  C57 UNL     1     -10.757  -0.192   6.706  1.00  0.00     0.252 C 
HETATM   58  N1  UNL     1      14.925  -0.055   2.898  1.00  0.00     0.092 N 
HETATM   59  N2  UNL     1      16.694   1.676   4.407  1.00  0.00    -0.348 N 
HETATM   60  N3  UNL     1      17.773   0.364   5.888  1.00  0.00    -0.254 NA
HETATM   61  N4  UNL     1      12.321   1.266   0.635  1.00  0.00    -0.325 N 
HETATM   62  N5  UNL     1       6.815  -1.240  -0.632  1.00  0.00    -0.344 N 
HETATM   63  N6  UNL     1       6.156  -3.241  -4.861  1.00  0.00    -0.348 N 
HETATM   64  N7  UNL     1       7.372  -3.026  -6.747  1.00  0.00    -0.254 NA
HETATM   65  N8  UNL     1       3.472  -2.680  -0.148  1.00  0.00    -0.325 N 
HETATM   66  N9  UNL     1      -1.746  -1.154  -2.889  1.00  0.00    -0.344 N 
HETATM   67  N10 UNL     1      -5.870  -1.690  -4.277  1.00  0.00    -0.372 N 
ATOM     68  H10 UNL     1      -5.795  -1.178  -5.156  1.00  0.00     0.161 HD
HETATM   69  N11 UNL     1      -7.903  -0.729  -3.897  1.00  0.00    -0.279 NA
HETATM   70  N12 UNL     1      -7.234  -2.217  -2.398  1.00  0.00    -0.279 NA
HETATM   71  N13 UNL     1      -3.602   0.362  -1.651  1.00  0.00    -0.325 N 
HETATM   72  N14 UNL     1      -9.321   1.583   0.247  1.00  0.00    -0.344 N 
HETATM   73  N15 UNL     1     -11.175   2.219  -3.365  1.00  0.00    -0.348 N 
HETATM   74  N16 UNL     1      -9.242   2.857  -4.309  1.00  0.00    -0.254 NA
HETATM   75  N17 UNL     1     -11.126   1.575   2.218  1.00  0.00    -0.325 N 
HETATM   76  N18 UNL     1     -11.243  -0.391   7.964  1.00  0.00    -0.366 N 
HETATM   77  O1  UNL     1      18.964   1.903   4.751  1.00  0.00    -0.254 OA
HETATM   78  O2  UNL     1      12.282  -0.415   2.256  1.00  0.00    -0.271 OA
HETATM   79  O3  UNL     1       7.475   0.763  -2.139  1.00  0.00    -0.355 OA
HETATM   80  O4  UNL     1       8.396  -1.975   0.818  1.00  0.00    -0.268 OA
HETATM   81  O5  UNL     1       7.761  -1.594  -5.053  1.00  0.00    -0.254 OA
HETATM   82  O6  UNL     1       4.231  -0.934  -1.491  1.00  0.00    -0.271 OA
HETATM   83  O7  UNL     1      -2.113  -2.545  -0.672  1.00  0.00    -0.355 OA
HETATM   84  O8  UNL     1      -0.015   0.294  -2.521  1.00  0.00    -0.268 OA
HETATM   85  O9  UNL     1      -4.503   1.146  -3.639  1.00  0.00    -0.271 OA
HETATM   86  O10 UNL     1      -7.574   1.423   2.157  1.00  0.00    -0.355 OA
HETATM   87  O11 UNL     1      -8.534   1.214  -1.872  1.00  0.00    -0.268 OA
HETATM   88  O12 UNL     1     -10.788   4.439  -3.841  1.00  0.00    -0.254 OA
HETATM   89  O13 UNL     1     -12.375   3.191   1.095  1.00  0.00    -0.271 OA
HETATM   90  O14 UNL     1     -12.792   1.699   7.570  1.00  0.00    -0.355 OA
HETATM   91  O15 UNL     1      -9.769  -0.809   6.321  1.00  0.00    -0.268 OA
HETATM   92  H56 UNL     1      14.193  -0.553   3.423  1.00  0.00     0.316 HD
HETATM   93  H57 UNL     1      16.112   0.852   4.267  1.00  0.00     0.163 HD
HETATM   94  H58 UNL     1      18.613   0.224   6.434  1.00  0.00     0.128 HD
HETATM   95  H59 UNL     1      16.914   0.360   6.419  1.00  0.00     0.128 HD
HETATM   96  H60 UNL     1      12.895   2.029   0.297  1.00  0.00     0.169 HD
HETATM   97  H61 UNL     1       6.559  -0.542  -1.331  1.00  0.00     0.163 HD
HETATM   98  H62 UNL     1       6.023  -4.186  -5.188  1.00  0.00     0.163 HD
HETATM   99  H63 UNL     1       6.549  -3.295  -7.267  1.00  0.00     0.128 HD
HETATM  100  H64 UNL     1       8.011  -2.441  -7.271  1.00  0.00     0.128 HD
HETATM  101  H65 UNL     1       3.803  -3.365   0.522  1.00  0.00     0.169 HD
HETATM  102  H66 UNL     1      -2.208  -1.977  -2.518  1.00  0.00     0.163 HD
HETATM  103  H67 UNL     1      -7.570  -0.138  -4.656  1.00  0.00     0.126 HD
HETATM  104  H68 UNL     1      -8.181  -0.126  -3.120  1.00  0.00     0.126 HD
HETATM  105  H69 UNL     1      -8.236  -2.350  -2.320  1.00  0.00     0.126 HD
HETATM  106  H70 UNL     1      -6.739  -3.087  -2.264  1.00  0.00     0.126 HD
HETATM  107  H71 UNL     1      -2.710   0.045  -1.291  1.00  0.00     0.169 HD
HETATM  108  H72 UNL     1      -8.979   1.946   1.134  1.00  0.00     0.163 HD
HETATM  109  H73 UNL     1     -10.977   1.331  -3.805  1.00  0.00     0.163 HD
HETATM  110  H74 UNL     1      -8.637   3.637  -4.534  1.00  0.00     0.128 HD
HETATM  111  H75 UNL     1      -8.794   2.196  -3.677  1.00  0.00     0.128 HD
HETATM  112  H76 UNL     1     -10.434   0.856   2.028  1.00  0.00     0.169 HD
HETATM  113  H77 UNL     1     -10.730  -0.996   8.589  1.00  0.00     0.159 HD
HETATM  114  H78 UNL     1     -11.986   0.190   8.334  1.00  0.00     0.159 HD
ENDROOT
TORSDOF 36
