REMARK  0 active torsions:
REMARK  status: ('A' for Active; 'I' for Inactive)
REMARK       I    between atoms: C3_3  and  N10_93 
REMARK       I    between atoms: C6_6  and  C7_7 
REMARK       I    between atoms: C7_7  and  N1_84 
REMARK       I    between atoms: C8_8  and  C9_9 
REMARK       I    between atoms: C8_8  and  N1_84 
REMARK       I    between atoms: C9_9  and  C10_10 
REMARK       I    between atoms: C10_10  and  C11_11 
REMARK       I    between atoms: C11_11  and  N2_85 
REMARK       I    between atoms: C12_12  and  C13_13 
REMARK       I    between atoms: C12_12  and  C17_17 
REMARK       I    between atoms: C12_12  and  N2_85 
REMARK       I    between atoms: C13_13  and  C14_14 
REMARK       I    between atoms: C13_13  and  O5_60 
REMARK       I    between atoms: C14_14  and  C15_15 
REMARK       I    between atoms: C14_14  and  O4_59 
REMARK       I    between atoms: C15_15  and  C16_16 
REMARK       I    between atoms: C16_16  and  O3_58 
REMARK       I    between atoms: C17_17  and  N3_86 
REMARK       I    between atoms: C18_18  and  C19_19 
REMARK       I    between atoms: C18_18  and  N3_86 
REMARK       I    between atoms: C19_19  and  C20_20 
REMARK       I    between atoms: C20_20  and  N4_87 
REMARK       I    between atoms: C21_21  and  C22_22 
REMARK       I    between atoms: C21_21  and  C26_26 
REMARK       I    between atoms: C21_21  and  N4_87 
REMARK       I    between atoms: C22_22  and  C23_23 
REMARK       I    between atoms: C22_22  and  O11_66 
REMARK       I    between atoms: C23_23  and  C24_24 
REMARK       I    between atoms: C23_23  and  O10_65 
REMARK       I    between atoms: C24_24  and  C25_25 
REMARK       I    between atoms: C24_24  and  O9_64 
REMARK       I    between atoms: C25_25  and  O8_63 
REMARK       I    between atoms: C26_26  and  N5_88 
REMARK       I    between atoms: C27_27  and  C28_28 
REMARK       I    between atoms: C27_27  and  C48_48 
REMARK       I    between atoms: C27_27  and  N5_88 
REMARK       I    between atoms: C28_28  and  C29_29 
REMARK       I    between atoms: C29_29  and  N6_89 
REMARK       I    between atoms: C30_30  and  C31_31 
REMARK       I    between atoms: C30_30  and  C35_35 
REMARK       I    between atoms: C30_30  and  N6_89 
REMARK       I    between atoms: C31_31  and  C32_32 
REMARK       I    between atoms: C31_31  and  O16_71 
REMARK       I    between atoms: C32_32  and  C33_33 
REMARK       I    between atoms: C32_32  and  O15_70 
REMARK       I    between atoms: C33_33  and  C34_34 
REMARK       I    between atoms: C34_34  and  O14_69 
REMARK       I    between atoms: C35_35  and  N7_90 
REMARK       I    between atoms: C36_36  and  C37_37 
REMARK       I    between atoms: C36_36  and  N7_90 
REMARK       I    between atoms: C37_37  and  C38_38 
REMARK       I    between atoms: C38_38  and  N8_91 
REMARK       I    between atoms: C39_39  and  C40_40 
REMARK       I    between atoms: C39_39  and  C44_44 
REMARK       I    between atoms: C39_39  and  N8_91 
REMARK       I    between atoms: C40_40  and  C41_41 
REMARK       I    between atoms: C40_40  and  O22_77 
REMARK       I    between atoms: C41_41  and  C42_42 
REMARK       I    between atoms: C41_41  and  O21_76 
REMARK       I    between atoms: C42_42  and  C43_43 
REMARK       I    between atoms: C42_42  and  O20_75 
REMARK       I    between atoms: C43_43  and  O19_74 
REMARK       I    between atoms: C44_44  and  N9_92 
REMARK       I    between atoms: C45_45  and  C46_46 
REMARK       I    between atoms: C45_45  and  C47_47 
REMARK       I    between atoms: C45_45  and  N9_92 
REMARK       I    between atoms: C46_46  and  S1_102 
REMARK       I    between atoms: C47_47  and  O25_80 
REMARK       I    between atoms: C48_48  and  O27_82 
REMARK       I    between atoms: C49_49  and  C50_50 
REMARK       I    between atoms: C49_49  and  N10_93 
REMARK       I    between atoms: C55_55  and  N15_101 
ROOT
HETATM    1  C1  UNL     1      10.424   2.327  -0.617  1.00  0.00     0.019 A 
HETATM    2  C2  UNL     1      11.207   2.677   0.490  1.00  0.00     0.024 A 
HETATM    3  C3  UNL     1      12.424   2.035   0.761  1.00  0.00     0.008 A 
HETATM    4  C4  UNL     1      12.797   0.972  -0.068  1.00  0.00     0.024 A 
HETATM    5  C5  UNL     1      12.023   0.615  -1.179  1.00  0.00     0.019 A 
HETATM    6  C6  UNL     1      10.843   1.304  -1.470  1.00  0.00     0.032 A 
HETATM    7  C7  UNL     1      10.052   0.886  -2.661  1.00  0.00     0.251 C 
HETATM    8  C8  UNL     1       8.468   1.590  -4.429  1.00  0.00     0.123 C 
HETATM    9  C9  UNL     1       7.016   1.274  -4.082  1.00  0.00     0.029 C 
HETATM   10  C10 UNL     1       6.858  -0.060  -3.356  1.00  0.00     0.104 C 
HETATM   11  C11 UNL     1       5.404  -0.419  -3.129  1.00  0.00     0.218 C 
HETATM   12  C12 UNL     1       3.930  -2.104  -2.087  1.00  0.00     0.207 C 
HETATM   13  C13 UNL     1       3.744  -3.641  -2.145  1.00  0.00     0.178 C 
HETATM   14  C14 UNL     1       4.408  -4.506  -1.043  1.00  0.00     0.151 C 
HETATM   15  C15 UNL     1       5.936  -4.419  -0.969  1.00  0.00     0.060 C 
HETATM   16  C16 UNL     1       6.521  -5.539  -0.113  1.00  0.00     0.166 C 
HETATM   17  C17 UNL     1       3.666  -1.564  -0.671  1.00  0.00     0.243 C 
HETATM   18  C18 UNL     1       1.944  -0.730   0.904  1.00  0.00     0.132 C 
HETATM   19  C19 UNL     1       1.845  -1.756   2.026  1.00  0.00     0.122 C 
HETATM   20  C20 UNL     1       0.673  -2.671   1.773  1.00  0.00     0.220 C 
HETATM   21  C21 UNL     1      -0.097  -4.468   0.296  1.00  0.00     0.207 C 
HETATM   22  C22 UNL     1       0.251  -5.929  -0.060  1.00  0.00     0.181 C 
HETATM   23  C23 UNL     1       0.156  -6.864   1.161  1.00  0.00     0.180 C 
HETATM   24  C24 UNL     1       0.089  -8.371   0.818  1.00  0.00     0.173 C 
HETATM   25  C25 UNL     1       1.301  -8.932   0.060  1.00  0.00     0.198 C 
HETATM   26  C26 UNL     1      -0.425  -3.679  -0.995  1.00  0.00     0.243 C 
HETATM   27  C27 UNL     1      -2.279  -3.038  -2.521  1.00  0.00     0.191 C 
HETATM   28  C28 UNL     1      -3.541  -3.689  -3.103  1.00  0.00     0.138 C 
HETATM   29  C29 UNL     1      -4.556  -3.826  -1.992  1.00  0.00     0.220 C 
HETATM   30  C30 UNL     1      -6.362  -2.650  -0.771  1.00  0.00     0.207 C 
HETATM   31  C31 UNL     1      -5.501  -1.951   0.315  1.00  0.00     0.178 C 
HETATM   32  C32 UNL     1      -5.907  -2.302   1.765  1.00  0.00     0.151 C 
HETATM   33  C33 UNL     1      -5.154  -1.491   2.834  1.00  0.00     0.060 C 
HETATM   34  C34 UNL     1      -3.638  -1.478   2.689  1.00  0.00     0.166 C 
HETATM   35  C35 UNL     1      -7.566  -1.806  -1.233  1.00  0.00     0.243 C 
HETATM   36  C36 UNL     1      -9.705  -0.775  -0.557  1.00  0.00     0.132 C 
HETATM   37  C37 UNL     1      -9.332   0.688  -0.358  1.00  0.00     0.122 C 
HETATM   38  C38 UNL     1     -10.529   1.589  -0.549  1.00  0.00     0.220 C 
HETATM   39  C39 UNL     1     -11.224   3.985  -0.692  1.00  0.00     0.207 C 
HETATM   40  C40 UNL     1     -12.325   3.967   0.401  1.00  0.00     0.181 C 
HETATM   41  C41 UNL     1     -13.768   3.832  -0.160  1.00  0.00     0.180 C 
HETATM   42  C42 UNL     1     -14.219   5.009  -1.039  1.00  0.00     0.173 C 
HETATM   43  C43 UNL     1     -15.740   5.024  -1.233  1.00  0.00     0.198 C 
HETATM   44  C44 UNL     1     -10.412   5.297  -0.792  1.00  0.00     0.243 C 
HETATM   45  C45 UNL     1     -10.453   7.732  -1.201  1.00  0.00     0.191 C 
HETATM   46  C46 UNL     1     -10.941   8.638  -2.338  1.00  0.00     0.106 C 
HETATM   47  C47 UNL     1     -10.679   8.410   0.147  1.00  0.00     0.164 C 
HETATM   48  C48 UNL     1      -2.625  -1.615  -2.044  1.00  0.00     0.164 C 
HETATM   49  C49 UNL     1      14.539   2.074   2.042  1.00  0.00     0.151 C 
HETATM   50  C50 UNL     1      15.147   2.859   3.187  1.00  0.00     0.038 A 
HETATM   51  C51 UNL     1      16.239   2.349   3.889  1.00  0.00     0.116 A 
HETATM   52  C52 UNL     1      16.343   4.234   5.194  1.00  0.00     0.140 A 
HETATM   53  C53 UNL     1      15.260   4.745   4.488  1.00  0.00     0.146 A 
HETATM   54  C54 UNL     1      14.783   6.081   4.892  1.00  0.00     0.278 A 
HETATM   55  C55 UNL     1      16.523   6.074   6.572  1.00  0.00     0.159 A 
HETATM   56  O1  UNL     1      10.128  -0.266  -3.075  1.00  0.00    -0.268 OA
HETATM   57  O2  UNL     1       4.465   0.304  -3.443  1.00  0.00    -0.274 OA
HETATM   58  O3  UNL     1       7.935  -5.401  -0.043  1.00  0.00    -0.401 OA
HETATM   59  O4  UNL     1       3.815  -4.249   0.236  1.00  0.00    -0.393 OA
HETATM   60  O5  UNL     1       4.149  -4.130  -3.435  1.00  0.00    -0.390 OA
HETATM   61  O6  UNL     1       4.564  -1.467   0.169  1.00  0.00    -0.271 OA
HETATM   62  O7  UNL     1      -0.460  -2.423   2.184  1.00  0.00    -0.274 OA
HETATM   63  O8  UNL     1       1.311  -8.534  -1.306  1.00  0.00    -0.398 OA
HETATM   64  O9  UNL     1      -0.009  -9.075   2.071  1.00  0.00    -0.391 OA
HETATM   65  O10 UNL     1       1.286  -6.635   2.021  1.00  0.00    -0.390 OA
HETATM   66  O11 UNL     1       1.587  -6.005  -0.596  1.00  0.00    -0.390 OA
HETATM   67  O12 UNL     1       0.379  -2.941  -1.568  1.00  0.00    -0.271 OA
HETATM   68  O13 UNL     1      -4.407  -4.649  -1.090  1.00  0.00    -0.274 OA
HETATM   69  O14 UNL     1      -3.141  -2.800   2.537  1.00  0.00    -0.401 OA
HETATM   70  O15 UNL     1      -7.317  -2.109   1.969  1.00  0.00    -0.393 OA
HETATM   71  O16 UNL     1      -5.434  -0.529   0.112  1.00  0.00    -0.390 OA
HETATM   72  O17 UNL     1      -7.597  -1.292  -2.354  1.00  0.00    -0.271 OA
HETATM   73  O18 UNL     1     -11.676   1.188  -0.724  1.00  0.00    -0.274 OA
HETATM   74  O19 UNL     1     -16.085   6.195  -1.980  1.00  0.00    -0.398 OA
HETATM   75  O20 UNL     1     -13.808   6.260  -0.468  1.00  0.00    -0.391 OA
HETATM   76  O21 UNL     1     -13.960   2.634  -0.917  1.00  0.00    -0.390 OA
HETATM   77  O22 UNL     1     -12.212   5.048   1.332  1.00  0.00    -0.390 OA
HETATM   78  O23 UNL     1      -9.197   5.322  -0.579  1.00  0.00    -0.271 OA
HETATM   79  O24 UNL     1     -11.644   8.261   0.882  1.00  0.00    -0.648 OA
HETATM   80  O25 UNL     1      -9.706   9.286   0.469  1.00  0.00    -0.775 OA
HETATM   81  O26 UNL     1      -3.251  -0.784  -2.686  1.00  0.00    -0.648 OA
HETATM   82  O27 UNL     1      -2.203  -1.321  -0.798  1.00  0.00    -0.775 OA
HETATM   83  O28 UNL     1      13.859   6.664   4.336  1.00  0.00    -0.265 OA
HETATM   84  N1  UNL     1       9.272   1.857  -3.253  1.00  0.00    -0.357 N 
HETATM   85  N2  UNL     1       5.252  -1.648  -2.523  1.00  0.00    -0.345 N 
HETATM   86  N3  UNL     1       2.352  -1.290  -0.373  1.00  0.00    -0.359 N 
HETATM   87  N4  UNL     1       0.972  -3.756   0.983  1.00  0.00    -0.345 N 
HETATM   88  N5  UNL     1      -1.710  -3.876  -1.454  1.00  0.00    -0.344 N 
HETATM   89  N6  UNL     1      -5.536  -2.874  -1.971  1.00  0.00    -0.345 N 
HETATM   90  N7  UNL     1      -8.578  -1.657  -0.318  1.00  0.00    -0.359 N 
HETATM   91  N8  UNL     1     -10.227   2.924  -0.469  1.00  0.00    -0.345 N 
HETATM   92  N9  UNL     1     -11.100   6.416  -1.207  1.00  0.00    -0.344 N 
HETATM   93  N10 UNL     1      13.117   2.388   1.918  1.00  0.00    -0.287 NA
HETATM   94  N11 UNL     1      16.853   3.017   4.898  1.00  0.00    -0.348 N 
ATOM     95  H11 UNL     1      17.649   2.626   5.402  1.00  0.00     0.167 HD
HETATM   96  N12 UNL     1      14.639   4.092   3.469  1.00  0.00    -0.350 N 
ATOM     97  H12 UNL     1      13.854   4.494   2.956  1.00  0.00     0.166 HD
HETATM   98  N13 UNL     1      15.455   6.651   5.951  1.00  0.00    -0.298 N 
HETATM   99  N14 UNL     1      16.983   4.913   6.241  1.00  0.00    -0.317 N 
ATOM    100  H14 UNL     1      17.783   4.505   6.724  1.00  0.00     0.170 HD
HETATM  101  N15 UNL     1      17.095   6.780   7.576  1.00  0.00    -0.274 NA
HETATM  102  S1  UNL     1     -12.758   8.833  -2.448  1.00  0.00    -0.180 SA
HETATM  103  H54 UNL     1       8.287  -5.466  -0.947  1.00  0.00     0.209 HD
HETATM  104  H55 UNL     1       4.352  -3.551   0.673  1.00  0.00     0.210 HD
HETATM  105  H56 UNL     1       3.668  -4.962  -3.592  1.00  0.00     0.210 HD
HETATM  106  H57 UNL     1       1.618  -7.601  -1.320  1.00  0.00     0.209 HD
HETATM  107  H58 UNL     1      -0.948  -9.074   2.332  1.00  0.00     0.210 HD
HETATM  108  H59 UNL     1       1.268  -7.361   2.678  1.00  0.00     0.210 HD
HETATM  109  H60 UNL     1       2.171  -5.815   0.178  1.00  0.00     0.210 HD
HETATM  110  H61 UNL     1      -2.160  -2.707   2.484  1.00  0.00     0.209 HD
HETATM  111  H62 UNL     1      -7.485  -2.291   2.914  1.00  0.00     0.210 HD
HETATM  112  H63 UNL     1      -5.313  -0.373  -0.845  1.00  0.00     0.210 HD
HETATM  113  H64 UNL     1     -15.911   5.999  -2.919  1.00  0.00     0.209 HD
HETATM  114  H65 UNL     1     -14.454   6.919  -0.813  1.00  0.00     0.210 HD
HETATM  115  H66 UNL     1     -13.268   1.975  -0.678  1.00  0.00     0.210 HD
HETATM  116  H67 UNL     1     -12.716   5.815   0.981  1.00  0.00     0.210 HD
HETATM  117  H68 UNL     1      -9.955   9.607   1.363  1.00  0.00     0.167 HD
HETATM  118  H69 UNL     1      -2.476  -0.393  -0.637  1.00  0.00     0.167 HD
HETATM  119  H70 UNL     1       9.329   2.813  -2.932  1.00  0.00     0.162 HD
HETATM  120  H71 UNL     1       6.059  -1.998  -2.026  1.00  0.00     0.163 HD
HETATM  121  H72 UNL     1       1.623  -1.577  -1.031  1.00  0.00     0.162 HD
HETATM  122  H73 UNL     1       1.887  -3.762   0.532  1.00  0.00     0.163 HD
HETATM  123  H74 UNL     1      -2.386  -4.225  -0.775  1.00  0.00     0.163 HD
HETATM  124  H75 UNL     1      -5.675  -2.227  -2.747  1.00  0.00     0.163 HD
HETATM  125  H76 UNL     1      -8.339  -1.861   0.656  1.00  0.00     0.162 HD
HETATM  126  H77 UNL     1      -9.264   3.233  -0.341  1.00  0.00     0.163 HD
HETATM  127  H78 UNL     1     -12.105   6.436  -1.035  1.00  0.00     0.163 HD
HETATM  128  H79 UNL     1      12.940   3.353   2.212  1.00  0.00     0.128 HD
HETATM  129  H80 UNL     1      15.166   7.583   6.203  1.00  0.00     0.171 HD
HETATM  130  H81 UNL     1      16.472   7.313   8.169  1.00  0.00     0.127 HD
HETATM  131  H82 UNL     1      17.747   6.214   8.112  1.00  0.00     0.127 HD
HETATM  132  H83 UNL     1     -12.939   9.370  -1.230  1.00  0.00     0.101 HD
ENDROOT
TORSDOF 63
