REMARK  18 active torsions:
REMARK  status: ('A' for Active; 'I' for Inactive)
REMARK    1  A    between atoms: C3_3  and  C35_35 
REMARK    2  A    between atoms: C5_5  and  N2_47 
REMARK    3  A    between atoms: C6_6  and  C7_7 
REMARK       I    between atoms: C6_6  and  N2_47 
REMARK    4  A    between atoms: C9_9  and  N4_49 
REMARK       I    between atoms: C11_11  and  N4_49 
REMARK       I    between atoms: C11_11  and  N5_50 
REMARK    5  A    between atoms: C12_12  and  N5_50 
REMARK    6  A    between atoms: C14_14  and  C17_17 
REMARK       I    between atoms: C17_17  and  N7_52 
REMARK    7  A    between atoms: C18_18  and  N7_52 
REMARK    8  A    between atoms: C20_20  and  C23_23 
REMARK       I    between atoms: C23_23  and  N9_54 
REMARK    9  A    between atoms: C24_24  and  N9_54 
REMARK   10  A    between atoms: C27_27  and  S1_73 
REMARK   11  A    between atoms: C33_33  and  S2_74 
REMARK       I    between atoms: C35_35  and  N10_55 
REMARK   12  A    between atoms: C36_36  and  N10_55 
REMARK   13  A    between atoms: C39_39  and  S3_75 
REMARK   14  A    between atoms: C45_45  and  S4_76 
REMARK   15  A    between atoms: O7_62  and  S1_73 
REMARK   16  A    between atoms: O10_65  and  S2_74 
REMARK   17  A    between atoms: O14_69  and  S3_75 
REMARK   18  A    between atoms: O17_72  and  S4_76 
ROOT
HETATM    1  C11 UNL     1      -0.209   1.008  -0.310  1.00  0.00     0.327 C 
HETATM    2  N4  UNL     1      -1.478   0.599   0.084  1.00  0.00    -0.294 N 
HETATM    3  N5  UNL     1       0.712   0.019   0.010  1.00  0.00    -0.294 N 
HETATM    4  O2  UNL     1       0.054   2.071  -0.855  1.00  0.00    -0.247 OA
HETATM    5  H32 UNL     1      -1.619  -0.401   0.032  1.00  0.00     0.172 HD
HETATM    6  H33 UNL     1       0.482  -0.508   0.843  1.00  0.00     0.172 HD
ENDROOT
BRANCH   2   7
HETATM    7  C9  UNL     1      -2.621   1.378   0.004  1.00  0.00     0.111 A 
HETATM    8  C10 UNL     1      -3.905   0.891  -0.172  1.00  0.00     0.067 A 
HETATM    9  C7  UNL     1      -4.814   1.988  -0.235  1.00  0.00     0.051 A 
HETATM   10  C8  UNL     1      -4.035   3.117  -0.060  1.00  0.00     0.109 A 
HETATM   11  N3  UNL     1      -2.725   2.745   0.136  1.00  0.00    -0.346 N 
HETATM   12  C34 UNL     1      -1.714   3.693   0.553  1.00  0.00     0.157 C 
BRANCH   9  13
HETATM   13  C6  UNL     1      -6.266   2.017  -0.449  1.00  0.00     0.258 C 
HETATM   14  N2  UNL     1      -6.861   0.772  -0.352  1.00  0.00    -0.309 N 
HETATM   15  H31 UNL     1      -6.324   0.055   0.115  1.00  0.00     0.170 HD
HETATM   16  O1  UNL     1      -6.852   3.076  -0.645  1.00  0.00    -0.267 OA
BRANCH  14  17
HETATM   17  C5  UNL     1      -8.210   0.499  -0.513  1.00  0.00     0.110 A 
HETATM   18  C4  UNL     1      -8.856  -0.600   0.023  1.00  0.00     0.067 A 
HETATM   19  C3  UNL     1     -10.245  -0.512  -0.271  1.00  0.00     0.051 A 
HETATM   20  C2  UNL     1     -10.386   0.613  -1.064  1.00  0.00     0.109 A 
HETATM   21  N1  UNL     1      -9.146   1.190  -1.250  1.00  0.00    -0.346 N 
HETATM   22  C1  UNL     1      -8.934   2.239  -2.225  1.00  0.00     0.157 C 
BRANCH  19  23
HETATM   23  C35 UNL     1     -11.283  -1.457   0.147  1.00  0.00     0.257 C 
HETATM   24  N10 UNL     1     -12.554  -0.906   0.205  1.00  0.00    -0.322 N 
HETATM   25  H36 UNL     1     -12.577   0.104   0.132  1.00  0.00     0.169 HD
HETATM   26  O11 UNL     1     -10.988  -2.609   0.447  1.00  0.00    -0.267 OA
BRANCH  24  27
HETATM   27  C36 UNL     1     -13.774  -1.584   0.450  1.00  0.00     0.047 C 
HETATM   28  C37 UNL     1     -14.956  -0.872   0.901  1.00  0.00     0.026 C 
HETATM   29  C38 UNL     1     -16.207  -1.571   0.798  1.00  0.00     0.001 C 
HETATM   30  C45 UNL     1     -15.035   0.456   1.468  1.00  0.00     0.085 C 
HETATM   31  C39 UNL     1     -16.214  -2.941   0.412  1.00  0.00     0.083 C 
HETATM   32  C42 UNL     1     -17.413  -0.880   1.085  1.00  0.00     0.014 C 
HETATM   33  C40 UNL     1     -15.044  -3.620   0.089  1.00  0.00     0.028 C 
HETATM   34  C41 UNL     1     -13.841  -2.939   0.093  1.00  0.00     0.032 C 
HETATM   35  C43 UNL     1     -17.445   0.435   1.527  1.00  0.00     0.002 C 
HETATM   36  C44 UNL     1     -16.256   1.094   1.748  1.00  0.00     0.026 C 
BRANCH  31  37
HETATM   37  S3  UNL     1     -17.729  -3.881   0.351  1.00  0.00     0.130 S 
HETATM   38  O12 UNL     1     -18.472  -3.435  -0.806  1.00  0.00    -0.598 OA
HETATM   39  O13 UNL     1     -18.303  -3.890   1.678  1.00  0.00    -0.598 OA
BRANCH  37  40
HETATM   40  O14 UNL     1     -17.301  -5.414   0.085  1.00  0.00    -0.292 OA
HETATM   41  H39 UNL     1     -17.748  -5.963   0.763  1.00  0.00     0.232 HD
ENDBRANCH  37  40
ENDBRANCH  31  37
BRANCH  30  42
HETATM   42  S4  UNL     1     -13.599   1.335   2.066  1.00  0.00     0.130 S 
HETATM   43  O15 UNL     1     -14.008   2.606   2.625  1.00  0.00    -0.598 OA
HETATM   44  O16 UNL     1     -12.778   0.423   2.827  1.00  0.00    -0.598 OA
BRANCH  42  45
HETATM   45  O17 UNL     1     -12.786   1.725   0.726  1.00  0.00    -0.292 OA
HETATM   46  H40 UNL     1     -12.279   2.544   0.925  1.00  0.00     0.232 HD
ENDBRANCH  42  45
ENDBRANCH  30  42
ENDBRANCH  24  27
ENDBRANCH  19  23
ENDBRANCH  14  17
ENDBRANCH   9  13
ENDBRANCH   2   7
BRANCH   3  47
HETATM   47  C12 UNL     1       2.057   0.052  -0.321  1.00  0.00     0.111 A 
HETATM   48  C13 UNL     1       3.066  -0.554   0.404  1.00  0.00     0.067 A 
HETATM   49  C14 UNL     1       4.320  -0.269  -0.210  1.00  0.00     0.051 A 
HETATM   50  C15 UNL     1       4.017   0.462  -1.346  1.00  0.00     0.109 A 
HETATM   51  N6  UNL     1       2.647   0.617  -1.429  1.00  0.00    -0.346 N 
HETATM   52  C16 UNL     1       2.008   1.161  -2.609  1.00  0.00     0.157 C 
BRANCH  49  53
HETATM   53  C17 UNL     1       5.635  -0.706   0.275  1.00  0.00     0.258 C 
HETATM   54  N7  UNL     1       6.696  -0.084  -0.353  1.00  0.00    -0.309 N 
HETATM   55  H34 UNL     1       6.472   0.753  -0.876  1.00  0.00     0.170 HD
HETATM   56  O3  UNL     1       5.711  -1.519   1.189  1.00  0.00    -0.267 OA
BRANCH  54  57
HETATM   57  C18 UNL     1       8.044  -0.292  -0.114  1.00  0.00     0.110 A 
HETATM   58  C19 UNL     1       9.039   0.611  -0.442  1.00  0.00     0.067 A 
HETATM   59  C20 UNL     1      10.301   0.101  -0.020  1.00  0.00     0.051 A 
HETATM   60  C21 UNL     1      10.025  -1.129   0.545  1.00  0.00     0.109 A 
HETATM   61  N8  UNL     1       8.674  -1.391   0.427  1.00  0.00    -0.346 N 
HETATM   62  C22 UNL     1       8.130  -2.700   0.717  1.00  0.00     0.157 C 
BRANCH  59  63
HETATM   63  C23 UNL     1      11.591   0.787  -0.149  1.00  0.00     0.257 C 
HETATM   64  N9  UNL     1      12.705  -0.008   0.085  1.00  0.00    -0.322 N 
HETATM   65  H35 UNL     1      12.515  -1.004   0.134  1.00  0.00     0.169 HD
HETATM   66  O4  UNL     1      11.628   1.968  -0.483  1.00  0.00    -0.267 OA
BRANCH  64  67
HETATM   67  C24 UNL     1      14.054   0.429   0.173  1.00  0.00     0.047 A 
HETATM   68  C25 UNL     1      15.170  -0.479  -0.029  1.00  0.00     0.026 A 
HETATM   69  C26 UNL     1      16.468  -0.009   0.371  1.00  0.00     0.001 A 
HETATM   70  C33 UNL     1      15.148  -1.804  -0.605  1.00  0.00     0.085 A 
HETATM   71  C27 UNL     1      16.623   1.335   0.808  1.00  0.00     0.083 A 
HETATM   72  C30 UNL     1      17.575  -0.899   0.323  1.00  0.00     0.014 A 
HETATM   73  C28 UNL     1      15.543   2.206   0.903  1.00  0.00     0.028 A 
HETATM   74  C29 UNL     1      14.274   1.747   0.604  1.00  0.00     0.032 A 
HETATM   75  C31 UNL     1      17.478  -2.203  -0.143  1.00  0.00     0.002 A 
HETATM   76  C32 UNL     1      16.271  -2.649  -0.630  1.00  0.00     0.026 A 
BRANCH  71  77
HETATM   77  S1  UNL     1      18.225   1.995   1.235  1.00  0.00     0.130 S 
HETATM   78  O5  UNL     1      19.059   1.934   0.054  1.00  0.00    -0.598 OA
HETATM   79  O6  UNL     1      18.626   1.400   2.489  1.00  0.00    -0.598 OA
BRANCH  77  80
HETATM   80  O7  UNL     1      18.011   3.573   1.501  1.00  0.00    -0.292 OA
HETATM   81  H37 UNL     1      18.730   4.049   1.034  1.00  0.00     0.232 HD
ENDBRANCH  77  80
ENDBRANCH  71  77
BRANCH  70  82
HETATM   82  S2  UNL     1      13.740  -2.443  -1.492  1.00  0.00     0.130 S 
HETATM   83  O8  UNL     1      12.693  -2.652  -0.516  1.00  0.00    -0.598 OA
HETATM   84  O9  UNL     1      14.178  -3.504  -2.373  1.00  0.00    -0.598 OA
BRANCH  82  85
HETATM   85  O10 UNL     1      13.289  -1.258  -2.484  1.00  0.00    -0.292 OA
HETATM   86  H38 UNL     1      13.421  -1.567  -3.406  1.00  0.00     0.232 HD
ENDBRANCH  82  85
ENDBRANCH  70  82
ENDBRANCH  64  67
ENDBRANCH  59  63
ENDBRANCH  54  57
ENDBRANCH  49  53
ENDBRANCH   3  47
TORSDOF 18
