REMARK  0 active torsions:
REMARK  status: ('A' for Active; 'I' for Inactive)
REMARK       I    between atoms: C2_2  and  C3_3 
REMARK       I    between atoms: C3_3  and  O1_66 
REMARK       I    between atoms: C4_4  and  C5_5 
REMARK       I    between atoms: C4_4  and  O1_66 
REMARK       I    between atoms: C5_5  and  N1_82 
REMARK       I    between atoms: C6_6  and  C7_7 
REMARK       I    between atoms: C6_6  and  N1_82 
REMARK       I    between atoms: C9_9  and  C59_59 
REMARK       I    between atoms: C13_13  and  C57_57 
REMARK       I    between atoms: C17_17  and  C53_53 
REMARK       I    between atoms: C21_21  and  C25_25 
REMARK       I    between atoms: C25_25  and  C26_26 
REMARK       I    between atoms: C26_26  and  C27_27 
REMARK       I    between atoms: C27_27  and  C28_28 
REMARK       I    between atoms: C28_28  and  N10_91 
REMARK       I    between atoms: C29_29  and  C30_30 
REMARK       I    between atoms: C29_29  and  N10_91 
REMARK       I    between atoms: C30_30  and  C31_31 
REMARK       I    between atoms: C31_31  and  C32_32 
REMARK       I    between atoms: C32_32  and  C33_33 
REMARK       I    between atoms: C33_33  and  N11_92 
REMARK       I    between atoms: C34_34  and  C35_35 
REMARK       I    between atoms: C34_34  and  N11_92 
REMARK       I    between atoms: C35_35  and  C36_36 
REMARK       I    between atoms: C36_36  and  C37_37 
REMARK       I    between atoms: C36_36  and  C44_44 
REMARK       I    between atoms: C37_37  and  C38_38 
REMARK       I    between atoms: C38_38  and  N12_93 
REMARK       I    between atoms: C39_39  and  C40_40 
REMARK       I    between atoms: C39_39  and  N12_93 
REMARK       I    between atoms: C44_44  and  C45_45 
REMARK       I    between atoms: C45_45  and  N14_96 
REMARK       I    between atoms: C46_46  and  C47_47 
REMARK       I    between atoms: C46_46  and  N14_96 
REMARK       I    between atoms: C53_53  and  C54_54 
REMARK       I    between atoms: C54_54  and  C55_55 
REMARK       I    between atoms: C55_55  and  N16_99 
REMARK       I    between atoms: C56_56  and  N17_101 
REMARK       I    between atoms: C56_56  and  N18_102 
REMARK       I    between atoms: C57_57  and  C58_58 
REMARK       I    between atoms: C58_58  and  O16_81 
REMARK       I    between atoms: C59_59  and  C60_60 
REMARK       I    between atoms: O13_78  and  N13_94 
REMARK       I    between atoms: O14_79  and  N15_97 
ROOT
HETATM    1  C1  UNL     1       3.707  -2.338  -8.048  1.00  0.00     0.007 C 
HETATM    2  C2  UNL     1       3.323  -2.988  -6.727  1.00  0.00     0.022 C 
HETATM    3  C3  UNL     1       2.791  -1.979  -5.716  1.00  0.00     0.167 C 
HETATM    4  C4  UNL     1       1.017  -0.499  -5.263  1.00  0.00     0.187 C 
HETATM    5  C5  UNL     1      -0.261   0.122  -5.835  1.00  0.00     0.148 C 
HETATM    6  C6  UNL     1      -0.566   1.994  -4.253  1.00  0.00     0.241 C 
HETATM    7  C7  UNL     1      -1.353   2.463  -3.000  1.00  0.00     0.186 C 
HETATM    8  C8  UNL     1      -2.278   0.342  -2.001  1.00  0.00     0.241 C 
HETATM    9  C9  UNL     1      -1.967  -0.775  -0.977  1.00  0.00     0.180 C 
HETATM   10  C10 UNL     1      -2.175  -0.952   1.489  1.00  0.00     0.241 C 
HETATM   11  C11 UNL     1      -3.024  -0.519   2.709  1.00  0.00     0.185 C 
HETATM   12  C12 UNL     1      -5.315  -0.938   1.814  1.00  0.00     0.241 C 
HETATM   13  C13 UNL     1      -6.718  -0.318   1.595  1.00  0.00     0.186 C 
HETATM   14  C14 UNL     1      -7.252   1.002   3.629  1.00  0.00     0.236 C 
HETATM   15  C15 UNL     1      -7.480   2.400   4.208  1.00  0.00     0.225 C 
HETATM   16  C16 UNL     1      -6.596   4.153   2.681  1.00  0.00     0.240 C 
HETATM   17  C17 UNL     1      -5.619   5.350   2.627  1.00  0.00     0.176 C 
HETATM   18  C18 UNL     1      -3.451   4.168   2.851  1.00  0.00     0.241 C 
HETATM   19  C19 UNL     1      -2.139   3.748   2.141  1.00  0.00     0.186 C 
HETATM   20  C20 UNL     1      -0.043   2.626   2.931  1.00  0.00     0.241 C 
HETATM   21  C21 UNL     1       0.629   1.906   4.136  1.00  0.00     0.176 C 
HETATM   22  C22 UNL     1      -1.190   0.852   5.471  1.00  0.00     0.227 C 
HETATM   23  C23 UNL     1      -1.710  -0.453   6.048  1.00  0.00     0.176 C 
HETATM   24  C24 UNL     1      -2.991  -1.572   3.824  1.00  0.00     0.109 C 
HETATM   25  C25 UNL     1       2.061   1.460   3.808  1.00  0.00     0.035 C 
HETATM   26  C26 UNL     1       3.072   2.610   3.817  1.00  0.00     0.004 C 
HETATM   27  C27 UNL     1       4.510   2.134   3.573  1.00  0.00     0.020 C 
HETATM   28  C28 UNL     1       4.751   1.506   2.201  1.00  0.00     0.122 C 
HETATM   29  C29 UNL     1       5.074   2.157  -0.141  1.00  0.00     0.217 C 
HETATM   30  C30 UNL     1       4.803   3.231  -1.168  1.00  0.00     0.103 C 
HETATM   31  C31 UNL     1       3.411   3.097  -1.779  1.00  0.00     0.018 C 
HETATM   32  C32 UNL     1       3.248   1.831  -2.621  1.00  0.00     0.103 C 
HETATM   33  C33 UNL     1       2.455   0.769  -1.887  1.00  0.00     0.217 C 
HETATM   34  C34 UNL     1       2.600  -1.284  -0.545  1.00  0.00     0.123 C 
HETATM   35  C35 UNL     1       3.198  -2.664  -0.812  1.00  0.00     0.024 C 
HETATM   36  C36 UNL     1       4.707  -2.820  -0.506  1.00  0.00    -0.010 C 
HETATM   37  C37 UNL     1       5.109  -2.300   0.893  1.00  0.00     0.034 C 
HETATM   38  C38 UNL     1       4.433  -3.010   2.073  1.00  0.00     0.271 C 
HETATM   39  C39 UNL     1       4.028  -2.756   4.522  1.00  0.00     0.190 C 
HETATM   40  C40 UNL     1       2.467  -2.686   4.442  1.00  0.00     0.043 C 
HETATM   41  C41 UNL     1       1.679  -3.540   5.426  1.00  0.00     0.068 C 
HETATM   42  C42 UNL     1       4.523  -4.182   4.817  1.00  0.00     0.055 C 
HETATM   43  C43 UNL     1       4.462  -1.823   5.667  1.00  0.00     0.055 C 
HETATM   44  C44 UNL     1       5.163  -4.285  -0.698  1.00  0.00     0.034 C 
HETATM   45  C45 UNL     1       5.109  -4.748  -2.161  1.00  0.00     0.271 C 
HETATM   46  C46 UNL     1       5.440  -6.771  -3.578  1.00  0.00     0.190 C 
HETATM   47  C47 UNL     1       3.940  -6.959  -3.979  1.00  0.00     0.043 C 
HETATM   48  C48 UNL     1       3.623  -7.096  -5.460  1.00  0.00     0.068 C 
HETATM   49  C49 UNL     1       6.043  -8.181  -3.450  1.00  0.00     0.055 C 
HETATM   50  C50 UNL     1       6.234  -5.978  -4.629  1.00  0.00     0.055 C 
HETATM   51  C51 UNL     1      -2.424   2.908   0.889  1.00  0.00     0.120 C 
HETATM   52  C52 UNL     1      -0.659   3.718  -2.433  1.00  0.00     0.120 C 
HETATM   53  C53 UNL     1      -6.205   6.470   1.760  1.00  0.00     0.036 C 
HETATM   54  C54 UNL     1      -5.355   7.746   1.812  1.00  0.00     0.022 C 
HETATM   55  C55 UNL     1      -5.968   8.884   0.995  1.00  0.00     0.121 C 
HETATM   56  C56 UNL     1      -7.847  10.291   1.125  1.00  0.00     0.121 C 
HETATM   57  C57 UNL     1      -7.032  -0.201   0.098  1.00  0.00     0.144 C 
HETATM   58  C58 UNL     1      -5.879   0.353  -0.689  1.00  0.00     0.141 C 
HETATM   59  C59 UNL     1      -2.564  -2.122  -1.418  1.00  0.00     0.073 C 
HETATM   60  C60 UNL     1      -1.776  -2.777  -2.528  1.00  0.00    -0.056 A 
HETATM   61  C61 UNL     1      -2.259  -2.781  -3.842  1.00  0.00     0.007 A 
HETATM   62  C62 UNL     1      -1.530  -3.402  -4.858  1.00  0.00     0.001 A 
HETATM   63  C63 UNL     1      -0.313  -4.017  -4.569  1.00  0.00     0.000 A 
HETATM   64  C64 UNL     1       0.178  -4.013  -3.266  1.00  0.00     0.001 A 
HETATM   65  C65 UNL     1      -0.550  -3.398  -2.249  1.00  0.00     0.007 A 
HETATM   66  O1  UNL     1       1.588  -1.398  -6.216  1.00  0.00    -0.390 OA
HETATM   67  O2  UNL     1       0.376   2.622  -4.734  1.00  0.00    -0.271 OA
HETATM   68  O3  UNL     1      -3.310   0.377  -2.675  1.00  0.00    -0.271 OA
HETATM   69  O4  UNL     1      -1.159  -1.641   1.593  1.00  0.00    -0.271 OA
HETATM   70  O5  UNL     1      -5.022  -2.059   1.404  1.00  0.00    -0.271 OA
HETATM   71  O6  UNL     1      -7.496  -0.016   4.273  1.00  0.00    -0.272 OA
HETATM   72  O7  UNL     1      -7.334   3.818   1.756  1.00  0.00    -0.271 OA
HETATM   73  O8  UNL     1      -3.696   3.881   4.024  1.00  0.00    -0.271 OA
HETATM   74  O9  UNL     1       0.568   2.954   1.915  1.00  0.00    -0.271 OA
HETATM   75  O10 UNL     1      -1.667   1.948   5.759  1.00  0.00    -0.273 OA
HETATM   76  O11 UNL     1       5.587   1.085  -0.452  1.00  0.00    -0.274 OA
HETATM   77  O12 UNL     1       1.234   0.840  -1.771  1.00  0.00    -0.274 OA
HETATM   78  O13 UNL     1       0.491  -2.038   3.601  1.00  0.00    -0.290 OA
HETATM   79  O14 UNL     1       1.739  -7.178  -3.583  1.00  0.00    -0.290 OA
HETATM   80  O15 UNL     1      -4.991   1.063  -0.246  1.00  0.00    -0.650 OA
HETATM   81  O16 UNL     1      -5.885  -0.027  -1.978  1.00  0.00    -0.776 OA
HETATM   82  N1  UNL     1      -1.030   0.828  -4.828  1.00  0.00    -0.357 N 
HETATM   83  N2  UNL     1      -1.345   1.353  -2.032  1.00  0.00    -0.345 N 
HETATM   84  N3  UNL     1      -2.537  -0.358   0.300  1.00  0.00    -0.346 N 
HETATM   85  N4  UNL     1      -4.376  -0.084   2.356  1.00  0.00    -0.345 N 
HETATM   86  N5  UNL     1      -6.869   0.958   2.306  1.00  0.00    -0.346 N 
HETATM   87  N6  UNL     1      -6.499   3.402   3.830  1.00  0.00    -0.351 N 
HETATM   88  N7  UNL     1      -4.338   4.897   2.096  1.00  0.00    -0.346 N 
HETATM   89  N8  UNL     1      -1.364   2.967   3.120  1.00  0.00    -0.345 N 
HETATM   90  N9  UNL     1      -0.143   0.737   4.587  1.00  0.00    -0.347 N 
HETATM   91  N10 UNL     1       4.648   2.473   1.127  1.00  0.00    -0.361 N 
HETATM   92  N11 UNL     1       3.205  -0.260  -1.373  1.00  0.00    -0.361 N 
HETATM   93  N12 UNL     1       4.670  -2.228   3.291  1.00  0.00     0.098 N 
HETATM   94  N13 UNL     1       1.881  -1.923   3.558  1.00  0.00    -0.275 N 
ATOM     95  H13 UNL     1       2.382  -1.314   2.911  1.00  0.00     0.193 HD
HETATM   96  N14 UNL     1       5.569  -6.134  -2.241  1.00  0.00     0.098 N 
HETATM   97  N15 UNL     1       3.022  -7.017  -3.052  1.00  0.00    -0.275 N 
ATOM     98  H15 UNL     1       3.219  -6.952  -2.053  1.00  0.00     0.193 HD
HETATM   99  N16 UNL     1      -7.203   9.315   1.641  1.00  0.00    -0.372 N 
ATOM    100  H16 UNL     1      -7.544   8.850   2.482  1.00  0.00     0.161 HD
HETATM  101  N17 UNL     1      -8.984  10.731   1.705  1.00  0.00    -0.279 NA
HETATM  102  N18 UNL     1      -7.575  11.029   0.026  1.00  0.00    -0.279 NA
HETATM  103  S1  UNL     1      -3.389  -0.845   5.461  1.00  0.00    -0.157 SA
HETATM  104  S2  UNL     1      -3.141   3.795  -0.546  1.00  0.00    -0.095 SA
HETATM  105  S3  UNL     1      -1.570   4.852  -1.300  1.00  0.00    -0.095 SA
HETATM  106  H89 UNL     1       0.216  -1.900   2.662  1.00  0.00     0.244 HD
HETATM  107  H90 UNL     1       1.186  -7.236  -2.780  1.00  0.00     0.244 HD
HETATM  108  H91 UNL     1      -5.034   0.309  -2.365  1.00  0.00     0.167 HD
HETATM  109  H92 UNL     1      -1.797   0.339  -4.380  1.00  0.00     0.162 HD
HETATM  110  H93 UNL     1      -0.413   1.117  -1.671  1.00  0.00     0.163 HD
HETATM  111  H94 UNL     1      -3.439   0.120   0.277  1.00  0.00     0.163 HD
HETATM  112  H95 UNL     1      -4.764   0.690   2.886  1.00  0.00     0.163 HD
HETATM  113  H96 UNL     1      -6.840   1.838   1.789  1.00  0.00     0.163 HD
HETATM  114  H97 UNL     1      -5.665   3.523   4.408  1.00  0.00     0.163 HD
HETATM  115  H98 UNL     1      -4.236   4.880   1.085  1.00  0.00     0.163 HD
HETATM  116  H99 UNL     1      -1.752   2.877   4.066  1.00  0.00     0.163 HD
HETATM  117  HA0 UNL     1       0.223  -0.186   4.345  1.00  0.00     0.163 HD
HETATM  118  HA1 UNL     1       3.924   3.179   1.200  1.00  0.00     0.162 HD
HETATM  119  HA2 UNL     1       4.195  -0.067  -1.212  1.00  0.00     0.162 HD
HETATM  120  HA3 UNL     1       5.676  -2.149   3.438  1.00  0.00     0.317 HD
HETATM  121  HA4 UNL     1       6.536  -6.189  -1.926  1.00  0.00     0.317 HD
HETATM  122  HA5 UNL     1      -8.996  11.738   1.806  1.00  0.00     0.126 HD
HETATM  123  HA6 UNL     1      -9.097  10.284   2.610  1.00  0.00     0.126 HD
HETATM  124  HA7 UNL     1      -8.417  11.273  -0.484  1.00  0.00     0.126 HD
HETATM  125  HA8 UNL     1      -6.891  10.614  -0.594  1.00  0.00     0.126 HD
ENDROOT
TORSDOF 39
