REMARK  0 active torsions:
REMARK  status: ('A' for Active; 'I' for Inactive)
REMARK       I    between atoms: C2_2  and  C3_3 
REMARK       I    between atoms: C2_2  and  O15_77 
REMARK       I    between atoms: C3_3  and  C4_4 
REMARK       I    between atoms: C3_3  and  N18_97 
REMARK       I    between atoms: C4_4  and  N1_78 
REMARK       I    between atoms: C5_5  and  C7_7 
REMARK       I    between atoms: C5_5  and  N1_78 
REMARK       I    between atoms: C7_7  and  N2_79 
REMARK       I    between atoms: C8_8  and  C10_10 
REMARK       I    between atoms: C8_8  and  N2_79 
REMARK       I    between atoms: C10_10  and  N3_80 
REMARK       I    between atoms: C11_11  and  C12_12 
REMARK       I    between atoms: C11_11  and  C16_16 
REMARK       I    between atoms: C11_11  and  N3_80 
REMARK       I    between atoms: C12_12  and  C13_13 
REMARK       I    between atoms: C13_13  and  C14_14 
REMARK       I    between atoms: C14_14  and  N4_81 
REMARK       I    between atoms: C15_15  and  N5_83 
REMARK       I    between atoms: C15_15  and  N6_84 
REMARK       I    between atoms: C16_16  and  N7_85 
REMARK       I    between atoms: C17_17  and  C18_18 
REMARK       I    between atoms: C17_17  and  C22_22 
REMARK       I    between atoms: C17_17  and  N7_85 
REMARK       I    between atoms: C18_18  and  C19_19 
REMARK       I    between atoms: C19_19  and  C20_20 
REMARK       I    between atoms: C20_20  and  C21_21 
REMARK       I    between atoms: C21_21  and  N8_86 
REMARK       I    between atoms: C22_22  and  N9_87 
REMARK       I    between atoms: C23_23  and  C24_24 
REMARK       I    between atoms: C23_23  and  C25_25 
REMARK       I    between atoms: C23_23  and  N9_87 
REMARK       I    between atoms: C24_24  and  O6_68 
REMARK       I    between atoms: C25_25  and  N10_88 
REMARK       I    between atoms: C26_26  and  C28_28 
REMARK       I    between atoms: C26_26  and  N10_88 
REMARK       I    between atoms: C28_28  and  N11_89 
REMARK       I    between atoms: C29_29  and  C30_30 
REMARK       I    between atoms: C29_29  and  C34_34 
REMARK       I    between atoms: C29_29  and  N11_89 
REMARK       I    between atoms: C30_30  and  C31_31 
REMARK       I    between atoms: C31_31  and  C32_32 
REMARK       I    between atoms: C32_32  and  N12_90 
REMARK       I    between atoms: C33_33  and  N13_92 
REMARK       I    between atoms: C33_33  and  N14_93 
REMARK       I    between atoms: C34_34  and  N15_94 
REMARK       I    between atoms: C35_35  and  C36_36 
REMARK       I    between atoms: C35_35  and  C40_40 
REMARK       I    between atoms: C35_35  and  N15_94 
REMARK       I    between atoms: C36_36  and  C37_37 
REMARK       I    between atoms: C37_37  and  C38_38 
REMARK       I    between atoms: C38_38  and  C39_39 
REMARK       I    between atoms: C39_39  and  N16_95 
REMARK       I    between atoms: C40_40  and  N17_96 
REMARK       I    between atoms: C41_41  and  C42_42 
REMARK       I    between atoms: C41_41  and  N18_97 
REMARK       I    between atoms: C42_42  and  C43_43 
REMARK       I    between atoms: C42_42  and  N19_98 
REMARK       I    between atoms: C43_43  and  C44_44 
REMARK       I    between atoms: C50_50  and  C51_51 
REMARK       I    between atoms: C50_50  and  N19_98 
REMARK       I    between atoms: C51_51  and  N20_99 
REMARK       I    between atoms: C52_52  and  C53_53 
REMARK       I    between atoms: C52_52  and  N20_99 
REMARK       I    between atoms: C53_53  and  N21_100 
REMARK       I    between atoms: C54_54  and  C55_55 
REMARK       I    between atoms: C54_54  and  N21_100 
REMARK       I    between atoms: C55_55  and  C56_56 
REMARK       I    between atoms: C55_55  and  N22_101 
REMARK       I    between atoms: C56_56  and  C57_57 
ROOT
HETATM    1  C1  UNL     1       3.146  -2.422  -3.943  1.00  0.00     0.042 C 
HETATM    2  C2  UNL     1       3.870  -1.444  -3.026  1.00  0.00     0.146 C 
HETATM    3  C3  UNL     1       4.033  -0.055  -3.673  1.00  0.00     0.205 C 
HETATM    4  C4  UNL     1       4.586   0.923  -2.623  1.00  0.00     0.243 C 
HETATM    5  C5  UNL     1       4.895   3.298  -2.053  1.00  0.00     0.172 C 
HETATM    6  C6  UNL     1       4.599   4.665  -2.654  1.00  0.00     0.042 C 
HETATM    7  C7  UNL     1       4.393   3.274  -0.593  1.00  0.00     0.240 C 
HETATM    8  C8  UNL     1       2.533   2.501   0.837  1.00  0.00     0.172 C 
HETATM    9  C9  UNL     1       1.201   3.197   1.079  1.00  0.00     0.042 C 
HETATM   10  C10 UNL     1       2.334   0.969   0.841  1.00  0.00     0.240 C 
HETATM   11  C11 UNL     1       1.664  -0.931   2.269  1.00  0.00     0.176 C 
HETATM   12  C12 UNL     1       2.312  -1.650   3.460  1.00  0.00     0.036 C 
HETATM   13  C13 UNL     1       3.450  -2.585   3.041  1.00  0.00     0.022 C 
HETATM   14  C14 UNL     1       4.657  -1.866   2.439  1.00  0.00     0.121 C 
HETATM   15  C15 UNL     1       5.541  -3.379   0.846  1.00  0.00     0.121 C 
HETATM   16  C16 UNL     1       0.146  -0.788   2.498  1.00  0.00     0.241 C 
HETATM   17  C17 UNL     1      -2.042  -1.973   2.405  1.00  0.00     0.176 C 
HETATM   18  C18 UNL     1      -2.654  -3.049   1.496  1.00  0.00     0.035 C 
HETATM   19  C19 UNL     1      -2.384  -2.858  -0.002  1.00  0.00     0.004 C 
HETATM   20  C20 UNL     1      -2.848  -1.525  -0.598  1.00  0.00     0.030 C 
HETATM   21  C21 UNL     1      -4.353  -1.296  -0.469  1.00  0.00     0.267 C 
HETATM   22  C22 UNL     1      -2.424  -2.220   3.886  1.00  0.00     0.241 C 
HETATM   23  C23 UNL     1      -2.159  -1.336   6.206  1.00  0.00     0.200 C 
HETATM   24  C24 UNL     1      -0.992  -0.748   7.012  1.00  0.00     0.199 C 
HETATM   25  C25 UNL     1      -3.449  -0.532   6.488  1.00  0.00     0.243 C 
HETATM   26  C26 UNL     1      -5.866  -0.415   6.023  1.00  0.00     0.172 C 
HETATM   27  C27 UNL     1      -6.719  -0.351   4.762  1.00  0.00     0.042 C 
HETATM   28  C28 UNL     1      -6.505  -1.381   7.043  1.00  0.00     0.240 C 
HETATM   29  C29 UNL     1      -8.457  -1.757   8.489  1.00  0.00     0.176 C 
HETATM   30  C30 UNL     1      -9.103  -1.021   9.673  1.00  0.00     0.036 C 
HETATM   31  C31 UNL     1     -10.012   0.146   9.274  1.00  0.00     0.022 C 
HETATM   32  C32 UNL     1     -10.755   0.721  10.482  1.00  0.00     0.121 C 
HETATM   33  C33 UNL     1     -12.872   1.784  10.224  1.00  0.00     0.121 C 
HETATM   34  C34 UNL     1      -9.500  -2.431   7.559  1.00  0.00     0.241 C 
HETATM   35  C35 UNL     1     -11.269  -4.210   7.472  1.00  0.00     0.176 C 
HETATM   36  C36 UNL     1     -12.309  -3.468   6.619  1.00  0.00     0.035 C 
HETATM   37  C37 UNL     1     -12.956  -2.212   7.213  1.00  0.00     0.004 C 
HETATM   38  C38 UNL     1     -13.822  -2.382   8.465  1.00  0.00     0.030 C 
HETATM   39  C39 UNL     1     -13.030  -2.560   9.759  1.00  0.00     0.267 C 
HETATM   40  C40 UNL     1     -10.528  -5.303   6.675  1.00  0.00     0.238 C 
HETATM   41  C41 UNL     1       5.063   0.921  -5.707  1.00  0.00     0.241 C 
HETATM   42  C42 UNL     1       6.159   0.750  -6.778  1.00  0.00     0.180 C 
HETATM   43  C43 UNL     1       7.527   1.080  -6.159  1.00  0.00     0.073 C 
HETATM   44  C44 UNL     1       8.766   0.633  -6.911  1.00  0.00    -0.056 A 
HETATM   45  C45 UNL     1      10.017   0.868  -6.313  1.00  0.00     0.007 A 
HETATM   46  C46 UNL     1      11.200   0.466  -6.936  1.00  0.00     0.001 A 
HETATM   47  C47 UNL     1      11.151  -0.180  -8.168  1.00  0.00     0.000 A 
HETATM   48  C48 UNL     1       9.921  -0.417  -8.776  1.00  0.00     0.001 A 
HETATM   49  C49 UNL     1       8.737  -0.010  -8.156  1.00  0.00     0.007 A 
HETATM   50  C50 UNL     1       5.038   1.205  -8.925  1.00  0.00     0.236 C 
HETATM   51  C51 UNL     1       4.463   2.314  -9.816  1.00  0.00     0.225 C 
HETATM   52  C52 UNL     1       5.700   4.415  -9.333  1.00  0.00     0.235 C 
HETATM   53  C53 UNL     1       6.657   5.441  -9.937  1.00  0.00     0.225 C 
HETATM   54  C54 UNL     1       8.551   4.036 -10.665  1.00  0.00     0.251 C 
HETATM   55  C55 UNL     1      10.023   3.700 -10.325  1.00  0.00     0.313 C 
HETATM   56  C56 UNL     1      10.524   2.446 -11.060  1.00  0.00     0.083 C 
HETATM   57  C57 UNL     1      11.023   2.741 -12.457  1.00  0.00    -0.056 A 
HETATM   58  C58 UNL     1      10.203   2.523 -13.571  1.00  0.00     0.007 A 
HETATM   59  C59 UNL     1      10.665   2.807 -14.857  1.00  0.00     0.001 A 
HETATM   60  C60 UNL     1      11.951   3.312 -15.042  1.00  0.00     0.000 A 
HETATM   61  C61 UNL     1      12.775   3.534 -13.942  1.00  0.00     0.001 A 
HETATM   62  C62 UNL     1      12.314   3.252 -12.655  1.00  0.00     0.007 A 
HETATM   63  O1  UNL     1       5.337   0.560  -1.719  1.00  0.00    -0.271 OA
HETATM   64  O2  UNL     1       5.061   3.706   0.344  1.00  0.00    -0.271 OA
HETATM   65  O3  UNL     1       2.255   0.304  -0.194  1.00  0.00    -0.271 OA
HETATM   66  O4  UNL     1      -0.370   0.242   2.934  1.00  0.00    -0.271 OA
HETATM   67  O5  UNL     1      -3.264  -3.043   4.243  1.00  0.00    -0.271 OA
HETATM   68  O6  UNL     1      -1.149  -0.953   8.414  1.00  0.00    -0.398 OA
HETATM   69  O7  UNL     1      -3.537   0.281   7.408  1.00  0.00    -0.271 OA
HETATM   70  O8  UNL     1      -6.089  -2.523   7.233  1.00  0.00    -0.271 OA
HETATM   71  O9  UNL     1      -9.616  -2.148   6.367  1.00  0.00    -0.271 OA
HETATM   72  O10 UNL     1     -10.472  -6.471   7.051  1.00  0.00    -0.271 OA
HETATM   73  O11 UNL     1       4.339   1.915  -5.627  1.00  0.00    -0.271 OA
HETATM   74  O12 UNL     1       4.704   0.029  -9.051  1.00  0.00    -0.272 OA
HETATM   75  O13 UNL     1       5.299   4.471  -8.172  1.00  0.00    -0.272 OA
HETATM   76  O14 UNL     1       7.891   3.524 -11.565  1.00  0.00    -0.271 OA
HETATM   77  O15 UNL     1       5.151  -2.017  -2.706  1.00  0.00    -0.393 OA
HETATM   78  N1  UNL     1       4.243   2.246  -2.841  1.00  0.00    -0.346 N 
HETATM   79  N2  UNL     1       3.075   2.881  -0.459  1.00  0.00    -0.346 N 
HETATM   80  N3  UNL     1       2.203   0.415   2.099  1.00  0.00    -0.346 N 
HETATM   81  N4  UNL     1       5.642  -2.854   2.007  1.00  0.00    -0.372 N 
ATOM     82  H4  UNL     1       6.405  -3.123   2.628  1.00  0.00     0.161 HD
HETATM   83  N5  UNL     1       6.443  -4.302   0.449  1.00  0.00    -0.279 NA
HETATM   84  N6  UNL     1       4.615  -3.192  -0.121  1.00  0.00    -0.279 NA
HETATM   85  N7  UNL     1      -0.586  -1.927   2.250  1.00  0.00    -0.346 N 
HETATM   86  N8  UNL     1      -4.722  -0.032  -1.095  1.00  0.00     0.078 N 
HETATM   87  N9  UNL     1      -1.843  -1.342   4.775  1.00  0.00    -0.344 N 
HETATM   88  N10 UNL     1      -4.525  -0.881   5.696  1.00  0.00    -0.346 N 
HETATM   89  N11 UNL     1      -7.612  -0.872   7.698  1.00  0.00    -0.346 N 
HETATM   90  N12 UNL     1     -11.614   1.797  10.013  1.00  0.00    -0.372 N 
ATOM     91  H12 UNL     1     -11.202   2.579   9.504  1.00  0.00     0.161 HD
HETATM   92  N13 UNL     1     -13.613   2.835   9.806  1.00  0.00    -0.279 NA
HETATM   93  N14 UNL     1     -13.675   0.889  10.838  1.00  0.00    -0.279 NA
HETATM   94  N15 UNL     1     -10.282  -3.386   8.175  1.00  0.00    -0.346 N 
HETATM   95  N16 UNL     1     -13.835  -2.182  10.918  1.00  0.00     0.078 N 
HETATM   96  N17 UNL     1      -9.875  -4.896   5.548  1.00  0.00    -0.368 N 
HETATM   97  N18 UNL     1       4.990  -0.092  -4.779  1.00  0.00    -0.344 N 
HETATM   98  N19 UNL     1       5.842   1.641  -7.893  1.00  0.00    -0.346 N 
HETATM   99  N20 UNL     1       5.397   3.368 -10.172  1.00  0.00    -0.351 N 
HETATM  100  N21 UNL     1       8.028   5.001  -9.825  1.00  0.00    -0.350 N 
HETATM  101  N22 UNL     1      10.121   3.548  -8.846  1.00  0.00     0.092 N 
HETATM  102  H73 UNL     1      -1.939  -0.437   8.679  1.00  0.00     0.209 HD
HETATM  103  H74 UNL     1       5.609  -1.354  -2.139  1.00  0.00     0.210 HD
HETATM  104  H75 UNL     1       4.049   2.463  -3.823  1.00  0.00     0.163 HD
HETATM  105  H76 UNL     1       2.708   2.371  -1.256  1.00  0.00     0.163 HD
HETATM  106  H77 UNL     1       2.005   1.060   2.857  1.00  0.00     0.163 HD
HETATM  107  H78 UNL     1       6.008  -5.108   0.019  1.00  0.00     0.126 HD
HETATM  108  H79 UNL     1       7.024  -4.576   1.234  1.00  0.00     0.126 HD
HETATM  109  H80 UNL     1       5.021  -3.222  -1.057  1.00  0.00     0.126 HD
HETATM  110  H81 UNL     1       4.089  -2.333  -0.025  1.00  0.00     0.126 HD
HETATM  111  H82 UNL     1      -0.098  -2.808   2.138  1.00  0.00     0.163 HD
HETATM  112  H83 UNL     1      -4.489  -0.057  -2.087  1.00  0.00     0.312 HD
HETATM  113  H84 UNL     1      -5.734   0.089  -1.046  1.00  0.00     0.312 HD
HETATM  114  H85 UNL     1      -1.457  -0.487   4.372  1.00  0.00     0.163 HD
HETATM  115  H86 UNL     1      -4.467  -1.822   5.302  1.00  0.00     0.163 HD
HETATM  116  H87 UNL     1      -8.076  -0.087   7.256  1.00  0.00     0.163 HD
HETATM  117  H88 UNL     1     -12.993   3.578   9.498  1.00  0.00     0.126 HD
HETATM  118  H89 UNL     1     -14.228   3.173  10.536  1.00  0.00     0.126 HD
HETATM  119  H90 UNL     1     -13.323  -0.064  10.912  1.00  0.00     0.126 HD
HETATM  120  H91 UNL     1     -14.596   0.848  10.417  1.00  0.00     0.126 HD
HETATM  121  H92 UNL     1      -9.893  -3.805   9.012  1.00  0.00     0.163 HD
HETATM  122  H93 UNL     1     -13.353  -2.473  11.771  1.00  0.00     0.312 HD
HETATM  123  H94 UNL     1     -14.707  -2.715  10.910  1.00  0.00     0.312 HD
HETATM  124  H95 UNL     1      -9.643  -3.909   5.440  1.00  0.00     0.159 HD
HETATM  125  H96 UNL     1      -9.253  -5.565   5.114  1.00  0.00     0.159 HD
HETATM  126  H97 UNL     1       5.679  -0.838  -4.765  1.00  0.00     0.163 HD
HETATM  127  H98 UNL     1       5.704   2.625  -7.649  1.00  0.00     0.163 HD
HETATM  128  H99 UNL     1       6.038   3.208 -10.952  1.00  0.00     0.163 HD
HETATM  129  HA0 UNL     1       8.516   5.086  -8.934  1.00  0.00     0.163 HD
HETATM  130  HA1 UNL     1      11.095   3.354  -8.606  1.00  0.00     0.313 HD
HETATM  131  HA2 UNL     1       9.628   2.689  -8.581  1.00  0.00     0.313 HD
ENDROOT
TORSDOF 52
