REMARK  0 active torsions:
REMARK  status: ('A' for Active; 'I' for Inactive)
REMARK       I    between atoms: C2_2  and  O1_62 
REMARK       I    between atoms: C3_3  and  C4_4 
REMARK       I    between atoms: C3_3  and  O1_62 
REMARK       I    between atoms: C4_4  and  C5_5 
REMARK       I    between atoms: C5_5  and  N1_77 
REMARK       I    between atoms: C6_6  and  C7_7 
REMARK       I    between atoms: C6_6  and  C11_11 
REMARK       I    between atoms: C6_6  and  N1_77 
REMARK       I    between atoms: C7_7  and  C8_8 
REMARK       I    between atoms: C8_8  and  C9_9 
REMARK       I    between atoms: C9_9  and  C10_10 
REMARK       I    between atoms: C10_10  and  N2_78 
REMARK       I    between atoms: C11_11  and  N3_79 
REMARK       I    between atoms: C12_12  and  N3_79 
REMARK       I    between atoms: C14_14  and  C19_19 
REMARK       I    between atoms: C15_15  and  O5_66 
REMARK       I    between atoms: C19_19  and  N4_80 
REMARK       I    between atoms: C20_20  and  C21_21 
REMARK       I    between atoms: C20_20  and  C25_25 
REMARK       I    between atoms: C20_20  and  N4_80 
REMARK       I    between atoms: C21_21  and  C22_22 
REMARK       I    between atoms: C22_22  and  C23_23 
REMARK       I    between atoms: C23_23  and  C24_24 
REMARK       I    between atoms: C24_24  and  N5_81 
REMARK       I    between atoms: C25_25  and  N6_82 
REMARK       I    between atoms: C26_26  and  N6_82 
REMARK       I    between atoms: C28_28  and  C33_33 
REMARK       I    between atoms: C29_29  and  O8_69 
REMARK       I    between atoms: C33_33  and  N7_83 
REMARK       I    between atoms: C34_34  and  C35_35 
REMARK       I    between atoms: C34_34  and  C39_39 
REMARK       I    between atoms: C34_34  and  N7_83 
REMARK       I    between atoms: C35_35  and  C36_36 
REMARK       I    between atoms: C36_36  and  C37_37 
REMARK       I    between atoms: C37_37  and  C38_38 
REMARK       I    between atoms: C38_38  and  N8_84 
REMARK       I    between atoms: C39_39  and  N9_85 
REMARK       I    between atoms: C40_40  and  N9_85 
REMARK       I    between atoms: C42_42  and  C47_47 
REMARK       I    between atoms: C43_43  and  O11_72 
REMARK       I    between atoms: C47_47  and  N10_86 
REMARK       I    between atoms: C48_48  and  C49_49 
REMARK       I    between atoms: C48_48  and  C53_53 
REMARK       I    between atoms: C48_48  and  N10_86 
REMARK       I    between atoms: C49_49  and  C50_50 
REMARK       I    between atoms: C50_50  and  C51_51 
REMARK       I    between atoms: C51_51  and  C52_52 
REMARK       I    between atoms: C52_52  and  N11_87 
REMARK       I    between atoms: C53_53  and  N12_88 
REMARK       I    between atoms: C54_54  and  N12_88 
REMARK       I    between atoms: C56_56  and  C61_61 
REMARK       I    between atoms: C57_57  and  O14_75 
REMARK       I    between atoms: C61_61  and  N13_89 
ROOT
HETATM    1  C1  UNL     1      18.782   0.887   2.885  1.00  0.00     0.034 C 
HETATM    2  C2  UNL     1      17.524   0.045   2.779  1.00  0.00     0.174 C 
HETATM    3  C3  UNL     1      15.964   1.351   1.563  1.00  0.00     0.267 C 
HETATM    4  C4  UNL     1      14.744   2.209   1.697  1.00  0.00     0.213 C 
HETATM    5  C5  UNL     1      13.561   1.478   2.266  1.00  0.00     0.227 C 
HETATM    6  C6  UNL     1      11.401   1.746   3.455  1.00  0.00     0.177 C 
HETATM    7  C7  UNL     1      10.908   2.633   4.608  1.00  0.00     0.035 C 
HETATM    8  C8  UNL     1       9.972   1.920   5.596  1.00  0.00     0.004 C 
HETATM    9  C9  UNL     1       8.618   1.520   5.004  1.00  0.00     0.030 C 
HETATM   10  C10 UNL     1       7.619   1.027   6.055  1.00  0.00     0.267 C 
HETATM   11  C11 UNL     1      10.403   1.675   2.271  1.00  0.00     0.245 C 
HETATM   12  C12 UNL     1       9.939   0.188   0.301  1.00  0.00     0.035 A 
HETATM   13  C13 UNL     1       8.745   0.774  -0.127  1.00  0.00     0.049 A 
HETATM   14  C14 UNL     1       8.081   0.305  -1.276  1.00  0.00     0.067 A 
HETATM   15  C15 UNL     1       8.653  -0.740  -2.013  1.00  0.00     0.084 A 
HETATM   16  C16 UNL     1       9.832  -1.347  -1.578  1.00  0.00     0.040 A 
HETATM   17  C17 UNL     1      10.471  -0.882  -0.428  1.00  0.00     0.032 A 
HETATM   18  C18 UNL     1       8.663  -0.644  -4.306  1.00  0.00     0.210 C 
HETATM   19  C19 UNL     1       6.792   0.965  -1.639  1.00  0.00     0.255 C 
HETATM   20  C20 UNL     1       4.607   0.760  -2.789  1.00  0.00     0.177 C 
HETATM   21  C21 UNL     1       4.689   1.671  -4.026  1.00  0.00     0.035 C 
HETATM   22  C22 UNL     1       5.068   0.932  -5.317  1.00  0.00     0.004 C 
HETATM   23  C23 UNL     1       5.182   1.866  -6.529  1.00  0.00     0.030 C 
HETATM   24  C24 UNL     1       6.402   2.790  -6.517  1.00  0.00     0.267 C 
HETATM   25  C25 UNL     1       3.620  -0.412  -2.991  1.00  0.00     0.245 C 
HETATM   26  C26 UNL     1       1.151  -0.792  -3.229  1.00  0.00     0.035 A 
HETATM   27  C27 UNL     1      -0.090  -0.151  -3.186  1.00  0.00     0.049 A 
HETATM   28  C28 UNL     1      -1.292  -0.862  -3.378  1.00  0.00     0.067 A 
HETATM   29  C29 UNL     1      -1.252  -2.250  -3.601  1.00  0.00     0.084 A 
HETATM   30  C30 UNL     1      -0.005  -2.883  -3.658  1.00  0.00     0.040 A 
HETATM   31  C31 UNL     1       1.182  -2.162  -3.473  1.00  0.00     0.032 A 
HETATM   32  C32 UNL     1      -2.412  -4.336  -3.679  1.00  0.00     0.210 C 
HETATM   33  C33 UNL     1      -2.547  -0.051  -3.308  1.00  0.00     0.255 C 
HETATM   34  C34 UNL     1      -4.977   0.131  -3.888  1.00  0.00     0.177 C 
HETATM   35  C35 UNL     1      -5.804  -0.276  -5.123  1.00  0.00     0.035 C 
HETATM   36  C36 UNL     1      -6.604  -1.588  -5.100  1.00  0.00     0.004 C 
HETATM   37  C37 UNL     1      -5.806  -2.842  -4.746  1.00  0.00     0.030 C 
HETATM   38  C38 UNL     1      -6.595  -4.140  -4.948  1.00  0.00     0.267 C 
HETATM   39  C39 UNL     1      -5.759   0.092  -2.543  1.00  0.00     0.245 C 
HETATM   40  C40 UNL     1      -5.321   0.437  -0.095  1.00  0.00     0.035 A 
HETATM   41  C41 UNL     1      -6.520  -0.069   0.404  1.00  0.00     0.049 A 
HETATM   42  C42 UNL     1      -6.811  -0.022   1.783  1.00  0.00     0.067 A 
HETATM   43  C43 UNL     1      -5.876   0.536   2.678  1.00  0.00     0.084 A 
HETATM   44  C44 UNL     1      -4.671   1.034   2.169  1.00  0.00     0.040 A 
HETATM   45  C45 UNL     1      -4.396   0.978   0.799  1.00  0.00     0.032 A 
HETATM   46  C46 UNL     1      -5.183   0.936   4.935  1.00  0.00     0.210 C 
HETATM   47  C47 UNL     1      -8.130  -0.601   2.195  1.00  0.00     0.255 C 
HETATM   48  C48 UNL     1      -9.872  -0.807   3.967  1.00  0.00     0.177 C 
HETATM   49  C49 UNL     1      -9.851  -0.871   5.502  1.00  0.00     0.035 C 
HETATM   50  C50 UNL     1      -8.760  -1.773   6.096  1.00  0.00     0.004 C 
HETATM   51  C51 UNL     1      -8.764  -3.230   5.623  1.00  0.00     0.030 C 
HETATM   52  C52 UNL     1     -10.066  -3.965   5.939  1.00  0.00     0.267 C 
HETATM   53  C53 UNL     1     -11.036   0.089   3.460  1.00  0.00     0.245 C 
HETATM   54  C54 UNL     1     -12.110   0.712   1.274  1.00  0.00     0.035 A 
HETATM   55  C55 UNL     1     -13.178   1.458   1.774  1.00  0.00     0.049 A 
HETATM   56  C56 UNL     1     -14.070   2.104   0.900  1.00  0.00     0.067 A 
HETATM   57  C57 UNL     1     -13.898   1.976  -0.483  1.00  0.00     0.084 A 
HETATM   58  C58 UNL     1     -12.825   1.240  -0.988  1.00  0.00     0.040 A 
HETATM   59  C59 UNL     1     -11.942   0.605  -0.113  1.00  0.00     0.032 A 
HETATM   60  C60 UNL     1     -15.679   1.770  -1.919  1.00  0.00     0.210 C 
HETATM   61  C61 UNL     1     -15.199   2.887   1.463  1.00  0.00     0.252 C 
HETATM   62  O1  UNL     1      16.363   0.889   2.780  1.00  0.00    -0.322 OA
HETATM   63  O2  UNL     1      16.545   1.154   0.504  1.00  0.00    -0.265 OA
HETATM   64  O3  UNL     1      13.367   0.272   2.128  1.00  0.00    -0.273 OA
HETATM   65  O4  UNL     1       9.557   2.544   2.086  1.00  0.00    -0.271 OA
HETATM   66  O5  UNL     1       8.063  -1.236  -3.148  1.00  0.00    -0.355 OA
HETATM   67  O6  UNL     1       6.532   2.093  -1.229  1.00  0.00    -0.268 OA
HETATM   68  O7  UNL     1       4.018  -1.567  -3.125  1.00  0.00    -0.271 OA
HETATM   69  O8  UNL     1      -2.442  -2.913  -3.759  1.00  0.00    -0.355 OA
HETATM   70  O9  UNL     1      -2.544   1.053  -2.766  1.00  0.00    -0.268 OA
HETATM   71  O10 UNL     1      -6.973  -0.078  -2.493  1.00  0.00    -0.271 OA
HETATM   72  O11 UNL     1      -6.203   0.572   4.010  1.00  0.00    -0.355 OA
HETATM   73  O12 UNL     1      -8.804  -1.271   1.415  1.00  0.00    -0.268 OA
HETATM   74  O13 UNL     1     -11.751   0.725   4.231  1.00  0.00    -0.271 OA
HETATM   75  O14 UNL     1     -14.696   2.649  -1.369  1.00  0.00    -0.355 OA
HETATM   76  O15 UNL     1     -16.327   2.863   0.989  1.00  0.00    -0.268 OA
HETATM   77  N1  UNL     1      12.656   2.290   2.919  1.00  0.00    -0.347 N 
HETATM   78  N2  UNL     1       8.037  -0.210   6.705  1.00  0.00     0.078 N 
HETATM   79  N3  UNL     1      10.650   0.586   1.448  1.00  0.00    -0.325 N 
HETATM   80  N4  UNL     1       5.912   0.244  -2.408  1.00  0.00    -0.344 N 
HETATM   81  N5  UNL     1       7.650   2.037  -6.596  1.00  0.00     0.078 N 
HETATM   82  N6  UNL     1       2.296   0.004  -3.028  1.00  0.00    -0.325 N 
HETATM   83  N7  UNL     1      -3.695  -0.585  -3.838  1.00  0.00    -0.344 N 
HETATM   84  N8  UNL     1      -7.801  -4.185  -4.136  1.00  0.00     0.078 N 
HETATM   85  N9  UNL     1      -4.964   0.420  -1.454  1.00  0.00    -0.325 N 
HETATM   86  N10 UNL     1      -8.598  -0.308   3.452  1.00  0.00    -0.344 N 
HETATM   87  N11 UNL     1      -9.960  -5.364   5.540  1.00  0.00     0.078 N 
HETATM   88  N12 UNL     1     -11.170   0.046   2.081  1.00  0.00    -0.325 N 
HETATM   89  N13 UNL     1     -14.918   3.646   2.567  1.00  0.00    -0.366 N 
HETATM   90  H68 UNL     1      12.665   3.282   2.707  1.00  0.00     0.163 HD
HETATM   91  H69 UNL     1       8.912  -0.066   7.206  1.00  0.00     0.312 HD
HETATM   92  H70 UNL     1       8.221  -0.923   6.000  1.00  0.00     0.312 HD
HETATM   93  H71 UNL     1      11.508   0.069   1.651  1.00  0.00     0.169 HD
HETATM   94  H72 UNL     1       6.163  -0.693  -2.719  1.00  0.00     0.163 HD
HETATM   95  H73 UNL     1       7.681   1.527  -7.478  1.00  0.00     0.312 HD
HETATM   96  H74 UNL     1       8.431   2.693  -6.622  1.00  0.00     0.312 HD
HETATM   97  H75 UNL     1       2.128   0.989  -2.854  1.00  0.00     0.169 HD
HETATM   98  H76 UNL     1      -3.667  -1.564  -4.101  1.00  0.00     0.163 HD
HETATM   99  H77 UNL     1      -7.584  -3.995  -3.159  1.00  0.00     0.312 HD
HETATM  100  H78 UNL     1      -8.214  -5.115  -4.172  1.00  0.00     0.312 HD
HETATM  101  H79 UNL     1      -4.039   0.782  -1.689  1.00  0.00     0.169 HD
HETATM  102  H80 UNL     1      -8.055   0.333   4.023  1.00  0.00     0.163 HD
HETATM  103  H81 UNL     1      -9.795  -5.423   4.535  1.00  0.00     0.312 HD
HETATM  104  H82 UNL     1     -10.850  -5.831   5.708  1.00  0.00     0.312 HD
HETATM  105  H83 UNL     1     -10.456  -0.497   1.589  1.00  0.00     0.169 HD
HETATM  106  H84 UNL     1     -15.655   4.247   2.911  1.00  0.00     0.159 HD
HETATM  107  H85 UNL     1     -13.975   3.803   2.896  1.00  0.00     0.159 HD
ENDROOT
TORSDOF 44
