REMARK  13 active torsions:
REMARK  status: ('A' for Active; 'I' for Inactive)
REMARK    1  A    between atoms: C2_2  and  C3_3 
REMARK    2  A    between atoms: C2_2  and  O4_50 
REMARK    3  A    between atoms: C3_3  and  C4_4 
REMARK    4  A    between atoms: C3_3  and  C8_8 
REMARK    5  A    between atoms: C4_4  and  C5_5 
REMARK    6  A    between atoms: C5_5  and  N1_34 
REMARK       I    between atoms: C8_8  and  N2_35 
REMARK    7  A    between atoms: C13_13  and  C14_14 
REMARK       I    between atoms: C13_13  and  N3_36 
REMARK    8  A    between atoms: C17_17  and  N4_37 
REMARK    9  A    between atoms: C20_20  and  C21_21 
REMARK       I    between atoms: C20_20  and  N4_37 
REMARK   10  A    between atoms: C23_23  and  C25_25 
REMARK   11  A    between atoms: C27_27  and  C28_28 
REMARK   12  A    between atoms: C29_29  and  N7_41 
REMARK   13  A    between atoms: C31_31  and  N10_46 
ROOT
HETATM    1  C20 UNL     1       3.566  -0.286   1.138  1.00  0.00     0.290 C 
HETATM    2  N4  UNL     1       2.627   0.639   0.716  1.00  0.00    -0.320 N 
HETATM    3  O3  UNL     1       3.338  -1.251   1.860  1.00  0.00    -0.264 OA
HETATM    4  H36 UNL     1       3.023   1.361   0.116  1.00  0.00     0.169 HD
ENDROOT
BRANCH   2   5
HETATM    5  C17 UNL     1       1.257   0.703   1.016  1.00  0.00     0.036 A 
HETATM    6  C16 UNL     1       0.599  -0.198   1.859  1.00  0.00     0.054 A 
HETATM    7  C15 UNL     1      -0.772  -0.066   2.112  1.00  0.00     0.051 A 
HETATM    8  C14 UNL     1      -1.496   0.963   1.502  1.00  0.00     0.054 A 
HETATM    9 CL1  UNL     1      -1.504  -1.192   3.202  1.00  0.00    -0.083 Cl
HETATM   10  C19 UNL     1      -0.841   1.884   0.679  1.00  0.00     0.021 A 
HETATM   11  C18 UNL     1       0.528   1.748   0.435  1.00  0.00     0.030 A 
BRANCH   8  12
HETATM   12  C13 UNL     1      -2.939   1.166   1.742  1.00  0.00     0.255 C 
HETATM   13  N3  UNL     1      -3.838   0.169   1.359  1.00  0.00    -0.345 N 
HETATM   14  C10 UNL     1      -3.571  -0.747   0.230  1.00  0.00     0.146 C 
HETATM   15  C11 UNL     1      -5.249   0.413   1.669  1.00  0.00     0.146 C 
HETATM   16  C9  UNL     1      -4.447  -2.007   0.293  1.00  0.00     0.145 C 
HETATM   17  N2  UNL     1      -5.863  -1.646   0.458  1.00  0.00    -0.349 N 
HETATM   18  C8  UNL     1      -6.631  -1.548  -0.688  1.00  0.00     0.226 C 
HETATM   19  C12 UNL     1      -6.083  -0.878   1.688  1.00  0.00     0.145 C 
HETATM   20  O1  UNL     1      -6.133  -1.688  -1.809  1.00  0.00    -0.273 OA
HETATM   21  O2  UNL     1      -3.295   2.223   2.259  1.00  0.00    -0.267 OA
BRANCH  18  22
HETATM   22  C3  UNL     1      -8.127  -1.245  -0.611  1.00  0.00     0.108 C 
BRANCH  22  23
HETATM   23  C2  UNL     1      -8.895  -2.202   0.317  1.00  0.00     0.127 C 
HETATM   24  C1  UNL     1      -8.954  -3.621  -0.242  1.00  0.00     0.040 C 
BRANCH  23  25
HETATM   25  O4  UNL     1     -10.231  -1.708   0.474  1.00  0.00    -0.395 OA
HETATM   26  H39 UNL     1     -10.726  -2.382   0.981  1.00  0.00     0.210 HD
ENDBRANCH  23  25
ENDBRANCH  22  23
BRANCH  22  27
HETATM   27  C4  UNL     1      -8.396   0.252  -0.358  1.00  0.00     0.044 C 
BRANCH  27  28
HETATM   28  C5  UNL     1      -9.541   0.763  -1.237  1.00  0.00     0.234 C 
BRANCH  28  29
HETATM   29  N1  UNL     1      -9.951   2.166  -0.831  1.00  0.00    -0.079 N 
HETATM   30  C6  UNL     1      -8.907   3.212  -1.112  1.00  0.00     0.269 C 
HETATM   31  C7  UNL     1     -11.271   2.541  -1.455  1.00  0.00     0.269 C 
HETATM   32  H35 UNL     1     -10.112   2.151   0.185  1.00  0.00     0.278 HD
ENDBRANCH  28  29
ENDBRANCH  27  28
ENDBRANCH  22  27
ENDBRANCH  18  22
ENDBRANCH   8  12
ENDBRANCH   2   5
BRANCH   1  33
HETATM   33  C21 UNL     1       4.892   0.026   0.611  1.00  0.00     0.177 C 
HETATM   34  N5  UNL     1       5.111   1.075  -0.169  1.00  0.00    -0.345 N 
HETATM   35  C22 UNL     1       6.456   1.067  -0.420  1.00  0.00     0.120 C 
ATOM     36  H5  UNL     1       4.423   1.746  -0.510  1.00  0.00     0.167 HD
HETATM   37  C23 UNL     1       7.090   0.030   0.238  1.00  0.00     0.065 C 
HETATM   38  N6  UNL     1       6.060  -0.689   0.802  1.00  0.00    -0.331 N 
HETATM   39  C24 UNL     1       6.097  -2.051   1.280  1.00  0.00     0.158 C 
BRANCH  37  40
HETATM   40  C25 UNL     1       8.637  -0.191   0.257  1.00  0.00     0.043 A 
HETATM   41  C26 UNL     1       9.473   0.437  -0.642  1.00  0.00     0.134 A 
HETATM   42  N7  UNL     1      10.757  -0.001  -0.398  1.00  0.00    -0.250 N 
HETATM   43  N8  UNL     1      10.778  -0.849   0.660  1.00  0.00    -0.288 N 
HETATM   44  C27 UNL     1       9.508  -0.936   1.099  1.00  0.00     0.146 A 
ATOM     45  H8  UNL     1      11.593  -1.326   1.046  1.00  0.00     0.187 HD
BRANCH  42  46
HETATM   46  C29 UNL     1      11.963   0.338  -1.100  1.00  0.00     0.126 A 
HETATM   47  C33 UNL     1      11.927   1.217  -2.180  1.00  0.00     0.052 A 
HETATM   48  C32 UNL     1      13.122   1.529  -2.838  1.00  0.00     0.028 A 
HETATM   49  C31 UNL     1      14.331   1.000  -2.396  1.00  0.00     0.021 A 
HETATM   50  C30 UNL     1      14.257   0.086  -1.350  1.00  0.00     0.113 A 
HETATM   51  N9  UNL     1      13.123  -0.235  -0.684  1.00  0.00    -0.349 N 
ATOM     52  H9  UNL     1      13.139  -0.884   0.103  1.00  0.00     0.167 HD
BRANCH  49  53
HETATM   53  N10 UNL     1      15.506   1.205  -3.124  1.00  0.00    -0.302 NA
HETATM   54  H37 UNL     1      15.537   2.082  -3.634  1.00  0.00     0.124 HD
HETATM   55  H38 UNL     1      16.359   1.040  -2.597  1.00  0.00     0.124 HD
ENDBRANCH  49  53
ENDBRANCH  42  46
BRANCH  44  56
HETATM   56  C28 UNL     1       9.202  -1.676   2.371  1.00  0.00     0.434 C 
HETATM   57  F1  UNL     1       8.183  -1.092   3.062  1.00  0.00    -0.165 F 
HETATM   58  F2  UNL     1      10.251  -1.733   3.235  1.00  0.00    -0.165 F 
HETATM   59  F3  UNL     1       8.819  -2.960   2.139  1.00  0.00    -0.165 F 
ENDBRANCH  44  56
ENDBRANCH  37  40
ENDBRANCH   1  33
TORSDOF 13
