REMARK  0 active torsions:
REMARK  status: ('A' for Active; 'I' for Inactive)
REMARK       I    between atoms: C2_2  and  C3_3 
REMARK       I    between atoms: C3_3  and  C5_5 
REMARK       I    between atoms: C3_3  and  N13_101 
REMARK       I    between atoms: C5_5  and  N1_89 
REMARK       I    between atoms: C6_6  and  C7_7 
REMARK       I    between atoms: C6_6  and  C10_10 
REMARK       I    between atoms: C6_6  and  N1_89 
REMARK       I    between atoms: C7_7  and  C8_8 
REMARK       I    between atoms: C8_8  and  C9_9 
REMARK       I    between atoms: C9_9  and  N2_90 
REMARK       I    between atoms: C10_10  and  N3_91 
REMARK       I    between atoms: C11_11  and  C13_13 
REMARK       I    between atoms: C11_11  and  C15_15 
REMARK       I    between atoms: C11_11  and  N3_91 
REMARK       I    between atoms: C15_15  and  N4_92 
REMARK       I    between atoms: C16_16  and  C17_17 
REMARK       I    between atoms: C16_16  and  C20_20 
REMARK       I    between atoms: C16_16  and  N4_92 
REMARK       I    between atoms: C20_20  and  N5_93 
REMARK       I    between atoms: C21_21  and  C24_24 
REMARK       I    between atoms: C21_21  and  N5_93 
REMARK       I    between atoms: C24_24  and  N6_94 
REMARK       I    between atoms: C25_25  and  C27_27 
REMARK       I    between atoms: C25_25  and  N6_94 
REMARK       I    between atoms: C27_27  and  N7_95 
REMARK       I    between atoms: C28_28  and  C31_31 
REMARK       I    between atoms: C28_28  and  N7_95 
REMARK       I    between atoms: C31_31  and  N8_96 
REMARK       I    between atoms: C32_32  and  C35_35 
REMARK       I    between atoms: C32_32  and  N8_96 
REMARK       I    between atoms: C35_35  and  N9_97 
REMARK       I    between atoms: C36_36  and  C39_39 
REMARK       I    between atoms: C36_36  and  N9_97 
REMARK       I    between atoms: C39_39  and  N10_98 
REMARK       I    between atoms: C40_40  and  C41_41 
REMARK       I    between atoms: C40_40  and  C44_44 
REMARK       I    between atoms: C40_40  and  N10_98 
REMARK       I    between atoms: C41_41  and  C42_42 
REMARK       I    between atoms: C42_42  and  C43_43 
REMARK       I    between atoms: C43_43  and  N11_99 
REMARK       I    between atoms: C44_44  and  N12_100 
REMARK       I    between atoms: C45_45  and  C46_46 
REMARK       I    between atoms: C45_45  and  C53_53 
REMARK       I    between atoms: C45_45  and  N12_100 
REMARK       I    between atoms: C46_46  and  C47_47 
REMARK       I    between atoms: C53_53  and  O13_83 
REMARK       I    between atoms: C54_54  and  C55_55 
REMARK       I    between atoms: C54_54  and  N13_101 
REMARK       I    between atoms: C55_55  and  C56_56 
REMARK       I    between atoms: C55_55  and  N14_102 
REMARK       I    between atoms: C56_56  and  C57_57 
REMARK       I    between atoms: C60_60  and  C61_61 
REMARK       I    between atoms: C60_60  and  N14_102 
REMARK       I    between atoms: C61_61  and  N15_103 
REMARK       I    between atoms: C63_63  and  C64_64 
REMARK       I    between atoms: C63_63  and  N15_103 
REMARK       I    between atoms: C64_64  and  N16_104 
REMARK       I    between atoms: C65_65  and  C66_66 
REMARK       I    between atoms: C65_65  and  N16_104 
REMARK       I    between atoms: C66_66  and  N17_105 
REMARK       I    between atoms: C69_69  and  N17_105 
ROOT
HETATM    1  C1  UNL     1      -8.192   3.449   2.797  1.00  0.00     0.008 C 
HETATM    2  C2  UNL     1      -7.465   2.121   2.597  1.00  0.00     0.036 C 
HETATM    3  C3  UNL     1      -6.829   1.900   1.200  1.00  0.00     0.110 C 
HETATM    4  C4  UNL     1      -6.081   0.553   1.248  1.00  0.00     0.049 C 
HETATM    5  C5  UNL     1      -5.910   3.116   0.853  1.00  0.00     0.246 C 
HETATM    6  C6  UNL     1      -3.601   4.017   0.795  1.00  0.00     0.177 C 
HETATM    7  C7  UNL     1      -3.047   4.860   1.944  1.00  0.00     0.044 C 
HETATM    8  C8  UNL     1      -4.090   5.785   2.573  1.00  0.00     0.105 C 
HETATM    9  C9  UNL     1      -4.470   6.914   1.643  1.00  0.00     0.215 C 
HETATM   10  C10 UNL     1      -2.511   3.173   0.103  1.00  0.00     0.241 C 
HETATM   11  C11 UNL     1      -2.255   1.179  -1.377  1.00  0.00     0.110 C 
HETATM   12  C12 UNL     1      -0.900   1.602  -1.969  1.00  0.00     0.049 C 
HETATM   13  C13 UNL     1      -3.091   0.414  -2.434  1.00  0.00     0.036 C 
HETATM   14  C14 UNL     1      -3.437   1.226  -3.677  1.00  0.00     0.008 C 
HETATM   15  C15 UNL     1      -2.091   0.227  -0.141  1.00  0.00     0.246 C 
HETATM   16  C16 UNL     1      -0.837  -1.698   0.830  1.00  0.00     0.180 C 
HETATM   17  C17 UNL     1      -0.816  -3.160   0.323  1.00  0.00     0.009 C 
HETATM   18  C18 UNL     1       0.374  -3.477  -0.588  1.00  0.00     0.012 C 
HETATM   19  C19 UNL     1      -0.898  -4.174   1.467  1.00  0.00     0.012 C 
HETATM   20  C20 UNL     1       0.472  -1.236   1.534  1.00  0.00     0.241 C 
HETATM   21  C21 UNL     1       1.781   0.835   2.229  1.00  0.00     0.106 C 
HETATM   22  C22 UNL     1       1.565   2.347   2.017  1.00  0.00     0.048 C 
HETATM   23  C23 UNL     1       1.763   0.566   3.741  1.00  0.00     0.048 C 
HETATM   24  C24 UNL     1       3.166   0.456   1.605  1.00  0.00     0.246 C 
HETATM   25  C25 UNL     1       4.741  -1.422   1.168  1.00  0.00     0.172 C 
HETATM   26  C26 UNL     1       4.551  -1.497  -0.343  1.00  0.00     0.042 C 
HETATM   27  C27 UNL     1       6.097  -0.785   1.558  1.00  0.00     0.241 C 
HETATM   28  C28 UNL     1       7.318   0.089   3.601  1.00  0.00     0.106 C 
HETATM   29  C29 UNL     1       6.859   0.939   4.800  1.00  0.00     0.048 C 
HETATM   30  C30 UNL     1       8.330   0.899   2.783  1.00  0.00     0.048 C 
HETATM   31  C31 UNL     1       7.949  -1.238   4.137  1.00  0.00     0.246 C 
HETATM   32  C32 UNL     1       9.726  -2.194   5.701  1.00  0.00     0.106 C 
HETATM   33  C33 UNL     1       8.829  -3.351   6.166  1.00  0.00     0.048 C 
HETATM   34  C34 UNL     1      10.396  -1.588   6.950  1.00  0.00     0.048 C 
HETATM   35  C35 UNL     1      10.832  -2.725   4.743  1.00  0.00     0.246 C 
HETATM   36  C36 UNL     1      11.260  -3.270   2.340  1.00  0.00     0.106 C 
HETATM   37  C37 UNL     1      10.430  -3.823   1.171  1.00  0.00     0.048 C 
HETATM   38  C38 UNL     1      12.437  -4.221   2.603  1.00  0.00     0.048 C 
HETATM   39  C39 UNL     1      11.741  -1.828   1.964  1.00  0.00     0.246 C 
HETATM   40  C40 UNL     1      13.326  -0.487   0.595  1.00  0.00     0.177 C 
HETATM   41  C41 UNL     1      14.769  -0.691   0.097  1.00  0.00     0.044 C 
HETATM   42  C42 UNL     1      14.939  -1.196  -1.340  1.00  0.00     0.105 C 
HETATM   43  C43 UNL     1      14.385  -2.582  -1.593  1.00  0.00     0.215 C 
HETATM   44  C44 UNL     1      12.476   0.271  -0.446  1.00  0.00     0.240 C 
HETATM   45  C45 UNL     1      10.667   0.000  -2.125  1.00  0.00     0.112 C 
HETATM   46  C46 UNL     1      10.530  -0.852  -3.404  1.00  0.00     0.065 C 
HETATM   47  C47 UNL     1      11.719  -0.894  -4.348  1.00  0.00    -0.056 A 
HETATM   48  C48 UNL     1      11.822  -1.971  -5.245  1.00  0.00     0.007 A 
HETATM   49  C49 UNL     1      12.870  -2.044  -6.164  1.00  0.00     0.001 A 
HETATM   50  C50 UNL     1      13.829  -1.035  -6.207  1.00  0.00     0.000 A 
HETATM   51  C51 UNL     1      13.734   0.046  -5.335  1.00  0.00     0.001 A 
HETATM   52  C52 UNL     1      12.683   0.120  -4.416  1.00  0.00     0.007 A 
HETATM   53  C53 UNL     1       9.339   0.037  -1.347  1.00  0.00     0.189 C 
HETATM   54  C54 UNL     1      -7.569   1.645  -1.173  1.00  0.00     0.241 C 
HETATM   55  C55 UNL     1      -8.735   1.869  -2.165  1.00  0.00     0.177 C 
HETATM   56  C56 UNL     1      -8.882   3.371  -2.463  1.00  0.00     0.038 C 
HETATM   57  C57 UNL     1      -9.952   3.735  -3.511  1.00  0.00    -0.020 C 
HETATM   58  C58 UNL     1     -10.009   5.255  -3.684  1.00  0.00     0.009 C 
HETATM   59  C59 UNL     1      -9.702   3.069  -4.864  1.00  0.00     0.009 C 
HETATM   60  C60 UNL     1     -10.824   1.627  -0.763  1.00  0.00     0.240 C 
HETATM   61  C61 UNL     1     -12.100   0.772  -0.605  1.00  0.00     0.172 C 
HETATM   62  C62 UNL     1     -11.838  -0.281   0.467  1.00  0.00     0.042 C 
HETATM   63  C63 UNL     1     -13.143   0.852  -2.837  1.00  0.00     0.236 C 
HETATM   64  C64 UNL     1     -13.787  -0.011  -3.922  1.00  0.00     0.225 C 
HETATM   65  C65 UNL     1     -15.254  -1.498  -2.613  1.00  0.00     0.245 C 
HETATM   66  C66 UNL     1     -16.715  -1.854  -2.203  1.00  0.00     0.106 C 
HETATM   67  C67 UNL     1     -17.168  -0.809  -1.170  1.00  0.00     0.048 C 
HETATM   68  C68 UNL     1     -17.690  -1.821  -3.390  1.00  0.00     0.048 C 
HETATM   69  C69 UNL     1     -16.496  -4.349  -2.227  1.00  0.00     0.214 C 
HETATM   70  C70 UNL     1     -16.288  -5.544  -1.336  1.00  0.00     0.117 C 
HETATM   71  O1  UNL     1      -6.341   4.128   0.291  1.00  0.00    -0.271 OA
HETATM   72  O2  UNL     1      -3.767   7.903   1.469  1.00  0.00    -0.274 OA
HETATM   73  O3  UNL     1      -1.324   3.215   0.409  1.00  0.00    -0.271 OA
HETATM   74  O4  UNL     1      -2.759   0.354   0.889  1.00  0.00    -0.271 OA
HETATM   75  O5  UNL     1       1.223  -2.007   2.128  1.00  0.00    -0.271 OA
HETATM   76  O6  UNL     1       3.831   1.238   0.928  1.00  0.00    -0.271 OA
HETATM   77  O7  UNL     1       7.095  -0.874   0.845  1.00  0.00    -0.271 OA
HETATM   78  O8  UNL     1       7.553  -2.349   3.783  1.00  0.00    -0.271 OA
HETATM   79  O9  UNL     1      12.014  -2.788   5.076  1.00  0.00    -0.271 OA
HETATM   80  O10 UNL     1      11.252  -0.811   2.461  1.00  0.00    -0.271 OA
HETATM   81  O11 UNL     1      13.983  -3.341  -0.718  1.00  0.00    -0.274 OA
HETATM   82  O12 UNL     1      12.604   1.476  -0.651  1.00  0.00    -0.271 OA
HETATM   83  O13 UNL     1       8.984  -1.288  -0.947  1.00  0.00    -0.399 OA
HETATM   84  O14 UNL     1      -6.421   1.435  -1.571  1.00  0.00    -0.271 OA
HETATM   85  O15 UNL     1     -10.510   2.497   0.048  1.00  0.00    -0.271 OA
HETATM   86  O16 UNL     1     -13.260   2.072  -2.804  1.00  0.00    -0.272 OA
HETATM   87  O17 UNL     1     -14.268  -2.034  -2.095  1.00  0.00    -0.271 OA
HETATM   88  O18 UNL     1     -16.480  -4.443  -3.449  1.00  0.00    -0.274 OA
HETATM   89  N1  UNL     1      -4.605   3.058   1.280  1.00  0.00    -0.346 N 
HETATM   90  N2  UNL     1      -5.650   6.762   0.980  1.00  0.00    -0.370 N 
HETATM   91  N3  UNL     1      -3.019   2.335  -0.883  1.00  0.00    -0.342 N 
HETATM   92  N4  UNL     1      -1.175  -0.793  -0.280  1.00  0.00    -0.345 N 
HETATM   93  N5  UNL     1       0.688   0.126   1.525  1.00  0.00    -0.342 N 
HETATM   94  N6  UNL     1       3.597  -0.832   1.863  1.00  0.00    -0.346 N 
HETATM   95  N7  UNL     1       6.108  -0.262   2.837  1.00  0.00    -0.342 N 
HETATM   96  N8  UNL     1       8.981  -1.090   5.039  1.00  0.00    -0.342 N 
HETATM   97  N9  UNL     1      10.373  -3.149   3.510  1.00  0.00    -0.342 N 
HETATM   98  N10 UNL     1      12.711  -1.755   0.988  1.00  0.00    -0.346 N 
HETATM   99  N11 UNL     1      14.384  -2.957  -2.903  1.00  0.00    -0.370 N 
HETATM  100  N12 UNL     1      11.705  -0.546  -1.248  1.00  0.00    -0.352 N 
HETATM  101  N13 UNL     1      -7.868   1.845   0.160  1.00  0.00    -0.342 N 
HETATM  102  N14 UNL     1      -9.978   1.206  -1.764  1.00  0.00    -0.346 N 
HETATM  103  N15 UNL     1     -12.488   0.120  -1.861  1.00  0.00    -0.347 N 
HETATM  104  N16 UNL     1     -15.101  -0.444  -3.488  1.00  0.00    -0.350 N 
HETATM  105  N17 UNL     1     -16.683  -3.170  -1.535  1.00  0.00    -0.344 N 
HETATM  106  H98 UNL     1       8.266  -1.177  -0.279  1.00  0.00     0.209 HD
HETATM  107  H99 UNL     1      -4.234   2.176   1.625  1.00  0.00     0.163 HD
HETATM  108  HA0 UNL     1      -5.855   7.454   0.272  1.00  0.00     0.159 HD
HETATM  109  HA1 UNL     1      -6.044   5.834   0.813  1.00  0.00     0.159 HD
HETATM  110  HA2 UNL     1      -4.032   2.231  -0.887  1.00  0.00     0.163 HD
HETATM  111  HA3 UNL     1      -0.518  -0.755  -1.049  1.00  0.00     0.163 HD
HETATM  112  HA4 UNL     1      -0.101   0.702   1.251  1.00  0.00     0.163 HD
HETATM  113  HA5 UNL     1       2.859  -1.484   2.137  1.00  0.00     0.163 HD
HETATM  114  HA6 UNL     1       5.288  -0.512   3.377  1.00  0.00     0.163 HD
HETATM  115  HA7 UNL     1       9.531  -0.246   4.918  1.00  0.00     0.163 HD
HETATM  116  HA8 UNL     1       9.404  -2.909   3.308  1.00  0.00     0.163 HD
HETATM  117  HA9 UNL     1      13.079  -2.611   0.569  1.00  0.00     0.163 HD
HETATM  118  HB0 UNL     1      14.329  -2.246  -3.625  1.00  0.00     0.159 HD
HETATM  119  HB1 UNL     1      13.905  -3.823  -3.114  1.00  0.00     0.159 HD
HETATM  120  HB2 UNL     1      11.480  -1.450  -0.842  1.00  0.00     0.163 HD
HETATM  121  HB3 UNL     1      -8.746   2.338   0.333  1.00  0.00     0.163 HD
HETATM  122  HB4 UNL     1     -10.391   0.556  -2.423  1.00  0.00     0.163 HD
HETATM  123  HB5 UNL     1     -12.834  -0.841  -1.784  1.00  0.00     0.163 HD
HETATM  124  HB6 UNL     1     -15.895   0.129  -3.746  1.00  0.00     0.163 HD
HETATM  125  HB7 UNL     1     -16.273  -3.166  -0.609  1.00  0.00     0.163 HD
ENDROOT
TORSDOF 44
