REMARK  32 active torsions:
REMARK  status: ('A' for Active; 'I' for Inactive)
REMARK    1  A    between atoms: C2_2  and  C4_4 
REMARK    2  A    between atoms: C2_2  and  O5_74 
REMARK    3  A    between atoms: C4_4  and  C5_5 
REMARK    4  A    between atoms: C6_6  and  C16_16 
REMARK    5  A    between atoms: C8_8  and  C11_11 
REMARK    6  A    between atoms: C11_11  and  N1_54 
REMARK    7  A    between atoms: C12_12  and  C13_13 
REMARK    8  A    between atoms: C12_12  and  N1_54 
REMARK    9  A    between atoms: C13_13  and  C14_14 
REMARK   10  A    between atoms: C14_14  and  N2_55 
REMARK   11  A    between atoms: C17_17  and  N5_60 
REMARK   12  A    between atoms: C20_20  and  C21_21 
REMARK   13  A    between atoms: C20_20  and  N5_60 
REMARK   14  A    between atoms: C21_21  and  C22_22 
REMARK   15  A    between atoms: C24_24  and  O4_73 
REMARK   16  A    between atoms: C25_25  and  O3_72 
REMARK       I    between atoms: C29_29  and  N6_61 
REMARK   17  A    between atoms: C29_29  and  O5_74 
REMARK   18  A    between atoms: C30_30  and  C31_31 
REMARK   19  A    between atoms: C30_30  and  N6_61 
REMARK   20  A    between atoms: C31_31  and  C32_32 
REMARK   21  A    between atoms: C32_32  and  N7_62 
REMARK   22  A    between atoms: C33_33  and  C34_34 
REMARK   23  A    between atoms: C33_33  and  N7_62 
REMARK   24  A    between atoms: C36_36  and  C40_40 
REMARK   25  A    between atoms: C41_41  and  N10_67 
REMARK   26  A    between atoms: C44_44  and  C45_45 
REMARK   27  A    between atoms: C44_44  and  N10_67 
REMARK   28  A    between atoms: C45_45  and  C46_46 
REMARK   29  A    between atoms: C48_48  and  O8_77 
REMARK   30  A    between atoms: C49_49  and  O7_76 
REMARK   31  A    between atoms: N1_54  and  S1_68 
REMARK   32  A    between atoms: N7_62  and  S2_69 
ROOT
HETATM    1  C1  UNL     1       1.779   0.907  -0.499  1.00  0.00     0.046 C 
HETATM    2  C2  UNL     1       0.273   1.191  -0.624  1.00  0.00     0.069 C 
HETATM    3  C3  UNL     1      -0.522   0.349   0.382  1.00  0.00     0.046 C 
ENDROOT
BRANCH   2   4
HETATM    4  C4  UNL     1      -0.143   0.848  -2.089  1.00  0.00     0.077 C 
BRANCH   4   5
HETATM    5  C5  UNL     1      -1.604   1.089  -2.442  1.00  0.00    -0.043 A 
HETATM    6  C6  UNL     1      -2.582   0.069  -2.451  1.00  0.00    -0.002 A 
HETATM    7  C7  UNL     1      -3.925   0.423  -2.707  1.00  0.00     0.022 A 
HETATM    8  C8  UNL     1      -4.313   1.747  -2.958  1.00  0.00    -0.043 A 
HETATM    9  C9  UNL     1      -3.326   2.732  -3.000  1.00  0.00     0.009 A 
HETATM   10  C10 UNL     1      -1.994   2.409  -2.741  1.00  0.00     0.009 A 
BRANCH   6  11
HETATM   11  C16 UNL     1      -2.288  -1.347  -2.189  1.00  0.00     0.046 A 
HETATM   12  C19 UNL     1      -1.573  -2.129  -3.069  1.00  0.00     0.047 A 
HETATM   13  C18 UNL     1      -1.401  -3.437  -2.695  1.00  0.00     0.093 A 
HETATM   14  N4  UNL     1      -1.895  -3.952  -1.555  1.00  0.00    -0.343 N 
HETATM   15  C17 UNL     1      -2.579  -3.123  -0.758  1.00  0.00     0.157 A 
ATOM     16  H4  UNL     1      -1.754  -4.932  -1.309  1.00  0.00     0.167 HD
HETATM   17  N3  UNL     1      -2.811  -1.837  -1.045  1.00  0.00    -0.332 N 
ATOM     18  H3  UNL     1      -3.363  -1.248  -0.422  1.00  0.00     0.168 HD
BRANCH  15  19
HETATM   19  N5  UNL     1      -3.068  -3.678   0.409  1.00  0.00    -0.264 NA
HETATM   20  H64 UNL     1      -3.020  -4.687   0.306  1.00  0.00     0.130 HD
BRANCH  19  21
HETATM   21  C20 UNL     1      -4.341  -3.166   0.899  1.00  0.00     0.099 C 
BRANCH  21  22
HETATM   22  C21 UNL     1      -5.531  -3.521  -0.006  1.00  0.00     0.053 C 
BRANCH  22  23
HETATM   23  C22 UNL     1      -5.797  -5.006  -0.091  1.00  0.00    -0.054 A 
HETATM   24  C23 UNL     1      -6.526  -5.656   0.915  1.00  0.00     0.046 A 
HETATM   25  C24 UNL     1      -6.770  -7.037   0.871  1.00  0.00     0.101 A 
HETATM   26  C25 UNL     1      -6.265  -7.772  -0.206  1.00  0.00     0.099 A 
HETATM   27  C26 UNL     1      -5.534  -7.135  -1.215  1.00  0.00     0.040 A 
HETATM   28  C27 UNL     1      -5.302  -5.760  -1.158  1.00  0.00     0.010 A 
BRANCH  25  29
HETATM   29  O4  UNL     1      -7.498  -7.480   1.942  1.00  0.00    -0.353 OA
HETATM   30  C28 UNL     1      -7.827  -8.859   2.007  1.00  0.00     0.210 C 
ENDBRANCH  25  29
BRANCH  26  31
HETATM   31  O3  UNL     1      -6.462  -9.122  -0.308  1.00  0.00    -0.358 OA
HETATM   32  H67 UNL     1      -6.024  -9.446  -1.112  1.00  0.00     0.217 HD
ENDBRANCH  26  31
ENDBRANCH  22  23
ENDBRANCH  21  22
ENDBRANCH  19  21
ENDBRANCH  15  19
ENDBRANCH   6  11
BRANCH   8  33
HETATM   33  C11 UNL     1      -5.766   2.078  -3.205  1.00  0.00     0.145 C 
BRANCH  33  34
HETATM   34  N1  UNL     1      -6.209   3.329  -2.520  1.00  0.00    -0.207 NA
BRANCH  34  35
HETATM   35  C12 UNL     1      -7.081   4.169  -3.403  1.00  0.00     0.109 C 
BRANCH  35  36
HETATM   36  C13 UNL     1      -6.208   5.079  -4.267  1.00  0.00     0.045 C 
BRANCH  36  37
HETATM   37  C14 UNL     1      -7.018   5.967  -5.213  1.00  0.00     0.268 C 
BRANCH  37  38
HETATM   38  N2  UNL     1      -7.781   7.003  -4.531  1.00  0.00     0.078 N 
HETATM   39  H62 UNL     1      -7.168   7.553  -3.928  1.00  0.00     0.312 HD
HETATM   40  H63 UNL     1      -8.486   6.598  -3.916  1.00  0.00     0.312 HD
ENDBRANCH  37  38
ENDBRANCH  36  37
ENDBRANCH  35  36
ENDBRANCH  34  35
BRANCH  34  41
HETATM   41  S1  UNL     1      -6.848   3.125  -0.951  1.00  0.00     0.208 S 
HETATM   42  C15 UNL     1      -5.483   2.471  -0.010  1.00  0.00     0.180 C 
HETATM   43  O1  UNL     1      -7.887   2.120  -1.034  1.00  0.00    -0.212 OA
HETATM   44  O2  UNL     1      -7.136   4.446  -0.432  1.00  0.00    -0.212 OA
ENDBRANCH  34  41
ENDBRANCH  33  34
ENDBRANCH   8  33
ENDBRANCH   4   5
ENDBRANCH   2   4
BRANCH   2  45
HETATM   45  O5  UNL     1       0.040   2.618  -0.449  1.00  0.00    -0.293 OA
BRANCH  45  46
HETATM   46  C29 UNL     1       0.240   3.227   0.741  1.00  0.00     0.361 C 
HETATM   47  N6  UNL     1      -0.058   4.548   0.603  1.00  0.00    -0.337 N 
HETATM   48  H65 UNL     1      -0.372   4.828  -0.316  1.00  0.00     0.164 HD
HETATM   49  O6  UNL     1       0.634   2.701   1.768  1.00  0.00    -0.238 OA
BRANCH  47  50
HETATM   50  C30 UNL     1      -0.013   5.523   1.673  1.00  0.00     0.126 C 
BRANCH  50  51
HETATM   51  C31 UNL     1       1.381   6.114   1.878  1.00  0.00     0.040 C 
BRANCH  51  52
HETATM   52  C32 UNL     1       2.191   5.334   2.911  1.00  0.00     0.137 C 
BRANCH  52  53
HETATM   53  N7  UNL     1       3.585   5.817   2.934  1.00  0.00    -0.307 N 
BRANCH  53  54
HETATM   54  C33 UNL     1       4.527   5.179   1.995  1.00  0.00     0.173 C 
BRANCH  54  55
HETATM   55  C34 UNL     1       5.168   3.898   2.473  1.00  0.00    -0.039 A 
HETATM   56  C35 UNL     1       4.469   2.679   2.420  1.00  0.00     0.022 A 
HETATM   57  C36 UNL     1       5.039   1.471   2.862  1.00  0.00    -0.009 A 
HETATM   58  C37 UNL     1       6.359   1.515   3.342  1.00  0.00     0.014 A 
HETATM   59  C38 UNL     1       7.072   2.715   3.395  1.00  0.00     0.002 A 
HETATM   60  C39 UNL     1       6.479   3.901   2.965  1.00  0.00     0.009 A 
BRANCH  57  61
HETATM   61  C40 UNL     1       4.291   0.200   2.811  1.00  0.00     0.046 A 
HETATM   62  C43 UNL     1       2.946   0.114   3.109  1.00  0.00     0.047 A 
HETATM   63  C42 UNL     1       2.384  -1.132   2.992  1.00  0.00     0.093 A 
HETATM   64  N9  UNL     1       3.071  -2.222   2.612  1.00  0.00    -0.343 N 
HETATM   65  C41 UNL     1       4.368  -2.054   2.339  1.00  0.00     0.157 A 
ATOM     66  H9  UNL     1       2.623  -3.135   2.535  1.00  0.00     0.167 HD
HETATM   67  N8  UNL     1       5.009  -0.884   2.442  1.00  0.00    -0.332 N 
ATOM     68  H8  UNL     1       6.008  -0.812   2.248  1.00  0.00     0.168 HD
BRANCH  65  69
HETATM   69  N10 UNL     1       5.038  -3.191   1.920  1.00  0.00    -0.264 NA
HETATM   70  H66 UNL     1       4.468  -3.980   2.203  1.00  0.00     0.130 HD
BRANCH  69  71
HETATM   71  C44 UNL     1       6.452  -3.277   2.250  1.00  0.00     0.099 C 
BRANCH  71  72
HETATM   72  C45 UNL     1       7.348  -2.639   1.177  1.00  0.00     0.053 C 
BRANCH  72  73
HETATM   73  C46 UNL     1       7.403  -3.434  -0.111  1.00  0.00    -0.054 A 
HETATM   74  C47 UNL     1       8.442  -4.353  -0.342  1.00  0.00     0.046 A 
HETATM   75  C48 UNL     1       8.484  -5.089  -1.528  1.00  0.00     0.101 A 
HETATM   76  C49 UNL     1       7.474  -4.897  -2.477  1.00  0.00     0.099 A 
HETATM   77  C50 UNL     1       6.437  -3.998  -2.266  1.00  0.00     0.040 A 
HETATM   78  C51 UNL     1       6.402  -3.267  -1.081  1.00  0.00     0.010 A 
BRANCH  75  79
HETATM   79  O8  UNL     1       9.438  -6.011  -1.878  1.00  0.00    -0.353 OA
HETATM   80  C52 UNL     1      10.491  -6.222  -0.945  1.00  0.00     0.210 C 
ENDBRANCH  75  79
BRANCH  76  81
HETATM   81  O7  UNL     1       7.488  -5.605  -3.650  1.00  0.00    -0.358 OA
HETATM   82  H68 UNL     1       8.285  -6.166  -3.589  1.00  0.00     0.217 HD
ENDBRANCH  76  81
ENDBRANCH  72  73
ENDBRANCH  71  72
ENDBRANCH  69  71
ENDBRANCH  65  69
ENDBRANCH  57  61
ENDBRANCH  54  55
ENDBRANCH  53  54
BRANCH  53  83
HETATM   83  S2  UNL     1       4.161   6.601   4.298  1.00  0.00     0.225 S 
HETATM   84  C53 UNL     1       4.253   5.305   5.520  1.00  0.00     0.186 C 
HETATM   85  O9  UNL     1       5.504   7.068   4.027  1.00  0.00    -0.206 OA
HETATM   86  O10 UNL     1       3.128   7.521   4.729  1.00  0.00    -0.206 OA
ENDBRANCH  53  83
ENDBRANCH  52  53
ENDBRANCH  51  52
ENDBRANCH  50  51
ENDBRANCH  47  50
ENDBRANCH  45  46
ENDBRANCH   2  45
TORSDOF 32
