REMARK  32 active torsions:
REMARK  status: ('A' for Active; 'I' for Inactive)
REMARK    1  A    between atoms: C3_3  and  N9_53 
REMARK    2  A    between atoms: C4_4  and  S1_79 
REMARK    3  A    between atoms: C5_5  and  N1_43 
REMARK    4  A    between atoms: C7_7  and  C8_8 
REMARK       I    between atoms: C7_7  and  N1_43 
REMARK    5  A    between atoms: C8_8  and  C9_9 
REMARK    6  A    between atoms: C8_8  and  N5_48 
REMARK    7  A    between atoms: C9_9  and  C10_10 
REMARK    8  A    between atoms: C10_10  and  C11_11 
REMARK    9  A    between atoms: C11_11  and  N2_44 
REMARK       I    between atoms: C12_12  and  N2_44 
REMARK       I    between atoms: C12_12  and  N3_46 
REMARK       I    between atoms: C12_12  and  N4_47 
REMARK   10  A    between atoms: C13_13  and  C14_14 
REMARK   11  A    between atoms: C13_13  and  S1_79 
REMARK   12  A    between atoms: C14_14  and  N6_49 
REMARK       I    between atoms: C15_15  and  N6_49 
REMARK       I    between atoms: C15_15  and  N7_51 
REMARK       I    between atoms: C15_15  and  N8_52 
REMARK   13  A    between atoms: C16_16  and  C17_17 
REMARK       I    between atoms: C16_16  and  N9_53 
REMARK   14  A    between atoms: C19_19  and  C27_27 
REMARK   15  A    between atoms: C20_20  and  O4_76 
REMARK   16  A    between atoms: C22_22  and  O3_75 
REMARK   17  A    between atoms: C23_23  and  N10_54 
REMARK   18  A    between atoms: C23_23  and  O3_75 
REMARK       I    between atoms: C24_24  and  N10_54 
REMARK       I    between atoms: C24_24  and  N11_56 
REMARK       I    between atoms: C24_24  and  N12_57 
REMARK   19  A    between atoms: C25_25  and  N13_58 
REMARK   20  A    between atoms: C25_25  and  O4_76 
REMARK       I    between atoms: C26_26  and  N14_60 
REMARK       I    between atoms: C26_26  and  N15_61 
REMARK       I    between atoms: C27_27  and  N16_62 
REMARK   21  A    between atoms: C28_28  and  N16_62 
REMARK   22  A    between atoms: C29_29  and  S2_80 
REMARK   23  A    between atoms: C30_30  and  N17_63 
REMARK   24  A    between atoms: C34_34  and  C35_35 
REMARK       I    between atoms: C34_34  and  N17_63 
REMARK   25  A    between atoms: C35_35  and  C36_36 
REMARK   26  A    between atoms: C35_35  and  N21_68 
REMARK   27  A    between atoms: C36_36  and  C37_37 
REMARK   28  A    between atoms: C37_37  and  C38_38 
REMARK   29  A    between atoms: C38_38  and  N18_64 
REMARK       I    between atoms: C39_39  and  N19_66 
REMARK       I    between atoms: C39_39  and  N20_67 
REMARK   30  A    between atoms: C40_40  and  C41_41 
REMARK   31  A    between atoms: C40_40  and  S2_80 
REMARK   32  A    between atoms: C41_41  and  N22_69 
REMARK       I    between atoms: C42_42  and  N23_71 
REMARK       I    between atoms: C42_42  and  N24_72 
ROOT
HETATM    1  C17 UNL     1      -0.552   0.393  -0.241  1.00  0.00     0.066 A 
HETATM    2  C18 UNL     1       0.823   0.659  -0.387  1.00  0.00     0.040 A 
HETATM    3  C19 UNL     1       1.772  -0.082   0.324  1.00  0.00     0.066 A 
HETATM    4  C20 UNL     1       1.382  -1.112   1.180  1.00  0.00     0.089 A 
HETATM    5  C21 UNL     1       0.026  -1.423   1.276  1.00  0.00     0.075 A 
HETATM    6  C22 UNL     1      -0.946  -0.634   0.636  1.00  0.00     0.089 A 
ENDROOT
BRANCH   1   7
HETATM    7  C16 UNL     1      -1.486   1.253  -1.049  1.00  0.00     0.259 C 
HETATM    8  N9  UNL     1      -2.836   1.001  -0.929  1.00  0.00    -0.322 N 
HETATM    9  H46 UNL     1      -3.108   0.242  -0.308  1.00  0.00     0.169 HD
HETATM   10  O2  UNL     1      -0.986   2.097  -1.789  1.00  0.00    -0.267 OA
BRANCH   8  11
HETATM   11  C3  UNL     1      -3.923   1.664  -1.557  1.00  0.00     0.054 A 
HETATM   12  C2  UNL     1      -3.749   2.805  -2.342  1.00  0.00     0.031 A 
HETATM   13  C1  UNL     1      -4.848   3.446  -2.913  1.00  0.00     0.005 A 
HETATM   14  C6  UNL     1      -6.137   2.953  -2.715  1.00  0.00     0.031 A 
HETATM   15  C5  UNL     1      -6.354   1.807  -1.945  1.00  0.00     0.053 A 
HETATM   16  C4  UNL     1      -5.235   1.157  -1.362  1.00  0.00     0.054 A 
BRANCH  15  17
HETATM   17  N1  UNL     1      -7.649   1.253  -1.779  1.00  0.00    -0.324 N 
HETATM   18  C7  UNL     1      -8.865   1.815  -2.127  1.00  0.00     0.255 C 
HETATM   19  O1  UNL     1      -9.037   2.976  -2.491  1.00  0.00    -0.271 OA
HETATM   20  H35 UNL     1      -7.691   0.322  -1.349  1.00  0.00     0.169 HD
BRANCH  18  21
HETATM   21  C8  UNL     1     -10.054   0.823  -1.979  1.00  0.00     0.309 C 
BRANCH  21  22
HETATM   22  C9  UNL     1     -11.387   1.438  -2.441  1.00  0.00     0.047 C 
BRANCH  22  23
HETATM   23  C10 UNL     1     -11.476   1.542  -3.969  1.00  0.00     0.022 C 
BRANCH  23  24
HETATM   24  C11 UNL     1     -12.783   2.201  -4.407  1.00  0.00     0.121 C 
BRANCH  24  25
HETATM   25  N2  UNL     1     -12.855   2.143  -5.864  1.00  0.00    -0.372 N 
HETATM   26  C12 UNL     1     -13.785   2.791  -6.453  1.00  0.00     0.121 C 
HETATM   27  N3  UNL     1     -14.779   3.548  -5.939  1.00  0.00    -0.279 NA
HETATM   28  N4  UNL     1     -13.862   2.781  -7.801  1.00  0.00    -0.279 NA
HETATM   29  H36 UNL     1     -15.642   3.449  -6.460  1.00  0.00     0.126 HD
HETATM   30  H37 UNL     1     -14.935   3.411  -4.949  1.00  0.00     0.126 HD
HETATM   31  H38 UNL     1     -13.971   3.715  -8.178  1.00  0.00     0.126 HD
HETATM   32  H39 UNL     1     -13.024   2.349  -8.179  1.00  0.00     0.126 HD
ATOM     33  H2  UNL     1     -12.179   1.598  -6.399  1.00  0.00     0.161 HD
ENDBRANCH  24  25
ENDBRANCH  23  24
ENDBRANCH  22  23
ENDBRANCH  21  22
BRANCH  21  34
HETATM   34  N5  UNL     1     -10.161   0.394  -0.558  1.00  0.00     0.092 N 
HETATM   35  H40 UNL     1      -9.996   1.219   0.028  1.00  0.00     0.313 HD
HETATM   36  H41 UNL     1     -11.127   0.133  -0.359  1.00  0.00     0.313 HD
ENDBRANCH  21  34
ENDBRANCH  18  21
ENDBRANCH  15  17
BRANCH  16  37
HETATM   37  S1  UNL     1      -5.476  -0.285  -0.297  1.00  0.00    -0.124 SA
BRANCH  37  38
HETATM   38  C13 UNL     1      -5.249  -1.631  -1.525  1.00  0.00     0.099 C 
BRANCH  38  39
HETATM   39  C14 UNL     1      -6.390  -1.763  -2.539  1.00  0.00     0.132 C 
BRANCH  39  40
HETATM   40  N6  UNL     1      -7.685  -1.684  -1.867  1.00  0.00    -0.366 N 
HETATM   41  C15 UNL     1      -8.258  -2.732  -1.418  1.00  0.00     0.143 C 
HETATM   42  N7  UNL     1      -9.385  -2.587  -0.689  1.00  0.00    -0.274 NA
HETATM   43  N8  UNL     1      -7.888  -4.024  -1.504  1.00  0.00    -0.376 N 
HETATM   44  H42 UNL     1     -10.178  -3.105  -1.039  1.00  0.00     0.127 HD
HETATM   45  H43 UNL     1      -9.625  -1.591  -0.628  1.00  0.00     0.127 HD
HETATM   46  H44 UNL     1      -7.245  -4.286  -2.236  1.00  0.00     0.158 HD
HETATM   47  H45 UNL     1      -8.591  -4.717  -1.293  1.00  0.00     0.158 HD
ATOM     48  H6  UNL     1      -8.138  -0.777  -1.755  1.00  0.00     0.162 HD
ENDBRANCH  39  40
ENDBRANCH  38  39
ENDBRANCH  37  38
ENDBRANCH  16  37
ENDBRANCH   8  11
ENDBRANCH   1   7
BRANCH   6  49
HETATM   49  O3  UNL     1      -2.284  -0.859   0.848  1.00  0.00    -0.331 OA
BRANCH  49  50
HETATM   50  C23 UNL     1      -2.672  -1.128   2.221  1.00  0.00     0.300 C 
BRANCH  50  51
HETATM   51  N10 UNL     1      -1.788  -0.673   3.284  1.00  0.00    -0.350 N 
HETATM   52  C24 UNL     1      -1.988  -1.043   4.487  1.00  0.00     0.123 C 
HETATM   53  N11 UNL     1      -1.058  -0.761   5.426  1.00  0.00    -0.279 NA
HETATM   54  N12 UNL     1      -3.007  -1.747   5.025  1.00  0.00    -0.279 NA
HETATM   55  H47 UNL     1      -0.176  -0.521   4.957  1.00  0.00     0.126 HD
HETATM   56  H48 UNL     1      -0.873  -1.546   6.039  1.00  0.00     0.126 HD
HETATM   57  H49 UNL     1      -3.208  -1.449   5.974  1.00  0.00     0.126 HD
HETATM   58  H50 UNL     1      -3.856  -1.744   4.473  1.00  0.00     0.126 HD
ATOM     59  H10 UNL     1      -1.006  -0.056   3.065  1.00  0.00     0.163 HD
ENDBRANCH  50  51
ENDBRANCH  49  50
ENDBRANCH   6  49
BRANCH   3  60
HETATM   60  C27 UNL     1       3.195   0.275   0.181  1.00  0.00     0.259 C 
HETATM   61  N16 UNL     1       3.775  -0.229  -0.969  1.00  0.00    -0.322 N 
HETATM   62  H55 UNL     1       3.133  -0.418  -1.729  1.00  0.00     0.169 HD
HETATM   63  O5  UNL     1       3.701   1.023   1.008  1.00  0.00    -0.267 OA
BRANCH  61  64
HETATM   64  C28 UNL     1       5.132  -0.041  -1.320  1.00  0.00     0.054 A 
HETATM   65  C29 UNL     1       6.228  -0.239  -0.448  1.00  0.00     0.054 A 
HETATM   66  C30 UNL     1       7.546   0.021  -0.914  1.00  0.00     0.053 A 
HETATM   67  C31 UNL     1       7.746   0.445  -2.229  1.00  0.00     0.031 A 
HETATM   68  C32 UNL     1       6.666   0.575  -3.099  1.00  0.00     0.005 A 
HETATM   69  C33 UNL     1       5.371   0.320  -2.653  1.00  0.00     0.031 A 
BRANCH  65  70
HETATM   70  S2  UNL     1       6.047  -0.993   1.200  1.00  0.00    -0.124 SA
BRANCH  70  71
HETATM   71  C40 UNL     1       5.757  -2.732   0.701  1.00  0.00     0.099 C 
BRANCH  71  72
HETATM   72  C41 UNL     1       6.966  -3.633   0.977  1.00  0.00     0.132 C 
BRANCH  72  73
HETATM   73  N22 UNL     1       8.094  -3.228   0.142  1.00  0.00    -0.371 N 
HETATM   74  C42 UNL     1       9.020  -4.064  -0.128  1.00  0.00     0.121 C 
HETATM   75  N23 UNL     1       9.190  -5.336   0.291  1.00  0.00    -0.279 NA
HETATM   76  N24 UNL     1      10.039  -3.697  -0.931  1.00  0.00    -0.279 NA
HETATM   77  H63 UNL     1       8.649  -5.578   1.112  1.00  0.00     0.126 HD
HETATM   78  H64 UNL     1      10.169  -5.558   0.436  1.00  0.00     0.126 HD
HETATM   79  H65 UNL     1      10.262  -4.395  -1.631  1.00  0.00     0.126 HD
HETATM   80  H66 UNL     1       9.841  -2.806  -1.384  1.00  0.00     0.126 HD
ATOM     81  H22 UNL     1       8.142  -2.278  -0.225  1.00  0.00     0.161 HD
ENDBRANCH  72  73
ENDBRANCH  71  72
ENDBRANCH  70  71
ENDBRANCH  65  70
BRANCH  66  82
HETATM   82  N17 UNL     1       8.614  -0.183  -0.013  1.00  0.00    -0.324 N 
HETATM   83  C34 UNL     1       9.972  -0.177  -0.244  1.00  0.00     0.255 C 
HETATM   84  O6  UNL     1      10.517   0.046  -1.323  1.00  0.00    -0.271 OA
HETATM   85  H56 UNL     1       8.317  -0.544   0.887  1.00  0.00     0.169 HD
BRANCH  83  86
HETATM   86  C35 UNL     1      10.814  -0.452   1.029  1.00  0.00     0.309 C 
BRANCH  86  87
HETATM   87  C36 UNL     1      11.261   0.858   1.696  1.00  0.00     0.047 C 
BRANCH  87  88
HETATM   88  C37 UNL     1      10.125   1.770   2.183  1.00  0.00     0.022 C 
BRANCH  88  89
HETATM   89  C38 UNL     1      10.646   3.039   2.861  1.00  0.00     0.121 C 
BRANCH  89  90
HETATM   90  N18 UNL     1      11.361   2.719   4.092  1.00  0.00    -0.372 N 
HETATM   91  C39 UNL     1      10.717   2.527   5.178  1.00  0.00     0.121 C 
HETATM   92  N19 UNL     1       9.390   2.556   5.431  1.00  0.00    -0.279 NA
HETATM   93  N20 UNL     1      11.390   2.215   6.306  1.00  0.00    -0.279 NA
HETATM   94  H57 UNL     1       8.831   2.992   4.710  1.00  0.00     0.126 HD
HETATM   95  H58 UNL     1       9.183   2.954   6.339  1.00  0.00     0.126 HD
HETATM   96  H59 UNL     1      10.987   1.412   6.774  1.00  0.00     0.126 HD
HETATM   97  H60 UNL     1      12.362   2.031   6.072  1.00  0.00     0.126 HD
ATOM     98  H18 UNL     1      12.379   2.648   4.085  1.00  0.00     0.161 HD
ENDBRANCH  89  90
ENDBRANCH  88  89
ENDBRANCH  87  88
ENDBRANCH  86  87
BRANCH  86  99
HETATM   99  N21 UNL     1      10.125  -1.355   1.977  1.00  0.00     0.092 N 
HETATM  100  H61 UNL     1       9.415  -0.866   2.514  1.00  0.00     0.313 HD
HETATM  101  H62 UNL     1       9.665  -2.104   1.449  1.00  0.00     0.313 HD
ENDBRANCH  86  99
ENDBRANCH  83  86
ENDBRANCH  66  82
ENDBRANCH  61  64
ENDBRANCH   3  60
BRANCH   4 102
HETATM  102  O4  UNL     1       2.343  -1.799   1.875  1.00  0.00    -0.331 OA
BRANCH 102 103
HETATM  103  C25 UNL     1       2.047  -1.968   3.279  1.00  0.00     0.300 C 
BRANCH 103 104
HETATM  104  N13 UNL     1       1.631  -0.798   4.060  1.00  0.00    -0.350 N 
HETATM  105  C26 UNL     1       2.460   0.178   4.135  1.00  0.00     0.123 C 
HETATM  106  N14 UNL     1       2.115   1.291   4.819  1.00  0.00    -0.279 NA
HETATM  107  N15 UNL     1       3.715   0.283   3.640  1.00  0.00    -0.279 NA
HETATM  108  H51 UNL     1       1.117   1.370   4.971  1.00  0.00     0.126 HD
HETATM  109  H52 UNL     1       2.524   2.150   4.479  1.00  0.00     0.126 HD
HETATM  110  H53 UNL     1       3.973  -0.461   2.997  1.00  0.00     0.126 HD
HETATM  111  H54 UNL     1       3.860   1.129   3.089  1.00  0.00     0.126 HD
ATOM    112  H13 UNL     1       0.723  -0.762   4.523  1.00  0.00     0.163 HD
ENDBRANCH 103 104
ENDBRANCH 102 103
ENDBRANCH   4 102
TORSDOF 32
