REMARK  0 active torsions:
REMARK  status: ('A' for Active; 'I' for Inactive)
REMARK       I    between atoms: C2_2  and  C3_3 
REMARK       I    between atoms: C3_3  and  C5_5 
REMARK       I    between atoms: C5_5  and  C6_6 
REMARK       I    between atoms: C5_5  and  N3_94 
REMARK       I    between atoms: C6_6  and  C7_7 
REMARK       I    between atoms: C6_6  and  O5_80 
REMARK       I    between atoms: C7_7  and  C8_8 
REMARK       I    between atoms: C8_8  and  N1_92 
REMARK       I    between atoms: C12_12  and  C13_13 
REMARK       I    between atoms: C13_13  and  C14_14 
REMARK       I    between atoms: C13_13  and  O4_79 
REMARK       I    between atoms: C14_14  and  C16_16 
REMARK       I    between atoms: C16_16  and  N2_93 
REMARK       I    between atoms: C17_17  and  C19_19 
REMARK       I    between atoms: C17_17  and  N2_93 
REMARK       I    between atoms: C19_19  and  C20_20 
REMARK       I    between atoms: C19_19  and  O3_78 
REMARK       I    between atoms: C29_29  and  C30_30 
REMARK       I    between atoms: C29_29  and  N3_94 
REMARK       I    between atoms: C30_30  and  N4_95 
REMARK       I    between atoms: C32_32  and  C33_33 
REMARK       I    between atoms: C32_32  and  N4_95 
REMARK       I    between atoms: C33_33  and  C34_34 
REMARK       I    between atoms: C33_33  and  N5_96 
REMARK       I    between atoms: C38_38  and  O9_84 
REMARK       I    between atoms: C38_38  and  N5_96 
REMARK       I    between atoms: C39_39  and  C40_40 
REMARK       I    between atoms: C39_39  and  O9_84 
REMARK       I    between atoms: C43_43  and  N6_97 
REMARK       I    between atoms: C46_46  and  C47_47 
REMARK       I    between atoms: C46_46  and  N6_97 
REMARK       I    between atoms: C47_47  and  N7_98 
REMARK       I    between atoms: C49_49  and  C50_50 
REMARK       I    between atoms: C49_49  and  N7_98 
REMARK       I    between atoms: C50_50  and  C51_51 
REMARK       I    between atoms: C50_50  and  N8_99 
REMARK       I    between atoms: C54_54  and  C55_55 
REMARK       I    between atoms: C54_54  and  N8_99 
REMARK       I    between atoms: C55_55  and  C56_56 
REMARK       I    between atoms: C56_56  and  C57_57 
REMARK       I    between atoms: C57_57  and  C58_58 
REMARK       I    between atoms: C58_58  and  C59_59 
REMARK       I    between atoms: C59_59  and  N9_100 
REMARK       I    between atoms: C62_62  and  S1_103 
REMARK       I    between atoms: C64_64  and  C65_65 
REMARK       I    between atoms: C64_64  and  S1_103 
REMARK       I    between atoms: C65_65  and  C66_66 
REMARK       I    between atoms: C66_66  and  N10_101 
REMARK       I    between atoms: C67_67  and  C68_68 
REMARK       I    between atoms: C67_67  and  C75_75 
REMARK       I    between atoms: C67_67  and  N10_101 
REMARK       I    between atoms: C68_68  and  C69_69 
REMARK       I    between atoms: C75_75  and  N11_102 
ROOT
HETATM    1  C1  UNL     1      -7.243  -0.471  -3.254  1.00  0.00     0.005 C 
HETATM    2  C2  UNL     1      -7.363  -1.116  -1.880  1.00  0.00     0.002 C 
HETATM    3  C3  UNL     1      -8.164  -0.270  -0.860  1.00  0.00     0.006 C 
HETATM    4  C4  UNL     1      -7.501   1.089  -0.634  1.00  0.00     0.012 C 
HETATM    5  C5  UNL     1      -8.458  -1.095   0.440  1.00  0.00     0.119 C 
HETATM    6  C6  UNL     1      -9.387  -0.431   1.516  1.00  0.00     0.152 C 
HETATM    7  C7  UNL     1     -10.672   0.138   0.900  1.00  0.00     0.137 C 
HETATM    8  C8  UNL     1     -11.605   0.746   1.938  1.00  0.00     0.222 C 
HETATM    9  C9  UNL     1     -10.363   2.918   1.743  1.00  0.00     0.126 C 
HETATM   10  C10 UNL     1     -10.340   4.162   2.604  1.00  0.00     0.022 C 
HETATM   11  C11 UNL     1     -11.769   4.227   3.112  1.00  0.00     0.029 C 
HETATM   12  C12 UNL     1     -12.094   2.764   3.444  1.00  0.00     0.117 C 
HETATM   13  C13 UNL     1     -13.606   2.411   3.658  1.00  0.00     0.156 C 
HETATM   14  C14 UNL     1     -14.535   3.498   4.257  1.00  0.00     0.105 C 
HETATM   15  C15 UNL     1     -14.072   4.049   5.607  1.00  0.00     0.022 C 
HETATM   16  C16 UNL     1     -14.891   4.598   3.266  1.00  0.00     0.224 C 
HETATM   17  C17 UNL     1     -16.187   5.132   1.210  1.00  0.00     0.113 C 
HETATM   18  C18 UNL     1     -17.565   4.710   0.703  1.00  0.00     0.035 C 
HETATM   19  C19 UNL     1     -15.151   5.338   0.060  1.00  0.00     0.173 C 
HETATM   20  C20 UNL     1     -14.920   4.106  -0.796  1.00  0.00    -0.028 A 
HETATM   21  C21 UNL     1     -15.600   3.956  -2.015  1.00  0.00     0.010 A 
HETATM   22  C22 UNL     1     -15.435   2.806  -2.789  1.00  0.00     0.001 A 
HETATM   23  C23 UNL     1     -14.588   1.788  -2.355  1.00  0.00     0.000 A 
HETATM   24  C24 UNL     1     -13.897   1.925  -1.154  1.00  0.00     0.001 A 
HETATM   25  C25 UNL     1     -14.057   3.079  -0.384  1.00  0.00     0.010 A 
HETATM   26  C26 UNL     1     -14.730   0.416   4.425  1.00  0.00     0.202 C 
HETATM   27  C27 UNL     1      -9.554  -1.152   3.790  1.00  0.00     0.202 C 
HETATM   28  C28 UNL     1      -7.174  -3.155   1.029  1.00  0.00     0.153 C 
HETATM   29  C29 UNL     1      -6.299  -0.902   1.717  1.00  0.00     0.242 C 
HETATM   30  C30 UNL     1      -4.947  -1.544   2.116  1.00  0.00     0.172 C 
HETATM   31  C31 UNL     1      -4.028  -0.532   2.799  1.00  0.00     0.042 C 
HETATM   32  C32 UNL     1      -3.326  -3.045   0.973  1.00  0.00     0.241 C 
HETATM   33  C33 UNL     1      -2.689  -3.375  -0.411  1.00  0.00     0.184 C 
HETATM   34  C34 UNL     1      -1.346  -4.150  -0.296  1.00  0.00     0.010 C 
HETATM   35  C35 UNL     1      -0.527  -4.145  -1.592  1.00  0.00     0.012 C 
HETATM   36  C36 UNL     1      -1.589  -5.617   0.098  1.00  0.00     0.012 C 
HETATM   37  C37 UNL     1      -3.274  -2.184  -2.545  1.00  0.00     0.156 C 
HETATM   38  C38 UNL     1      -1.792  -1.082  -0.947  1.00  0.00     0.363 C 
HETATM   39  C39 UNL     1      -0.254  -0.217   0.634  1.00  0.00     0.219 C 
HETATM   40  C40 UNL     1       1.114  -0.807   0.411  1.00  0.00    -0.034 A 
HETATM   41  C41 UNL     1       1.678  -1.673   1.354  1.00  0.00     0.011 A 
HETATM   42  C42 UNL     1       2.929  -2.252   1.123  1.00  0.00     0.030 A 
HETATM   43  C43 UNL     1       3.636  -1.986  -0.056  1.00  0.00     0.034 A 
HETATM   44  C44 UNL     1       3.069  -1.130  -1.000  1.00  0.00     0.030 A 
HETATM   45  C45 UNL     1       1.816  -0.549  -0.771  1.00  0.00     0.011 A 
HETATM   46  C46 UNL     1       5.750  -2.532  -1.292  1.00  0.00     0.244 C 
HETATM   47  C47 UNL     1       7.056  -3.330  -1.081  1.00  0.00     0.172 C 
HETATM   48  C48 UNL     1       7.943  -2.639  -0.051  1.00  0.00     0.042 C 
HETATM   49  C49 UNL     1       8.697  -4.390  -2.633  1.00  0.00     0.241 C 
HETATM   50  C50 UNL     1       9.260  -4.306  -4.076  1.00  0.00     0.180 C 
HETATM   51  C51 UNL     1      10.652  -4.952  -4.270  1.00  0.00     0.009 C 
HETATM   52  C52 UNL     1      10.574  -6.482  -4.274  1.00  0.00     0.012 C 
HETATM   53  C53 UNL     1      11.698  -4.478  -3.258  1.00  0.00     0.012 C 
HETATM   54  C54 UNL     1       9.182  -2.521  -5.819  1.00  0.00     0.218 C 
HETATM   55  C55 UNL     1       9.149  -1.019  -6.011  1.00  0.00     0.103 C 
HETATM   56  C56 UNL     1      10.145  -0.491  -7.042  1.00  0.00     0.009 C 
HETATM   57  C57 UNL     1      11.614  -0.911  -6.887  1.00  0.00     0.002 C 
HETATM   58  C58 UNL     1      12.192  -0.953  -5.474  1.00  0.00     0.020 C 
HETATM   59  C59 UNL     1      12.070   0.345  -4.676  1.00  0.00     0.135 C 
HETATM   60  C60 UNL     1      13.563   0.343  -2.689  1.00  0.00     0.228 A 
HETATM   61  C61 UNL     1      13.529  -0.109  -1.259  1.00  0.00     0.128 A 
HETATM   62  C62 UNL     1      12.113  -0.630  -1.054  1.00  0.00     0.148 A 
HETATM   63  C63 UNL     1      11.485  -0.531  -2.426  1.00  0.00     0.240 A 
HETATM   64  C64 UNL     1      11.359  -0.597   1.659  1.00  0.00     0.084 C 
HETATM   65  C65 UNL     1      12.794  -0.739   2.149  1.00  0.00     0.113 C 
HETATM   66  C66 UNL     1      13.379   0.564   2.648  1.00  0.00     0.219 C 
HETATM   67  C67 UNL     1      15.508   1.792   2.990  1.00  0.00     0.180 C 
HETATM   68  C68 UNL     1      15.438   2.936   1.965  1.00  0.00     0.073 C 
HETATM   69  C69 UNL     1      15.888   4.271   2.510  1.00  0.00    -0.056 A 
HETATM   70  C70 UNL     1      17.074   4.865   2.056  1.00  0.00     0.007 A 
HETATM   71  C71 UNL     1      17.497   6.087   2.581  1.00  0.00     0.001 A 
HETATM   72  C72 UNL     1      16.738   6.727   3.559  1.00  0.00     0.000 A 
HETATM   73  C73 UNL     1      15.552   6.151   4.008  1.00  0.00     0.001 A 
HETATM   74  C74 UNL     1      15.126   4.930   3.485  1.00  0.00     0.007 A 
HETATM   75  C75 UNL     1      16.954   1.302   3.192  1.00  0.00     0.238 C 
HETATM   76  O1  UNL     1     -12.543   0.068   2.354  1.00  0.00    -0.273 OA
HETATM   77  O2  UNL     1     -14.484   5.753   3.355  1.00  0.00    -0.273 OA
HETATM   78  O3  UNL     1     -13.890   5.797   0.560  1.00  0.00    -0.389 OA
HETATM   79  O4  UNL     1     -13.623   1.295   4.586  1.00  0.00    -0.388 OA
HETATM   80  O5  UNL     1      -9.756  -1.495   2.424  1.00  0.00    -0.388 OA
HETATM   81  O6  UNL     1      -6.532   0.278   1.994  1.00  0.00    -0.271 OA
HETATM   82  O7  UNL     1      -3.099  -3.675   2.002  1.00  0.00    -0.271 OA
HETATM   83  O8  UNL     1      -1.591  -0.143  -1.707  1.00  0.00    -0.238 OA
HETATM   84  O9  UNL     1      -1.232  -1.201   0.281  1.00  0.00    -0.299 OA
HETATM   85  O10 UNL     1       5.561  -1.900  -2.330  1.00  0.00    -0.271 OA
HETATM   86  O11 UNL     1       8.981  -5.272  -1.827  1.00  0.00    -0.271 OA
HETATM   87  O12 UNL     1       9.123  -3.313  -6.752  1.00  0.00    -0.274 OA
HETATM   88  O13 UNL     1      14.555   0.802  -3.234  1.00  0.00    -0.273 OA
HETATM   89  O14 UNL     1      10.395  -1.000  -2.734  1.00  0.00    -0.272 OA
HETATM   90  O15 UNL     1      12.711   1.464   3.143  1.00  0.00    -0.274 OA
HETATM   91  O16 UNL     1      17.365   0.239   2.726  1.00  0.00    -0.271 OA
HETATM   92  N1  UNL     1     -11.377   2.051   2.338  1.00  0.00    -0.345 N 
HETATM   93  N2  UNL     1     -15.733   4.201   2.249  1.00  0.00    -0.354 N 
HETATM   94  N3  UNL     1      -7.227  -1.694   1.039  1.00  0.00    -0.347 N 
HETATM   95  N4  UNL     1      -4.303  -2.072   0.915  1.00  0.00    -0.346 N 
HETATM   96  N5  UNL     1      -2.645  -2.140  -1.236  1.00  0.00    -0.319 N 
HETATM   97  N6  UNL     1       4.890  -2.613  -0.208  1.00  0.00    -0.325 N 
HETATM   98  N7  UNL     1       7.738  -3.441  -2.360  1.00  0.00    -0.346 N 
HETATM   99  N8  UNL     1       9.247  -2.901  -4.498  1.00  0.00    -0.347 N 
HETATM  100  N9  UNL     1      12.350   0.114  -3.266  1.00  0.00    -0.287 N 
HETATM  101  N10 UNL     1      14.745   0.630   2.529  1.00  0.00    -0.347 N 
HETATM  102  N11 UNL     1      17.778   2.099   3.928  1.00  0.00    -0.368 N 
HETATM  103  S1  UNL     1      11.160   0.386   0.126  1.00  0.00    -0.154 SA
HETATM  104  HA3 UNL     1     -14.040   6.150   1.461  1.00  0.00     0.210 HD
HETATM  105  HA4 UNL     1     -15.872   3.212   2.079  1.00  0.00     0.163 HD
HETATM  106  HA5 UNL     1      -4.316  -1.493   0.081  1.00  0.00     0.163 HD
HETATM  107  HA6 UNL     1       5.174  -3.212   0.557  1.00  0.00     0.169 HD
HETATM  108  HA7 UNL     1       7.466  -2.790  -3.095  1.00  0.00     0.163 HD
HETATM  109  HA8 UNL     1       9.512  -2.201  -3.800  1.00  0.00     0.163 HD
HETATM  110  HA9 UNL     1      15.290  -0.183   2.254  1.00  0.00     0.163 HD
HETATM  111  HB0 UNL     1      17.529   3.044   4.196  1.00  0.00     0.159 HD
HETATM  112  HB1 UNL     1      18.746   1.821   4.019  1.00  0.00     0.159 HD
ENDROOT
TORSDOF 43
