REMARK  18 active torsions:
REMARK  status: ('A' for Active; 'I' for Inactive)
REMARK    1  A    between atoms: C3_3  and  N3_45 
REMARK    2  A    between atoms: C6_6  and  C7_7 
REMARK    3  A    between atoms: C7_7  and  C8_8 
REMARK    4  A    between atoms: C8_8  and  N1_43 
REMARK    5  A    between atoms: C11_11  and  O1_48 
REMARK       I    between atoms: C14_14  and  N2_44 
REMARK    6  A    between atoms: C14_14  and  O1_48 
REMARK    7  A    between atoms: C15_15  and  N2_44 
REMARK    8  A    between atoms: C20_20  and  C21_21 
REMARK    9  A    between atoms: C27_27  and  C28_28 
REMARK       I    between atoms: C27_27  and  N3_45 
REMARK   10  A    between atoms: C28_28  and  C29_29 
REMARK   11  A    between atoms: C29_29  and  C30_30 
REMARK   12  A    between atoms: C30_30  and  C31_31 
REMARK   13  A    between atoms: C31_31  and  N4_46 
REMARK   14  A    between atoms: C32_32  and  C33_33 
REMARK   15  A    between atoms: C32_32  and  N4_46 
REMARK   16  A    between atoms: C33_33  and  C34_34 
REMARK   17  A    between atoms: C33_33  and  O6_53 
REMARK   18  A    between atoms: C40_40  and  O5_52 
ROOT
HETATM    1  C1  UNL     1      -0.007  -0.954   1.561  1.00  0.00     0.007 C 
HETATM    2  C2  UNL     1       1.480  -0.844   1.215  1.00  0.00     0.025 C 
HETATM    3  C3  UNL     1       1.689  -0.162  -0.136  1.00  0.00     0.084 C 
HETATM    4  C4  UNL     1       1.015  -0.944  -1.276  1.00  0.00     0.025 C 
HETATM    5  C5  UNL     1      -0.069  -1.909  -0.793  1.00  0.00     0.007 C 
HETATM    6  C6  UNL     1      -0.905  -1.358   0.372  1.00  0.00    -0.013 C 
ENDROOT
BRANCH   3   7
HETATM    7  N3  UNL     1       3.108   0.024  -0.401  1.00  0.00    -0.356 N 
HETATM    8  C27 UNL     1       3.560   0.975  -1.295  1.00  0.00     0.217 C 
HETATM    9  O3  UNL     1       2.824   1.781  -1.853  1.00  0.00    -0.274 OA
HETATM   10  H49 UNL     1       3.749  -0.709  -0.124  1.00  0.00     0.162 HD
BRANCH   8  11
HETATM   11  C28 UNL     1       5.062   0.907  -1.506  1.00  0.00     0.103 C 
BRANCH  11  12
HETATM   12  C29 UNL     1       5.562   1.985  -2.463  1.00  0.00     0.011 C 
BRANCH  12  13
HETATM   13  C30 UNL     1       7.016   1.811  -2.918  1.00  0.00     0.030 C 
BRANCH  13  14
HETATM   14  C31 UNL     1       8.074   1.977  -1.820  1.00  0.00     0.270 C 
BRANCH  14  15
HETATM   15  N4  UNL     1       8.122   0.911  -0.818  1.00  0.00     0.086 N 
HETATM   16  H50 UNL     1       8.724   1.215  -0.051  1.00  0.00     0.315 HD
BRANCH  15  17
HETATM   17  C32 UNL     1       8.623  -0.383  -1.321  1.00  0.00     0.306 C 
BRANCH  17  18
HETATM   18  C33 UNL     1      10.143  -0.522  -1.623  1.00  0.00     0.180 C 
BRANCH  18  19
HETATM   19  C34 UNL     1      11.041  -0.128  -0.458  1.00  0.00    -0.015 A 
HETATM   20  C35 UNL     1      11.355  -1.018   0.593  1.00  0.00     0.003 A 
HETATM   21  C36 UNL     1      10.866  -2.405   0.674  1.00  0.00     0.020 A 
HETATM   22  C39 UNL     1      12.184  -0.570   1.641  1.00  0.00     0.079 A 
HETATM   23  C37 UNL     1      11.208  -3.201   1.696  1.00  0.00     0.075 A 
HETATM   24  C38 UNL     1      12.087  -2.726   2.789  1.00  0.00     0.245 A 
HETATM   25  N5  UNL     1      12.519  -1.437   2.693  1.00  0.00    -0.321 N 
HETATM   26  O4  UNL     1      12.393  -3.469   3.714  1.00  0.00    -0.268 OA
HETATM   27  H51 UNL     1      13.118  -1.081   3.429  1.00  0.00     0.169 HD
HETATM   28  C40 UNL     1      12.687   0.732   1.662  1.00  0.00     0.093 A 
HETATM   29  C41 UNL     1      12.374   1.618   0.643  1.00  0.00     0.039 A 
HETATM   30  C42 UNL     1      11.556   1.189  -0.404  1.00  0.00     0.013 A 
BRANCH  28  31
HETATM   31  O5  UNL     1      13.487   1.113   2.706  1.00  0.00    -0.358 OA
HETATM   32  H52 UNL     1      13.745   2.042   2.581  1.00  0.00     0.217 HD
ENDBRANCH  28  31
ENDBRANCH  18  19
BRANCH  18  33
HETATM   33  O6  UNL     1      10.486   0.194  -2.814  1.00  0.00    -0.389 OA
HETATM   34  H53 UNL     1      11.448   0.106  -2.928  1.00  0.00     0.210 HD
ENDBRANCH  18  33
ENDBRANCH  17  18
ENDBRANCH  15  17
ENDBRANCH  14  15
ENDBRANCH  13  14
ENDBRANCH  12  13
ENDBRANCH  11  12
ENDBRANCH   8  11
ENDBRANCH   3   7
BRANCH   6  35
HETATM   35  C7  UNL     1      -1.818  -0.204  -0.109  1.00  0.00     0.034 C 
BRANCH  35  36
HETATM   36  C8  UNL     1      -2.902   0.235   0.894  1.00  0.00     0.272 C 
BRANCH  36  37
HETATM   37  N1  UNL     1      -3.777  -0.842   1.383  1.00  0.00     0.088 N 
HETATM   38  C9  UNL     1      -4.549  -1.517   0.336  1.00  0.00     0.275 C 
HETATM   39  C10 UNL     1      -5.664  -0.659  -0.264  1.00  0.00     0.063 C 
HETATM   40  C11 UNL     1      -6.405   0.164   0.797  1.00  0.00     0.137 C 
HETATM   41  C12 UNL     1      -6.137  -0.385   2.195  1.00  0.00     0.063 C 
HETATM   42  C13 UNL     1      -4.635  -0.379   2.491  1.00  0.00     0.275 C 
BRANCH  40  43
HETATM   43  O1  UNL     1      -7.813   0.108   0.497  1.00  0.00    -0.298 OA
BRANCH  43  44
HETATM   44  C14 UNL     1      -8.577   1.122   0.987  1.00  0.00     0.365 C 
HETATM   45  N2  UNL     1      -9.866   0.896   0.603  1.00  0.00    -0.302 N 
HETATM   46  H48 UNL     1      -9.976   0.053   0.054  1.00  0.00     0.171 HD
HETATM   47  O2  UNL     1      -8.137   2.048   1.650  1.00  0.00    -0.238 OA
BRANCH  45  48
HETATM   48  C15 UNL     1     -11.023   1.661   0.865  1.00  0.00     0.048 A 
HETATM   49  C16 UNL     1     -10.983   2.844   1.613  1.00  0.00     0.030 A 
HETATM   50  C17 UNL     1     -12.148   3.578   1.855  1.00  0.00     0.002 A 
HETATM   51  C18 UNL     1     -13.368   3.140   1.353  1.00  0.00     0.001 A 
HETATM   52  C19 UNL     1     -13.425   1.965   0.607  1.00  0.00     0.014 A 
HETATM   53  C20 UNL     1     -12.265   1.211   0.351  1.00  0.00     0.001 A 
BRANCH  53  54
HETATM   54  C21 UNL     1     -12.390  -0.021  -0.443  1.00  0.00    -0.024 A 
HETATM   55  C22 UNL     1     -12.254   0.011  -1.839  1.00  0.00     0.012 A 
HETATM   56  C23 UNL     1     -12.356  -1.160  -2.591  1.00  0.00     0.001 A 
HETATM   57  C24 UNL     1     -12.597  -2.377  -1.957  1.00  0.00     0.000 A 
HETATM   58  C25 UNL     1     -12.737  -2.425  -0.571  1.00  0.00     0.001 A 
HETATM   59  C26 UNL     1     -12.635  -1.253   0.182  1.00  0.00     0.012 A 
ENDBRANCH  53  54
ENDBRANCH  45  48
ENDBRANCH  43  44
ENDBRANCH  40  43
ENDBRANCH  36  37
ENDBRANCH  35  36
ENDBRANCH   6  35
TORSDOF 18
