REMARK  0 active torsions:
REMARK  status: ('A' for Active; 'I' for Inactive)
REMARK       I    between atoms: C2_2  and  C3_3 
REMARK       I    between atoms: C2_2  and  O11_65 
REMARK       I    between atoms: C3_3  and  C4_4 
REMARK       I    between atoms: C3_3  and  N2_67 
REMARK       I    between atoms: C4_4  and  N1_66 
REMARK       I    between atoms: C5_5  and  C6_6 
REMARK       I    between atoms: C5_5  and  N2_67 
REMARK       I    between atoms: C6_6  and  C7_7 
REMARK       I    between atoms: C6_6  and  N6_72 
REMARK       I    between atoms: C7_7  and  C8_8 
REMARK       I    between atoms: C8_8  and  C9_9 
REMARK       I    between atoms: C9_9  and  N3_68 
REMARK       I    between atoms: C10_10  and  N4_70 
REMARK       I    between atoms: C10_10  and  N5_71 
REMARK       I    between atoms: C11_11  and  C12_12 
REMARK       I    between atoms: C11_11  and  N6_72 
REMARK       I    between atoms: C12_12  and  C13_13 
REMARK       I    between atoms: C12_12  and  N8_74 
REMARK       I    between atoms: C13_13  and  C14_14 
REMARK       I    between atoms: C14_14  and  C15_15 
REMARK       I    between atoms: C15_15  and  C16_16 
REMARK       I    between atoms: C16_16  and  N7_73 
REMARK       I    between atoms: C17_17  and  C18_18 
REMARK       I    between atoms: C17_17  and  N8_74 
REMARK       I    between atoms: C18_18  and  C19_19 
REMARK       I    between atoms: C18_18  and  N10_76 
REMARK       I    between atoms: C19_19  and  C20_20 
REMARK       I    between atoms: C20_20  and  C21_21 
REMARK       I    between atoms: C21_21  and  C22_22 
REMARK       I    between atoms: C22_22  and  N9_75 
REMARK       I    between atoms: C23_23  and  C24_24 
REMARK       I    between atoms: C23_23  and  N10_76 
REMARK       I    between atoms: C24_24  and  C25_25 
REMARK       I    between atoms: C24_24  and  N14_81 
REMARK       I    between atoms: C25_25  and  C26_26 
REMARK       I    between atoms: C26_26  and  C27_27 
REMARK       I    between atoms: C27_27  and  N11_77 
REMARK       I    between atoms: C28_28  and  N12_79 
REMARK       I    between atoms: C28_28  and  N13_80 
REMARK       I    between atoms: C29_29  and  C30_30 
REMARK       I    between atoms: C29_29  and  N14_81 
REMARK       I    between atoms: C30_30  and  C31_31 
REMARK       I    between atoms: C30_30  and  N15_82 
REMARK       I    between atoms: C31_31  and  C32_32 
REMARK       I    between atoms: C38_38  and  C39_39 
REMARK       I    between atoms: C38_38  and  N15_82 
REMARK       I    between atoms: C39_39  and  C40_40 
REMARK       I    between atoms: C39_39  and  N19_87 
REMARK       I    between atoms: C40_40  and  C41_41 
REMARK       I    between atoms: C41_41  and  C42_42 
REMARK       I    between atoms: C42_42  and  N16_83 
REMARK       I    between atoms: C43_43  and  N17_85 
REMARK       I    between atoms: C43_43  and  N18_86 
REMARK       I    between atoms: C44_44  and  C45_45 
REMARK       I    between atoms: C44_44  and  N19_87 
REMARK       I    between atoms: C45_45  and  N20_88 
REMARK       I    between atoms: C47_47  and  C48_48 
REMARK       I    between atoms: C47_47  and  N20_88 
REMARK       I    between atoms: C48_48  and  C49_49 
REMARK       I    between atoms: C48_48  and  N24_93 
REMARK       I    between atoms: C49_49  and  C50_50 
REMARK       I    between atoms: C50_50  and  C51_51 
REMARK       I    between atoms: C51_51  and  N21_89 
REMARK       I    between atoms: C52_52  and  N22_91 
REMARK       I    between atoms: C52_52  and  N23_92 
REMARK       I    between atoms: C53_53  and  N24_93 
ROOT
HETATM    1  C1  UNL     1      -9.621  -3.659  -3.767  1.00  0.00     0.042 C 
HETATM    2  C2  UNL     1      -9.835  -2.162  -3.578  1.00  0.00     0.145 C 
HETATM    3  C3  UNL     1      -8.535  -1.335  -3.665  1.00  0.00     0.199 C 
HETATM    4  C4  UNL     1      -8.924   0.129  -3.916  1.00  0.00     0.220 C 
HETATM    5  C5  UNL     1      -6.755  -2.301  -2.221  1.00  0.00     0.241 C 
HETATM    6  C6  UNL     1      -6.016  -2.140  -0.872  1.00  0.00     0.176 C 
HETATM    7  C7  UNL     1      -6.819  -2.950   0.160  1.00  0.00     0.036 C 
HETATM    8  C8  UNL     1      -6.046  -3.339   1.427  1.00  0.00     0.022 C 
HETATM    9  C9  UNL     1      -5.937  -2.238   2.478  1.00  0.00     0.121 C 
HETATM   10  C10 UNL     1      -7.707  -0.671   2.808  1.00  0.00     0.121 C 
HETATM   11  C11 UNL     1      -4.972   0.065  -1.206  1.00  0.00     0.241 C 
HETATM   12  C12 UNL     1      -4.586   1.383  -0.502  1.00  0.00     0.176 C 
HETATM   13  C13 UNL     1      -4.190   2.499  -1.476  1.00  0.00     0.035 C 
HETATM   14  C14 UNL     1      -5.352   3.136  -2.245  1.00  0.00     0.004 C 
HETATM   15  C15 UNL     1      -5.681   2.425  -3.560  1.00  0.00     0.030 C 
HETATM   16  C16 UNL     1      -6.602   3.283  -4.430  1.00  0.00     0.267 C 
HETATM   17  C17 UNL     1      -3.477   0.709   1.634  1.00  0.00     0.241 C 
HETATM   18  C18 UNL     1      -2.165   0.143   2.229  1.00  0.00     0.176 C 
HETATM   19  C19 UNL     1      -1.497   1.188   3.137  1.00  0.00     0.035 C 
HETATM   20  C20 UNL     1      -0.910   2.421   2.439  1.00  0.00     0.004 C 
HETATM   21  C21 UNL     1      -1.891   3.592   2.313  1.00  0.00     0.030 C 
HETATM   22  C22 UNL     1      -1.270   4.803   1.612  1.00  0.00     0.267 C 
HETATM   23  C23 UNL     1      -1.621  -1.533   0.512  1.00  0.00     0.241 C 
HETATM   24  C24 UNL     1      -0.601  -2.053  -0.533  1.00  0.00     0.176 C 
HETATM   25  C25 UNL     1      -1.304  -2.166  -1.899  1.00  0.00     0.036 C 
HETATM   26  C26 UNL     1      -1.972  -3.527  -2.118  1.00  0.00     0.022 C 
HETATM   27  C27 UNL     1      -2.937  -3.522  -3.305  1.00  0.00     0.121 C 
HETATM   28  C28 UNL     1      -2.616  -2.032  -5.121  1.00  0.00     0.121 C 
HETATM   29  C29 UNL     1       1.754  -1.665  -1.182  1.00  0.00     0.241 C 
HETATM   30  C30 UNL     1       2.747  -0.569  -1.634  1.00  0.00     0.180 C 
HETATM   31  C31 UNL     1       3.936  -1.204  -2.372  1.00  0.00     0.073 C 
HETATM   32  C32 UNL     1       4.834  -0.180  -3.028  1.00  0.00    -0.056 A 
HETATM   33  C33 UNL     1       5.915   0.373  -2.328  1.00  0.00     0.007 A 
HETATM   34  C34 UNL     1       6.718   1.346  -2.922  1.00  0.00     0.001 A 
HETATM   35  C35 UNL     1       6.454   1.770  -4.223  1.00  0.00     0.000 A 
HETATM   36  C36 UNL     1       5.384   1.224  -4.929  1.00  0.00     0.001 A 
HETATM   37  C37 UNL     1       4.575   0.256  -4.334  1.00  0.00     0.007 A 
HETATM   38  C38 UNL     1       2.393   1.142   0.127  1.00  0.00     0.241 C 
HETATM   39  C39 UNL     1       2.819   1.579   1.547  1.00  0.00     0.176 C 
HETATM   40  C40 UNL     1       3.807   2.748   1.545  1.00  0.00     0.036 C 
HETATM   41  C41 UNL     1       5.074   2.524   0.709  1.00  0.00     0.022 C 
HETATM   42  C42 UNL     1       6.158   3.560   1.008  1.00  0.00     0.121 C 
HETATM   43  C43 UNL     1       6.398   5.895   0.882  1.00  0.00     0.121 C 
HETATM   44  C44 UNL     1       2.510  -0.624   2.614  1.00  0.00     0.240 C 
HETATM   45  C45 UNL     1       3.202  -1.982   2.891  1.00  0.00     0.172 C 
HETATM   46  C46 UNL     1       2.438  -2.746   3.967  1.00  0.00     0.042 C 
HETATM   47  C47 UNL     1       5.599  -1.748   2.280  1.00  0.00     0.241 C 
HETATM   48  C48 UNL     1       7.069  -1.989   2.723  1.00  0.00     0.176 C 
HETATM   49  C49 UNL     1       7.403  -1.498   4.141  1.00  0.00     0.036 C 
HETATM   50  C50 UNL     1       8.884  -1.572   4.533  1.00  0.00     0.022 C 
HETATM   51  C51 UNL     1       9.473  -2.977   4.423  1.00  0.00     0.121 C 
HETATM   52  C52 UNL     1      11.823  -2.657   4.330  1.00  0.00     0.121 C 
HETATM   53  C53 UNL     1       8.135  -0.124   1.475  1.00  0.00     0.214 C 
HETATM   54  C54 UNL     1       8.980   0.203   0.274  1.00  0.00     0.117 C 
HETATM   55  O1  UNL     1      -8.870   0.678  -5.012  1.00  0.00    -0.278 OA
HETATM   56  O2  UNL     1      -6.588  -3.267  -2.961  1.00  0.00    -0.271 OA
HETATM   57  O3  UNL     1      -4.424  -0.317  -2.240  1.00  0.00    -0.271 OA
HETATM   58  O4  UNL     1      -4.476   0.925   2.320  1.00  0.00    -0.271 OA
HETATM   59  O5  UNL     1      -2.711  -2.074   0.698  1.00  0.00    -0.271 OA
HETATM   60  O6  UNL     1       1.993  -2.867  -1.263  1.00  0.00    -0.271 OA
HETATM   61  O7  UNL     1       1.442   1.645  -0.469  1.00  0.00    -0.271 OA
HETATM   62  O8  UNL     1       1.284  -0.518   2.549  1.00  0.00    -0.271 OA
HETATM   63  O9  UNL     1       5.290  -1.477   1.116  1.00  0.00    -0.271 OA
HETATM   64  O10 UNL     1       7.680   0.743   2.211  1.00  0.00    -0.274 OA
HETATM   65  O11 UNL     1     -10.466  -1.947  -2.300  1.00  0.00    -0.393 OA
HETATM   66  N1  UNL     1      -9.451   0.792  -2.834  1.00  0.00    -0.271 NA
HETATM   67  N2  UNL     1      -7.766  -1.385  -2.417  1.00  0.00    -0.344 N 
HETATM   68  N3  UNL     1      -7.277  -1.865   2.913  1.00  0.00    -0.372 N 
ATOM     69  H3  UNL     1      -7.886  -2.579   3.312  1.00  0.00     0.161 HD
HETATM   70  N4  UNL     1      -8.976  -0.393   3.178  1.00  0.00    -0.279 NA
HETATM   71  N5  UNL     1      -7.113   0.450   2.342  1.00  0.00    -0.279 NA
HETATM   72  N6  UNL     1      -5.902  -0.713  -0.531  1.00  0.00    -0.346 N 
HETATM   73  N7  UNL     1      -6.830   2.642  -5.717  1.00  0.00     0.078 N 
HETATM   74  N8  UNL     1      -3.412   1.053   0.305  1.00  0.00    -0.346 N 
HETATM   75  N9  UNL     1      -0.183   5.382   2.393  1.00  0.00     0.078 N 
HETATM   76  N10 UNL     1      -1.264  -0.375   1.188  1.00  0.00    -0.346 N 
HETATM   77  N11 UNL     1      -2.247  -3.097  -4.518  1.00  0.00    -0.372 N 
ATOM     78  H11 UNL     1      -1.471  -3.649  -4.884  1.00  0.00     0.161 HD
HETATM   79  N12 UNL     1      -1.998  -1.688  -6.274  1.00  0.00    -0.279 NA
HETATM   80  N13 UNL     1      -3.574  -1.124  -4.837  1.00  0.00    -0.279 NA
HETATM   81  N14 UNL     1       0.563  -1.176  -0.669  1.00  0.00    -0.346 N 
HETATM   82  N15 UNL     1       3.172   0.148  -0.434  1.00  0.00    -0.346 N 
HETATM   83  N16 UNL     1       5.699   4.873   0.566  1.00  0.00    -0.372 N 
ATOM     84  H16 UNL     1       4.843   4.972   0.020  1.00  0.00     0.161 HD
HETATM   85  N17 UNL     1       7.549   5.979   1.583  1.00  0.00    -0.279 NA
HETATM   86  N18 UNL     1       5.995   7.127   0.504  1.00  0.00    -0.279 NA
HETATM   87  N19 UNL     1       3.351   0.413   2.259  1.00  0.00    -0.346 N 
HETATM   88  N20 UNL     1       4.624  -1.910   3.238  1.00  0.00    -0.346 N 
HETATM   89  N21 UNL     1      10.805  -3.008   5.016  1.00  0.00    -0.372 N 
ATOM     90  H21 UNL     1      10.924  -3.311   5.983  1.00  0.00     0.161 HD
HETATM   91  N22 UNL     1      13.050  -2.685   4.893  1.00  0.00    -0.279 NA
HETATM   92  N23 UNL     1      11.915  -2.215   3.057  1.00  0.00    -0.279 NA
HETATM   93  N24 UNL     1       7.957  -1.477   1.676  1.00  0.00    -0.348 N 
HETATM   94  H67 UNL     1      -9.876  -2.366  -1.644  1.00  0.00     0.210 HD
HETATM   95  H68 UNL     1      -9.988   0.212  -2.191  1.00  0.00     0.127 HD
HETATM   96  H69 UNL     1      -9.883   1.678  -3.068  1.00  0.00     0.127 HD
HETATM   97  H70 UNL     1      -7.697  -0.533  -1.869  1.00  0.00     0.163 HD
HETATM   98  H71 UNL     1      -9.461  -1.258   3.397  1.00  0.00     0.126 HD
HETATM   99  H72 UNL     1      -9.484   0.131   2.478  1.00  0.00     0.126 HD
HETATM  100  H73 UNL     1      -6.094   0.455   2.466  1.00  0.00     0.126 HD
HETATM  101  H74 UNL     1      -7.460   1.268   2.831  1.00  0.00     0.126 HD
HETATM  102  H75 UNL     1      -6.118  -0.443   0.425  1.00  0.00     0.163 HD
HETATM  103  H76 UNL     1      -7.388   1.788  -5.572  1.00  0.00     0.312 HD
HETATM  104  H77 UNL     1      -7.433   3.233  -6.288  1.00  0.00     0.312 HD
HETATM  105  H78 UNL     1      -2.590   0.718  -0.188  1.00  0.00     0.163 HD
HETATM  106  H79 UNL     1       0.194   6.189   1.898  1.00  0.00     0.312 HD
HETATM  107  H80 UNL     1      -0.545   5.730   3.280  1.00  0.00     0.312 HD
HETATM  108  H81 UNL     1      -0.264  -0.329   1.404  1.00  0.00     0.163 HD
HETATM  109  H82 UNL     1      -1.417  -2.463  -6.577  1.00  0.00     0.126 HD
HETATM  110  H83 UNL     1      -2.671  -1.451  -6.993  1.00  0.00     0.126 HD
HETATM  111  H84 UNL     1      -3.325  -0.184  -5.117  1.00  0.00     0.126 HD
HETATM  112  H85 UNL     1      -3.897  -1.105  -3.868  1.00  0.00     0.126 HD
HETATM  113  H86 UNL     1       0.397  -0.174  -0.768  1.00  0.00     0.163 HD
HETATM  114  H87 UNL     1       3.826  -0.342   0.171  1.00  0.00     0.163 HD
HETATM  115  H88 UNL     1       8.172   6.684   1.207  1.00  0.00     0.126 HD
HETATM  116  H89 UNL     1       8.029   5.095   1.695  1.00  0.00     0.126 HD
HETATM  117  H90 UNL     1       6.013   7.783   1.275  1.00  0.00     0.126 HD
HETATM  118  H91 UNL     1       5.058   7.067   0.116  1.00  0.00     0.126 HD
HETATM  119  H92 UNL     1       4.328   0.190   2.119  1.00  0.00     0.163 HD
HETATM  120  H93 UNL     1       4.866  -1.912   4.220  1.00  0.00     0.163 HD
HETATM  121  H94 UNL     1      13.562  -1.825   4.735  1.00  0.00     0.126 HD
HETATM  122  H95 UNL     1      12.962  -2.862   5.890  1.00  0.00     0.126 HD
HETATM  123  H96 UNL     1      12.745  -2.566   2.593  1.00  0.00     0.126 HD
HETATM  124  H97 UNL     1      11.090  -2.373   2.496  1.00  0.00     0.126 HD
HETATM  125  H98 UNL     1       8.016  -2.050   0.841  1.00  0.00     0.163 HD
ENDROOT
TORSDOF 48
