REMARK  20 active torsions:
REMARK  status: ('A' for Active; 'I' for Inactive)
REMARK    1  A    between atoms: C3_3  and  N11_44 
REMARK    2  A    between atoms: C4_4  and  N3_33 
REMARK    3  A    between atoms: C5_5  and  C6_6 
REMARK       I    between atoms: C5_5  and  N3_33 
REMARK    4  A    between atoms: C6_6  and  C7_7 
REMARK    5  A    between atoms: C7_7  and  C8_8 
REMARK    6  A    between atoms: C8_8  and  C9_9 
REMARK    7  A    between atoms: C9_9  and  C10_10 
REMARK    8  A    between atoms: C10_10  and  N4_34 
REMARK       I    between atoms: C11_11  and  N5_36 
REMARK       I    between atoms: C11_11  and  N6_37 
REMARK    9  A    between atoms: C12_12  and  C13_13 
REMARK       I    between atoms: C12_12  and  N6_37 
REMARK   10  A    between atoms: C14_14  and  N10_43 
REMARK   11  A    between atoms: C15_15  and  N9_42 
REMARK   12  A    between atoms: C17_17  and  C18_18 
REMARK       I    between atoms: C17_17  and  N11_44 
REMARK   13  A    between atoms: C18_18  and  C19_19 
REMARK   14  A    between atoms: C19_19  and  C20_20 
REMARK   15  A    between atoms: C20_20  and  C21_21 
REMARK   16  A    between atoms: C21_21  and  C22_22 
REMARK   17  A    between atoms: C22_22  and  N12_45 
REMARK       I    between atoms: C23_23  and  N13_47 
REMARK       I    between atoms: C23_23  and  N14_48 
REMARK   18  A    between atoms: C24_24  and  C25_25 
REMARK       I    between atoms: C24_24  and  N14_48 
REMARK   19  A    between atoms: C26_26  and  N18_54 
REMARK   20  A    between atoms: C27_27  and  N17_53 
ROOT
HETATM    1  C1  UNL     1       0.603  -2.717  -0.338  1.00  0.00     0.054 A 
HETATM    2  C2  UNL     1      -0.770  -2.975  -0.298  1.00  0.00     0.054 A 
HETATM    3  C3  UNL     1      -1.501  -2.920  -1.469  1.00  0.00     0.122 A 
HETATM    4  C4  UNL     1       1.198  -2.414  -1.548  1.00  0.00     0.122 A 
HETATM    5  N1  UNL     1      -0.894  -2.620  -2.635  1.00  0.00    -0.284 N 
ATOM      6  H1  UNL     1      -1.442  -2.580  -3.495  1.00  0.00     0.188 HD
HETATM    7  N2  UNL     1       0.459  -2.367  -2.675  1.00  0.00    -0.284 N 
ATOM      8  H2  UNL     1       0.906  -2.142  -3.564  1.00  0.00     0.188 HD
ENDROOT
BRANCH   3   9
HETATM    9  N11 UNL     1      -2.875  -3.157  -1.567  1.00  0.00    -0.312 N 
HETATM   10  C17 UNL     1      -3.754  -3.477  -0.558  1.00  0.00     0.223 C 
HETATM   11  O3  UNL     1      -3.476  -3.596   0.629  1.00  0.00    -0.273 OA
HETATM   12  H31 UNL     1      -3.220  -3.072  -2.514  1.00  0.00     0.170 HD
BRANCH  10  13
HETATM   13  C18 UNL     1      -5.171  -3.654  -1.085  1.00  0.00     0.103 C 
BRANCH  13  14
HETATM   14  C19 UNL     1      -6.141  -4.120   0.003  1.00  0.00     0.009 C 
BRANCH  14  15
HETATM   15  C20 UNL     1      -7.589  -4.206  -0.491  1.00  0.00     0.002 C 
BRANCH  15  16
HETATM   16  C21 UNL     1      -8.461  -3.014  -0.086  1.00  0.00     0.020 C 
BRANCH  16  17
HETATM   17  C22 UNL     1      -8.003  -1.679  -0.666  1.00  0.00     0.122 C 
BRANCH  17  18
HETATM   18  N12 UNL     1      -8.984  -0.648  -0.355  1.00  0.00    -0.367 N 
HETATM   19  C23 UNL     1      -8.894   0.068   0.698  1.00  0.00     0.153 C 
HETATM   20  N13 UNL     1      -7.948  -0.016   1.672  1.00  0.00    -0.274 NA
HETATM   21  N14 UNL     1      -9.823   1.054   0.920  1.00  0.00    -0.298 N 
HETATM   22  H32 UNL     1      -7.432  -0.887   1.685  1.00  0.00     0.127 HD
HETATM   23  H33 UNL     1      -8.255   0.237   2.603  1.00  0.00     0.127 HD
HETATM   24  C24 UNL     1     -10.902   1.428   0.122  1.00  0.00     0.277 C 
HETATM   25  H34 UNL     1      -9.598   1.716   1.652  1.00  0.00     0.171 HD
HETATM   26  O4  UNL     1     -11.435   0.766  -0.760  1.00  0.00    -0.265 OA
ATOM     27  H12 UNL     1      -9.763  -0.494  -0.995  1.00  0.00     0.162 HD
BRANCH  24  28
HETATM   28  C25 UNL     1     -11.464   2.762   0.503  1.00  0.00     0.141 A 
HETATM   29  C26 UNL     1     -12.517   3.354  -0.222  1.00  0.00     0.112 A 
HETATM   30  N15 UNL     1     -13.002   4.561   0.154  1.00  0.00    -0.334 N 
HETATM   31  C27 UNL     1     -12.464   5.155   1.240  1.00  0.00     0.118 A 
ATOM     32  H15 UNL     1     -13.754   5.009  -0.370  1.00  0.00     0.168 HD
HETATM   33  C28 UNL     1     -11.418   4.528   1.940  1.00  0.00     0.142 A 
HETATM   34  N16 UNL     1     -10.887   3.333   1.604  1.00  0.00    -0.337 N 
HETATM   35 CL2  UNL     1     -10.692   5.239   3.328  1.00  0.00    -0.061 Cl
ATOM     36  H16 UNL     1     -10.126   2.896   2.123  1.00  0.00     0.167 HD
BRANCH  29  37
HETATM   37  N18 UNL     1     -13.070   2.807  -1.391  1.00  0.00    -0.286 NA
HETATM   38  H37 UNL     1     -13.257   1.812  -1.237  1.00  0.00     0.125 HD
HETATM   39  H38 UNL     1     -12.366   2.804  -2.127  1.00  0.00     0.125 HD
ENDBRANCH  29  37
BRANCH  31  40
HETATM   40  N17 UNL     1     -12.993   6.403   1.613  1.00  0.00    -0.286 NA
HETATM   41  H35 UNL     1     -12.259   7.106   1.605  1.00  0.00     0.125 HD
HETATM   42  H36 UNL     1     -13.354   6.355   2.562  1.00  0.00     0.125 HD
ENDBRANCH  31  40
ENDBRANCH  24  28
ENDBRANCH  17  18
ENDBRANCH  16  17
ENDBRANCH  15  16
ENDBRANCH  14  15
ENDBRANCH  13  14
ENDBRANCH  10  13
ENDBRANCH   3   9
BRANCH   4  43
HETATM   43  N3  UNL     1       2.555  -2.137  -1.725  1.00  0.00    -0.312 N 
HETATM   44  C5  UNL     1       3.548  -2.106  -0.770  1.00  0.00     0.223 C 
HETATM   45  O1  UNL     1       3.398  -2.335   0.424  1.00  0.00    -0.273 OA
HETATM   46  H23 UNL     1       2.795  -1.947  -2.689  1.00  0.00     0.170 HD
BRANCH  44  47
HETATM   47  C6  UNL     1       4.899  -1.769  -1.383  1.00  0.00     0.103 C 
BRANCH  47  48
HETATM   48  C7  UNL     1       6.014  -1.549  -0.361  1.00  0.00     0.009 C 
BRANCH  48  49
HETATM   49  C8  UNL     1       5.868  -0.292   0.504  1.00  0.00     0.002 C 
BRANCH  49  50
HETATM   50  C9  UNL     1       5.747   1.039  -0.249  1.00  0.00     0.020 C 
BRANCH  50  51
HETATM   51  C10 UNL     1       6.871   1.331  -1.243  1.00  0.00     0.122 C 
BRANCH  51  52
HETATM   52  N4  UNL     1       8.171   1.243  -0.598  1.00  0.00    -0.367 N 
HETATM   53  C11 UNL     1       8.724   2.249  -0.042  1.00  0.00     0.153 C 
HETATM   54  N5  UNL     1       8.219   3.507   0.070  1.00  0.00    -0.274 NA
HETATM   55  N6  UNL     1       9.969   2.104   0.517  1.00  0.00    -0.298 N 
HETATM   56  H24 UNL     1       7.220   3.570  -0.079  1.00  0.00     0.127 HD
HETATM   57  H25 UNL     1       8.497   4.015   0.900  1.00  0.00     0.127 HD
HETATM   58  C12 UNL     1      10.775   0.968   0.565  1.00  0.00     0.277 C 
HETATM   59  H26 UNL     1      10.441   2.961   0.778  1.00  0.00     0.171 HD
HETATM   60  O2  UNL     1      10.429  -0.193   0.385  1.00  0.00    -0.265 OA
ATOM     61  H4  UNL     1       8.657   0.346  -0.590  1.00  0.00     0.162 HD
BRANCH  58  62
HETATM   62  C13 UNL     1      12.184   1.279   0.961  1.00  0.00     0.141 A 
HETATM   63  C14 UNL     1      13.176   0.280   1.010  1.00  0.00     0.112 A 
HETATM   64  N7  UNL     1      14.441   0.600   1.375  1.00  0.00    -0.334 N 
HETATM   65  C15 UNL     1      14.707   1.882   1.701  1.00  0.00     0.118 A 
ATOM     66  H7  UNL     1      15.173  -0.110   1.403  1.00  0.00     0.168 HD
HETATM   67  C16 UNL     1      13.687   2.848   1.645  1.00  0.00     0.142 A 
HETATM   68  N8  UNL     1      12.413   2.590   1.278  1.00  0.00    -0.337 N 
HETATM   69 CL1  UNL     1      13.967   4.497   2.046  1.00  0.00    -0.061 Cl
ATOM     70  H8  UNL     1      11.688   3.307   1.241  1.00  0.00     0.167 HD
BRANCH  63  71
HETATM   71  N10 UNL     1      12.966  -1.054   0.628  1.00  0.00    -0.286 NA
HETATM   72  H29 UNL     1      12.105  -1.394   1.065  1.00  0.00     0.125 HD
HETATM   73  H30 UNL     1      12.755  -1.091  -0.368  1.00  0.00     0.125 HD
ENDBRANCH  63  71
BRANCH  65  74
HETATM   74  N9  UNL     1      16.025   2.182   2.084  1.00  0.00    -0.286 NA
HETATM   75  H27 UNL     1      16.413   2.888   1.462  1.00  0.00     0.125 HD
HETATM   76  H28 UNL     1      16.032   2.572   3.023  1.00  0.00     0.125 HD
ENDBRANCH  65  74
ENDBRANCH  58  62
ENDBRANCH  51  52
ENDBRANCH  50  51
ENDBRANCH  49  50
ENDBRANCH  48  49
ENDBRANCH  47  48
ENDBRANCH  44  47
ENDBRANCH   4  43
TORSDOF 20
