REMARK  0 active torsions:
REMARK  status: ('A' for Active; 'I' for Inactive)
REMARK       I    between atoms: C2_2  and  C3_3 
REMARK       I    between atoms: C2_2  and  C7_7 
REMARK       I    between atoms: C3_3  and  C4_4 
REMARK       I    between atoms: C4_4  and  C5_5 
REMARK       I    between atoms: C5_5  and  N1_54 
REMARK       I    between atoms: C6_6  and  N2_56 
REMARK       I    between atoms: C6_6  and  N3_57 
REMARK       I    between atoms: C7_7  and  N4_58 
REMARK       I    between atoms: C11_11  and  C12_12 
REMARK       I    between atoms: C12_12  and  N5_59 
REMARK       I    between atoms: C13_13  and  C15_15 
REMARK       I    between atoms: C13_13  and  N5_59 
REMARK       I    between atoms: C15_15  and  N6_60 
REMARK       I    between atoms: C16_16  and  C17_17 
REMARK       I    between atoms: C16_16  and  C19_19 
REMARK       I    between atoms: C16_16  and  N6_60 
REMARK       I    between atoms: C17_17  and  O4_72 
REMARK       I    between atoms: C19_19  and  C20_20 
REMARK       I    between atoms: C20_20  and  C21_21 
REMARK       I    between atoms: C21_21  and  C22_22 
REMARK       I    between atoms: C21_21  and  C24_24 
REMARK       I    between atoms: C22_22  and  C23_23 
REMARK       I    between atoms: C23_23  and  O7_75 
REMARK       I    between atoms: C24_24  and  N7_61 
REMARK       I    between atoms: C25_25  and  C26_26 
REMARK       I    between atoms: C25_25  and  C30_30 
REMARK       I    between atoms: C25_25  and  N7_61 
REMARK       I    between atoms: C26_26  and  C27_27 
REMARK       I    between atoms: C27_27  and  C28_28 
REMARK       I    between atoms: C28_28  and  C29_29 
REMARK       I    between atoms: C29_29  and  N8_62 
REMARK       I    between atoms: C30_30  and  C31_31 
REMARK       I    between atoms: C31_31  and  C32_32 
REMARK       I    between atoms: C32_32  and  C33_33 
REMARK       I    between atoms: C32_32  and  C40_40 
REMARK       I    between atoms: C33_33  and  C34_34 
REMARK       I    between atoms: C37_37  and  O10_78 
REMARK       I    between atoms: C40_40  and  N9_63 
REMARK       I    between atoms: C41_41  and  C42_42 
REMARK       I    between atoms: C41_41  and  C46_46 
REMARK       I    between atoms: C41_41  and  N9_63 
REMARK       I    between atoms: C42_42  and  C43_43 
REMARK       I    between atoms: C43_43  and  C44_44 
REMARK       I    between atoms: C44_44  and  N10_64 
REMARK       I    between atoms: C45_45  and  N11_66 
REMARK       I    between atoms: C45_45  and  N12_67 
REMARK       I    between atoms: C46_46  and  C47_47 
REMARK       I    between atoms: C47_47  and  C48_48 
REMARK       I    between atoms: C48_48  and  C49_49 
REMARK       I    between atoms: C48_48  and  C53_53 
REMARK       I    between atoms: C49_49  and  C50_50 
REMARK       I    between atoms: C53_53  and  N13_68 
ROOT
HETATM    1  C1  UNL     1       6.996   2.591   0.859  1.00  0.00     0.020 C 
HETATM    2  C2  UNL     1       7.421   2.758  -0.602  1.00  0.00     0.074 C 
HETATM    3  C3  UNL     1       8.955   2.877  -0.673  1.00  0.00     0.015 C 
HETATM    4  C4  UNL     1       9.491   3.263  -2.057  1.00  0.00     0.020 C 
HETATM    5  C5  UNL     1      11.014   3.423  -2.064  1.00  0.00     0.121 C 
HETATM    6  C6  UNL     1      12.602   4.849  -1.075  1.00  0.00     0.121 C 
HETATM    7  C7  UNL     1       6.942   1.551  -1.414  1.00  0.00     0.224 C 
HETATM    8  C8  UNL     1       6.437   0.649  -3.656  1.00  0.00     0.127 C 
HETATM    9  C9  UNL     1       5.776   1.236  -4.894  1.00  0.00     0.022 C 
HETATM   10  C10 UNL     1       6.154   2.713  -4.835  1.00  0.00     0.037 C 
HETATM   11  C11 UNL     1       6.140   3.031  -3.340  1.00  0.00     0.179 C 
HETATM   12  C12 UNL     1       4.717   3.453  -2.893  1.00  0.00     0.241 C 
HETATM   13  C13 UNL     1       2.582   2.557  -1.920  1.00  0.00     0.172 C 
HETATM   14  C14 UNL     1       1.632   2.591  -3.110  1.00  0.00     0.042 C 
HETATM   15  C15 UNL     1       2.290   1.353  -0.999  1.00  0.00     0.240 C 
HETATM   16  C16 UNL     1       3.090   0.188   1.050  1.00  0.00     0.182 C 
HETATM   17  C17 UNL     1       4.097  -0.977   0.986  1.00  0.00     0.144 C 
HETATM   18  C18 UNL     1       4.038  -1.742  -0.332  1.00  0.00     0.042 C 
HETATM   19  C19 UNL     1       3.232   0.968   2.367  1.00  0.00     0.152 C 
HETATM   20  C20 UNL     1       2.795   0.276   3.650  1.00  0.00     0.095 C 
HETATM   21  C21 UNL     1       1.638   0.991   4.366  1.00  0.00     0.095 C 
HETATM   22  C22 UNL     1       1.990   2.419   4.804  1.00  0.00     0.124 C 
HETATM   23  C23 UNL     1       1.155   2.903   5.961  1.00  0.00     0.140 C 
HETATM   24  C24 UNL     1       0.431   0.984   3.438  1.00  0.00     0.223 C 
HETATM   25  C25 UNL     1      -1.461  -0.383   2.622  1.00  0.00     0.154 C 
HETATM   26  C26 UNL     1      -1.102  -0.926   1.233  1.00  0.00     0.033 C 
HETATM   27  C27 UNL     1      -0.288  -2.227   1.268  1.00  0.00     0.004 C 
HETATM   28  C28 UNL     1      -0.071  -2.837  -0.124  1.00  0.00     0.030 C 
HETATM   29  C29 UNL     1      -1.346  -3.352  -0.794  1.00  0.00     0.267 C 
HETATM   30  C30 UNL     1      -2.457  -1.295   3.357  1.00  0.00     0.150 C 
HETATM   31  C31 UNL     1      -3.876  -1.338   2.821  1.00  0.00     0.095 C 
HETATM   32  C32 UNL     1      -4.304  -2.765   2.449  1.00  0.00     0.089 C 
HETATM   33  C33 UNL     1      -4.975  -3.579   3.566  1.00  0.00     0.053 C 
HETATM   34  C34 UNL     1      -6.195  -2.977   4.218  1.00  0.00    -0.057 A 
HETATM   35  C35 UNL     1      -7.472  -3.201   3.689  1.00  0.00     0.010 A 
HETATM   36  C36 UNL     1      -8.599  -2.646   4.298  1.00  0.00     0.037 A 
HETATM   37  C37 UNL     1      -8.455  -1.874   5.443  1.00  0.00     0.065 A 
HETATM   38  C38 UNL     1      -7.198  -1.650   5.995  1.00  0.00     0.037 A 
HETATM   39  C39 UNL     1      -6.071  -2.205   5.383  1.00  0.00     0.010 A 
HETATM   40  C40 UNL     1      -5.093  -2.797   1.143  1.00  0.00     0.223 C 
HETATM   41  C41 UNL     1      -6.599  -1.560  -0.332  1.00  0.00     0.154 C 
HETATM   42  C42 UNL     1      -7.961  -0.863  -0.319  1.00  0.00     0.034 C 
HETATM   43  C43 UNL     1      -9.050  -1.570   0.491  1.00  0.00     0.022 C 
HETATM   44  C44 UNL     1      -9.246  -3.043   0.136  1.00  0.00     0.121 C 
HETATM   45  C45 UNL     1     -10.482  -4.816   1.082  1.00  0.00     0.121 C 
HETATM   46  C46 UNL     1      -5.557  -0.621  -0.967  1.00  0.00     0.150 C 
HETATM   47  C47 UNL     1      -5.222  -0.873  -2.429  1.00  0.00     0.094 C 
HETATM   48  C48 UNL     1      -4.077   0.019  -2.951  1.00  0.00     0.085 C 
HETATM   49  C49 UNL     1      -3.425  -0.624  -4.195  1.00  0.00     0.018 C 
HETATM   50  C50 UNL     1      -1.995  -0.149  -4.546  1.00  0.00    -0.022 C 
HETATM   51  C51 UNL     1      -1.886   1.350  -4.809  1.00  0.00     0.009 C 
HETATM   52  C52 UNL     1      -0.971  -0.578  -3.492  1.00  0.00     0.009 C 
HETATM   53  C53 UNL     1      -4.682   1.381  -3.284  1.00  0.00     0.220 C 
HETATM   54  N1  UNL     1      11.366   4.611  -1.293  1.00  0.00    -0.372 N 
ATOM     55  H1  UNL     1      10.643   5.236  -0.937  1.00  0.00     0.161 HD
HETATM   56  N2  UNL     1      13.702   4.168  -1.465  1.00  0.00    -0.279 NA
HETATM   57  N3  UNL     1      12.961   5.925  -0.343  1.00  0.00    -0.279 NA
HETATM   58  N4  UNL     1       6.540   1.757  -2.716  1.00  0.00    -0.338 N 
HETATM   59  N5  UNL     1       3.972   2.436  -2.348  1.00  0.00    -0.346 N 
HETATM   60  N6  UNL     1       3.265   1.149  -0.040  1.00  0.00    -0.345 N 
HETATM   61  N7  UNL     1      -0.281  -0.192   3.458  1.00  0.00    -0.349 N 
HETATM   62  N8  UNL     1      -1.992  -4.361   0.033  1.00  0.00     0.078 N 
HETATM   63  N9  UNL     1      -6.098  -1.865   1.004  1.00  0.00    -0.349 N 
HETATM   64  N10 UNL     1     -10.343  -3.553   0.952  1.00  0.00    -0.372 N 
ATOM     65  H10 UNL     1     -10.989  -2.911   1.411  1.00  0.00     0.161 HD
HETATM   66  N11 UNL     1      -9.765  -5.830   0.550  1.00  0.00    -0.279 NA
HETATM   67  N12 UNL     1     -11.467  -5.307   1.863  1.00  0.00    -0.279 NA
HETATM   68  N13 UNL     1      -4.746   2.251  -2.237  1.00  0.00    -0.370 N 
HETATM   69  O1  UNL     1       6.935   0.414  -0.935  1.00  0.00    -0.273 OA
HETATM   70  O2  UNL     1       4.270   4.577  -3.097  1.00  0.00    -0.271 OA
HETATM   71  O3  UNL     1       1.285   0.653  -1.083  1.00  0.00    -0.271 OA
HETATM   72  O4  UNL     1       5.430  -0.530   1.227  1.00  0.00    -0.393 OA
HETATM   73  O5  UNL     1       3.686   2.117   2.391  1.00  0.00    -0.296 OA
HETATM   74  O6  UNL     1       1.489   3.756   6.767  1.00  0.00    -0.650 OA
HETATM   75  O7  UNL     1      -0.067   2.348   6.042  1.00  0.00    -0.776 OA
HETATM   76  O8  UNL     1       0.173   1.902   2.668  1.00  0.00    -0.273 OA
HETATM   77  O9  UNL     1      -2.130  -1.943   4.355  1.00  0.00    -0.296 OA
HETATM   78  O10 UNL     1      -9.581  -1.353   6.006  1.00  0.00    -0.361 OA
HETATM   79  O11 UNL     1      -4.835  -3.602   0.248  1.00  0.00    -0.273 OA
HETATM   80  O12 UNL     1      -5.034   0.292  -0.317  1.00  0.00    -0.296 OA
HETATM   81  O13 UNL     1      -5.138   1.685  -4.379  1.00  0.00    -0.273 OA
HETATM   82  H69 UNL     1      13.536   3.509  -2.215  1.00  0.00     0.126 HD
HETATM   83  H70 UNL     1      14.470   4.788  -1.695  1.00  0.00     0.126 HD
HETATM   84  H71 UNL     1      12.134   6.341   0.075  1.00  0.00     0.126 HD
HETATM   85  H72 UNL     1      13.635   5.689   0.376  1.00  0.00     0.126 HD
HETATM   86  H73 UNL     1       4.428   1.539  -2.215  1.00  0.00     0.163 HD
HETATM   87  H74 UNL     1       3.865   1.941   0.180  1.00  0.00     0.163 HD
HETATM   88  H75 UNL     1      -0.178  -0.837   4.237  1.00  0.00     0.163 HD
HETATM   89  H76 UNL     1      -2.982  -4.438  -0.229  1.00  0.00     0.312 HD
HETATM   90  H77 UNL     1      -1.577  -5.274  -0.145  1.00  0.00     0.312 HD
HETATM   91  H78 UNL     1      -6.176  -1.130   1.698  1.00  0.00     0.163 HD
HETATM   92  H79 UNL     1     -10.349  -6.626   0.318  1.00  0.00     0.126 HD
HETATM   93  H80 UNL     1      -9.191  -5.565  -0.240  1.00  0.00     0.126 HD
HETATM   94  H81 UNL     1     -11.902  -4.547   2.379  1.00  0.00     0.126 HD
HETATM   95  H82 UNL     1     -11.130  -6.014   2.505  1.00  0.00     0.126 HD
HETATM   96  H83 UNL     1      -4.652   1.915  -1.280  1.00  0.00     0.159 HD
HETATM   97  H84 UNL     1      -5.232   3.125  -2.384  1.00  0.00     0.159 HD
HETATM   98  H85 UNL     1       5.849  -0.267   0.377  1.00  0.00     0.210 HD
HETATM   99  H86 UNL     1      -0.485   2.824   6.791  1.00  0.00     0.167 HD
HETATM  100  H87 UNL     1      -9.329  -0.859   6.803  1.00  0.00     0.217 HD
ENDROOT
TORSDOF 42
