REMARK  0 active torsions:
REMARK  status: ('A' for Active; 'I' for Inactive)
REMARK       I    between atoms: C4_4  and  C7_7 
REMARK       I    between atoms: C7_7  and  C8_8 
REMARK       I    between atoms: C8_8  and  C9_9 
REMARK       I    between atoms: C8_8  and  N4_64 
REMARK       I    between atoms: C9_9  and  N1_61 
REMARK       I    between atoms: C10_10  and  C11_11 
REMARK       I    between atoms: C10_10  and  C15_15 
REMARK       I    between atoms: C10_10  and  N1_61 
REMARK       I    between atoms: C11_11  and  C12_12 
REMARK       I    between atoms: C12_12  and  C13_13 
REMARK       I    between atoms: C13_13  and  C14_14 
REMARK       I    between atoms: C14_14  and  N2_62 
REMARK       I    between atoms: C15_15  and  N3_63 
REMARK       I    between atoms: C16_16  and  C17_17 
REMARK       I    between atoms: C16_16  and  N4_64 
REMARK       I    between atoms: C17_17  and  C18_18 
REMARK       I    between atoms: C17_17  and  N6_66 
REMARK       I    between atoms: C18_18  and  C19_19 
REMARK       I    between atoms: C19_19  and  C20_20 
REMARK       I    between atoms: C20_20  and  C21_21 
REMARK       I    between atoms: C21_21  and  N5_65 
REMARK       I    between atoms: C22_22  and  C23_23 
REMARK       I    between atoms: C22_22  and  N6_66 
REMARK       I    between atoms: C23_23  and  C24_24 
REMARK       I    between atoms: C24_24  and  C25_25 
REMARK       I    between atoms: C25_25  and  C26_26 
REMARK       I    between atoms: C27_27  and  C28_28 
REMARK       I    between atoms: C28_28  and  C29_29 
REMARK       I    between atoms: C29_29  and  C30_30 
REMARK       I    between atoms: C30_30  and  C31_31 
REMARK       I    between atoms: C31_31  and  N7_67 
REMARK       I    between atoms: C32_32  and  C33_33 
REMARK       I    between atoms: C32_32  and  C37_37 
REMARK       I    between atoms: C32_32  and  N7_67 
REMARK       I    between atoms: C33_33  and  C34_34 
REMARK       I    between atoms: C34_34  and  C35_35 
REMARK       I    between atoms: C35_35  and  C36_36 
REMARK       I    between atoms: C36_36  and  N8_68 
REMARK       I    between atoms: C37_37  and  N9_69 
REMARK       I    between atoms: C38_38  and  C39_39 
REMARK       I    between atoms: C38_38  and  C46_46 
REMARK       I    between atoms: C38_38  and  N9_69 
REMARK       I    between atoms: C39_39  and  C40_40 
REMARK       I    between atoms: C46_46  and  N10_70 
REMARK       I    between atoms: C47_47  and  C48_48 
REMARK       I    between atoms: C47_47  and  C52_52 
REMARK       I    between atoms: C47_47  and  N10_70 
REMARK       I    between atoms: C48_48  and  C49_49 
REMARK       I    between atoms: C49_49  and  C50_50 
REMARK       I    between atoms: C50_50  and  C51_51 
REMARK       I    between atoms: C51_51  and  N11_71 
REMARK       I    between atoms: C52_52  and  N12_72 
ROOT
HETATM    1  C1  UNL     1     -12.910  -3.142  -1.859  1.00  0.00     0.000 A 
HETATM    2  C2  UNL     1     -11.690  -2.776  -2.425  1.00  0.00     0.001 A 
HETATM    3  C3  UNL     1     -10.627  -2.394  -1.607  1.00  0.00     0.007 A 
HETATM    4  C4  UNL     1     -10.776  -2.373  -0.213  1.00  0.00    -0.056 A 
HETATM    5  C5  UNL     1     -12.001  -2.761   0.347  1.00  0.00     0.007 A 
HETATM    6  C6  UNL     1     -13.064  -3.136  -0.474  1.00  0.00     0.001 A 
HETATM    7  C7  UNL     1      -9.641  -1.904   0.666  1.00  0.00     0.073 C 
HETATM    8  C8  UNL     1      -9.383  -0.389   0.568  1.00  0.00     0.180 C 
HETATM    9  C9  UNL     1     -10.454   0.410   1.336  1.00  0.00     0.241 C 
HETATM   10  C10 UNL     1     -12.802   1.238   1.302  1.00  0.00     0.176 C 
HETATM   11  C11 UNL     1     -13.732   1.819   0.229  1.00  0.00     0.035 C 
HETATM   12  C12 UNL     1     -13.065   2.819  -0.726  1.00  0.00     0.004 C 
HETATM   13  C13 UNL     1     -12.405   4.036  -0.064  1.00  0.00     0.030 C 
HETATM   14  C14 UNL     1     -13.328   4.885   0.812  1.00  0.00     0.267 C 
HETATM   15  C15 UNL     1     -13.569   0.261   2.227  1.00  0.00     0.238 C 
HETATM   16  C16 UNL     1      -6.907  -0.236   0.500  1.00  0.00     0.241 C 
HETATM   17  C17 UNL     1      -5.651   0.199   1.280  1.00  0.00     0.176 C 
HETATM   18  C18 UNL     1      -5.508   1.728   1.310  1.00  0.00     0.035 C 
HETATM   19  C19 UNL     1      -5.364   2.380  -0.072  1.00  0.00     0.004 C 
HETATM   20  C20 UNL     1      -5.247   3.903   0.049  1.00  0.00     0.030 C 
HETATM   21  C21 UNL     1      -5.001   4.603  -1.290  1.00  0.00     0.267 C 
HETATM   22  C22 UNL     1      -4.036  -1.655   1.180  1.00  0.00     0.218 C 
HETATM   23  C23 UNL     1      -3.001  -2.308   0.282  1.00  0.00     0.103 C 
HETATM   24  C24 UNL     1      -2.314  -3.513   0.926  1.00  0.00     0.013 C 
HETATM   25  C25 UNL     1      -1.347  -3.146   2.061  1.00  0.00     0.027 C 
HETATM   26  C26 UNL     1      -0.077  -2.411   1.710  1.00  0.00    -0.031 C 
HETATM   27  C27 UNL     1       0.463  -2.242   0.492  1.00  0.00    -0.031 C 
HETATM   28  C28 UNL     1       1.739  -1.514   0.149  1.00  0.00     0.027 C 
HETATM   29  C29 UNL     1       2.495  -0.859   1.313  1.00  0.00     0.013 C 
HETATM   30  C30 UNL     1       3.726  -0.083   0.842  1.00  0.00     0.103 C 
HETATM   31  C31 UNL     1       4.873  -0.972   0.397  1.00  0.00     0.218 C 
HETATM   32  C32 UNL     1       7.180  -0.915  -0.448  1.00  0.00     0.176 C 
HETATM   33  C33 UNL     1       7.824  -0.381  -1.733  1.00  0.00     0.035 C 
HETATM   34  C34 UNL     1       7.065  -0.736  -3.016  1.00  0.00     0.004 C 
HETATM   35  C35 UNL     1       6.858  -2.234  -3.276  1.00  0.00     0.030 C 
HETATM   36  C36 UNL     1       8.118  -3.103  -3.238  1.00  0.00     0.267 C 
HETATM   37  C37 UNL     1       8.122  -0.642   0.742  1.00  0.00     0.241 C 
HETATM   38  C38 UNL     1      10.222  -1.426   1.865  1.00  0.00     0.180 C 
HETATM   39  C39 UNL     1      10.797  -2.812   2.227  1.00  0.00     0.073 C 
HETATM   40  C40 UNL     1      11.087  -3.710   1.040  1.00  0.00    -0.056 A 
HETATM   41  C41 UNL     1      10.142  -4.664   0.630  1.00  0.00     0.007 A 
HETATM   42  C42 UNL     1      10.378  -5.461  -0.491  1.00  0.00     0.001 A 
HETATM   43  C43 UNL     1      11.561  -5.316  -1.212  1.00  0.00     0.000 A 
HETATM   44  C44 UNL     1      12.510  -4.379  -0.809  1.00  0.00     0.001 A 
HETATM   45  C45 UNL     1      12.276  -3.581   0.312  1.00  0.00     0.007 A 
HETATM   46  C46 UNL     1      11.325  -0.416   1.456  1.00  0.00     0.241 C 
HETATM   47  C47 UNL     1      11.738   1.921   0.801  1.00  0.00     0.176 C 
HETATM   48  C48 UNL     1      11.204   2.896  -0.256  1.00  0.00     0.035 C 
HETATM   49  C49 UNL     1      11.168   2.269  -1.654  1.00  0.00     0.004 C 
HETATM   50  C50 UNL     1      10.777   3.258  -2.756  1.00  0.00     0.030 C 
HETATM   51  C51 UNL     1       9.345   3.777  -2.624  1.00  0.00     0.267 C 
HETATM   52  C52 UNL     1      11.876   2.653   2.150  1.00  0.00     0.238 C 
HETATM   53  O1  UNL     1     -10.254   0.855   2.469  1.00  0.00    -0.271 OA
HETATM   54  O2  UNL     1     -14.785   0.099   2.218  1.00  0.00    -0.271 OA
HETATM   55  O3  UNL     1      -6.857  -0.676  -0.649  1.00  0.00    -0.271 OA
HETATM   56  O4  UNL     1      -4.447  -2.148   2.225  1.00  0.00    -0.274 OA
HETATM   57  O5  UNL     1       4.890  -2.189   0.532  1.00  0.00    -0.274 OA
HETATM   58  O6  UNL     1       7.997   0.329   1.487  1.00  0.00    -0.271 OA
HETATM   59  O7  UNL     1      12.525  -0.602   1.640  1.00  0.00    -0.271 OA
HETATM   60  O8  UNL     1      11.016   2.640   3.027  1.00  0.00    -0.271 OA
HETATM   61  N1  UNL     1     -11.657   0.564   0.688  1.00  0.00    -0.346 N 
HETATM   62  N2  UNL     1     -14.459   5.406   0.059  1.00  0.00     0.078 N 
HETATM   63  N3  UNL     1     -12.804  -0.375   3.169  1.00  0.00    -0.368 N 
HETATM   64  N4  UNL     1      -8.094  -0.033   1.160  1.00  0.00    -0.346 N 
HETATM   65  N5  UNL     1      -6.114   4.465  -2.220  1.00  0.00     0.078 N 
HETATM   66  N6  UNL     1      -4.485  -0.446   0.686  1.00  0.00    -0.348 N 
HETATM   67  N7  UNL     1       5.906  -0.260  -0.178  1.00  0.00    -0.348 N 
HETATM   68  N8  UNL     1       9.097  -2.706  -4.240  1.00  0.00     0.078 N 
HETATM   69  N9  UNL     1       9.171  -1.523   0.844  1.00  0.00    -0.346 N 
HETATM   70  N10 UNL     1      10.838   0.789   0.979  1.00  0.00    -0.346 N 
HETATM   71  N11 UNL     1       9.009   4.616  -3.768  1.00  0.00     0.078 N 
HETATM   72  N12 UNL     1      13.007   3.407   2.301  1.00  0.00    -0.368 N 
HETATM   73  H67 UNL     1     -11.860  -0.043  -0.100  1.00  0.00     0.163 HD
HETATM   74  H68 UNL     1     -15.024   6.005   0.661  1.00  0.00     0.312 HD
HETATM   75  H69 UNL     1     -14.126   5.998  -0.701  1.00  0.00     0.312 HD
HETATM   76  H70 UNL     1     -11.888   0.004   3.400  1.00  0.00     0.159 HD
HETATM   77  H71 UNL     1     -13.302  -0.879   3.891  1.00  0.00     0.159 HD
HETATM   78  H72 UNL     1      -8.102   0.276   2.129  1.00  0.00     0.163 HD
HETATM   79  H73 UNL     1      -6.980   4.757  -1.770  1.00  0.00     0.312 HD
HETATM   80  H74 UNL     1      -6.241   3.487  -2.475  1.00  0.00     0.312 HD
HETATM   81  H75 UNL     1      -4.392  -0.328  -0.317  1.00  0.00     0.163 HD
HETATM   82  H76 UNL     1       5.970   0.718   0.084  1.00  0.00     0.163 HD
HETATM   83  H77 UNL     1       9.428  -1.759  -4.063  1.00  0.00     0.312 HD
HETATM   84  H78 UNL     1       9.915  -3.310  -4.172  1.00  0.00     0.312 HD
HETATM   85  H79 UNL     1       9.359  -2.137   0.060  1.00  0.00     0.163 HD
HETATM   86  H80 UNL     1       9.899   1.020   1.312  1.00  0.00     0.163 HD
HETATM   87  H81 UNL     1       8.071   4.996  -3.647  1.00  0.00     0.312 HD
HETATM   88  H82 UNL     1       9.638   5.417  -3.806  1.00  0.00     0.312 HD
HETATM   89  H83 UNL     1      13.851   3.151   1.804  1.00  0.00     0.159 HD
HETATM   90  H84 UNL     1      13.136   3.795   3.228  1.00  0.00     0.159 HD
ENDROOT
TORSDOF 44
