REMARK  0 active torsions:
REMARK  status: ('A' for Active; 'I' for Inactive)
REMARK       I    between atoms: C2_2  and  N1_87 
REMARK       I    between atoms: C3_3  and  N1_87 
REMARK       I    between atoms: C4_4  and  O19_86 
REMARK       I    between atoms: C6_6  and  C24_24 
REMARK       I    between atoms: C6_6  and  O7_74 
REMARK       I    between atoms: C7_7  and  C8_8 
REMARK       I    between atoms: C8_8  and  C9_9 
REMARK       I    between atoms: C8_8  and  O5_72 
REMARK       I    between atoms: C9_9  and  C10_10 
REMARK       I    between atoms: C9_9  and  O4_71 
REMARK       I    between atoms: C10_10  and  N2_88 
REMARK       I    between atoms: C11_11  and  C12_12 
REMARK       I    between atoms: C11_11  and  N2_88 
REMARK       I    between atoms: C15_15  and  C18_18 
REMARK       I    between atoms: C25_25  and  C26_26 
REMARK       I    between atoms: C25_25  and  O7_74 
REMARK       I    between atoms: C26_26  and  C27_27 
REMARK       I    between atoms: C27_27  and  S1_92 
REMARK       I    between atoms: C28_28  and  C29_29 
REMARK       I    between atoms: C28_28  and  S1_92 
REMARK       I    between atoms: C29_29  and  N3_89 
REMARK       I    between atoms: C30_30  and  C31_31 
REMARK       I    between atoms: C30_30  and  N3_89 
REMARK       I    between atoms: C34_34  and  C37_37 
REMARK       I    between atoms: C37_37  and  C38_38 
REMARK       I    between atoms: C38_38  and  C39_39 
REMARK       I    between atoms: C39_39  and  C40_40 
REMARK       I    between atoms: C40_40  and  S2_93 
REMARK       I    between atoms: C41_41  and  C42_42 
REMARK       I    between atoms: C41_41  and  S2_93 
REMARK       I    between atoms: C42_42  and  C43_43 
REMARK       I    between atoms: C43_43  and  O10_77 
REMARK       I    between atoms: C44_44  and  C67_67 
REMARK       I    between atoms: C44_44  and  O10_77 
REMARK       I    between atoms: C46_46  and  O16_83 
REMARK       I    between atoms: C47_47  and  N5_91 
REMARK       I    between atoms: C48_48  and  C49_49 
REMARK       I    between atoms: C49_49  and  C50_50 
REMARK       I    between atoms: C49_49  and  O14_81 
REMARK       I    between atoms: C50_50  and  C51_51 
REMARK       I    between atoms: C50_50  and  O13_80 
REMARK       I    between atoms: C51_51  and  N4_90 
REMARK       I    between atoms: C52_52  and  C53_53 
REMARK       I    between atoms: C52_52  and  N4_90 
REMARK       I    between atoms: C56_56  and  C59_59 
REMARK       I    between atoms: C65_65  and  N5_91 
REMARK       I    between atoms: C67_67  and  O18_85 
ROOT
HETATM    1  C1  UNL     1       7.898   4.907  -1.134  1.00  0.00     0.117 C 
HETATM    2  C2  UNL     1       8.198   4.012   0.037  1.00  0.00     0.214 C 
HETATM    3  C3  UNL     1       7.901   1.706   0.936  1.00  0.00     0.145 C 
HETATM    4  C4  UNL     1       7.368   2.054   2.346  1.00  0.00     0.149 C 
HETATM    5  C5  UNL     1       8.071   1.259   3.446  1.00  0.00     0.110 C 
HETATM    6  C6  UNL     1       8.606  -0.077   2.916  1.00  0.00     0.222 C 
HETATM    7  C7  UNL     1       9.392   1.304   1.048  1.00  0.00     0.182 C 
HETATM    8  C8  UNL     1      10.042   1.015  -0.328  1.00  0.00     0.179 C 
HETATM    9  C9  UNL     1      11.450   0.379  -0.258  1.00  0.00     0.167 C 
HETATM   10  C10 UNL     1      12.437   1.177   0.606  1.00  0.00     0.157 C 
HETATM   11  C11 UNL     1      14.604   1.091  -0.568  1.00  0.00     0.251 C 
HETATM   12  C12 UNL     1      15.892   0.366  -0.738  1.00  0.00     0.032 A 
HETATM   13  C13 UNL     1      16.028  -0.992  -0.435  1.00  0.00     0.018 A 
HETATM   14  C14 UNL     1      17.261  -1.629  -0.618  1.00  0.00     0.013 A 
HETATM   15  C15 UNL     1      18.376  -0.931  -1.113  1.00  0.00    -0.026 A 
HETATM   16  C16 UNL     1      18.216   0.429  -1.429  1.00  0.00     0.013 A 
HETATM   17  C17 UNL     1      16.986   1.071  -1.249  1.00  0.00     0.018 A 
HETATM   18  C18 UNL     1      19.670  -1.607  -1.306  1.00  0.00    -0.026 A 
HETATM   19  C19 UNL     1      20.329  -1.570  -2.546  1.00  0.00     0.012 A 
HETATM   20  C20 UNL     1      21.556  -2.212  -2.729  1.00  0.00     0.001 A 
HETATM   21  C21 UNL     1      22.147  -2.903  -1.674  1.00  0.00     0.000 A 
HETATM   22  C22 UNL     1      21.511  -2.951  -0.436  1.00  0.00     0.001 A 
HETATM   23  C23 UNL     1      20.283  -2.309  -0.254  1.00  0.00     0.012 A 
HETATM   24  C24 UNL     1       9.373  -0.775   4.063  1.00  0.00     0.299 C 
HETATM   25  C25 UNL     1       6.580  -1.390   3.209  1.00  0.00     0.172 C 
HETATM   26  C26 UNL     1       5.500  -2.025   2.336  1.00  0.00     0.036 C 
HETATM   27  C27 UNL     1       4.393  -2.630   3.189  1.00  0.00     0.076 C 
HETATM   28  C28 UNL     1       3.703  -4.527   1.225  1.00  0.00     0.093 C 
HETATM   29  C29 UNL     1       3.988  -4.091  -0.213  1.00  0.00     0.133 C 
HETATM   30  C30 UNL     1       2.785  -3.446  -2.259  1.00  0.00     0.251 C 
HETATM   31  C31 UNL     1       1.590  -2.766  -2.833  1.00  0.00     0.032 A 
HETATM   32  C32 UNL     1       0.342  -2.789  -2.198  1.00  0.00     0.018 A 
HETATM   33  C33 UNL     1      -0.757  -2.138  -2.773  1.00  0.00     0.016 A 
HETATM   34  C34 UNL     1      -0.620  -1.460  -3.991  1.00  0.00     0.010 A 
HETATM   35  C35 UNL     1       0.626  -1.457  -4.634  1.00  0.00     0.016 A 
HETATM   36  C36 UNL     1       1.723  -2.108  -4.061  1.00  0.00     0.018 A 
HETATM   37  C37 UNL     1      -1.757  -0.748  -4.654  1.00  0.00     0.159 C 
HETATM   38  C38 UNL     1      -3.069  -0.571  -3.918  1.00  0.00     0.084 C 
HETATM   39  C39 UNL     1      -4.012  -1.734  -4.222  1.00  0.00     0.018 C 
HETATM   40  C40 UNL     1      -5.338  -1.651  -3.467  1.00  0.00     0.074 C 
HETATM   41  C41 UNL     1      -6.846  -2.038  -1.151  1.00  0.00     0.076 C 
HETATM   42  C42 UNL     1      -7.619  -0.728  -1.267  1.00  0.00     0.036 C 
HETATM   43  C43 UNL     1      -7.044   0.405  -0.421  1.00  0.00     0.172 C 
HETATM   44  C44 UNL     1      -8.729   1.804   0.617  1.00  0.00     0.255 C 
HETATM   45  C45 UNL     1      -7.871   2.430   1.734  1.00  0.00     0.114 C 
HETATM   46  C46 UNL     1      -8.103   1.790   3.103  1.00  0.00     0.149 C 
HETATM   47  C47 UNL     1      -9.582   1.456   3.376  1.00  0.00     0.145 C 
HETATM   48  C48 UNL     1     -10.254   0.778   2.160  1.00  0.00     0.182 C 
HETATM   49  C49 UNL     1     -10.895  -0.579   2.487  1.00  0.00     0.179 C 
HETATM   50  C50 UNL     1     -12.086  -0.520   3.471  1.00  0.00     0.167 C 
HETATM   51  C51 UNL     1     -13.162   0.559   3.211  1.00  0.00     0.157 C 
HETATM   52  C52 UNL     1     -13.654   1.510   0.952  1.00  0.00     0.251 C 
HETATM   53  C53 UNL     1     -14.295   1.238  -0.363  1.00  0.00     0.032 A 
HETATM   54  C54 UNL     1     -13.706   1.758  -1.519  1.00  0.00     0.018 A 
HETATM   55  C55 UNL     1     -14.284   1.518  -2.770  1.00  0.00     0.013 A 
HETATM   56  C56 UNL     1     -15.463   0.765  -2.893  1.00  0.00    -0.026 A 
HETATM   57  C57 UNL     1     -16.050   0.263  -1.719  1.00  0.00     0.013 A 
HETATM   58  C58 UNL     1     -15.476   0.497  -0.464  1.00  0.00     0.018 A 
HETATM   59  C59 UNL     1     -16.070   0.515  -4.211  1.00  0.00    -0.026 A 
HETATM   60  C60 UNL     1     -16.377  -0.790  -4.631  1.00  0.00     0.012 A 
HETATM   61  C61 UNL     1     -16.953  -1.028  -5.882  1.00  0.00     0.001 A 
HETATM   62  C62 UNL     1     -17.234   0.037  -6.734  1.00  0.00     0.000 A 
HETATM   63  C63 UNL     1     -16.938   1.338  -6.337  1.00  0.00     0.001 A 
HETATM   64  C64 UNL     1     -16.361   1.575  -5.087  1.00  0.00     0.012 A 
HETATM   65  C65 UNL     1     -10.223   3.178   5.035  1.00  0.00     0.214 C 
HETATM   66  C66 UNL     1     -10.942   4.485   5.229  1.00  0.00     0.117 C 
HETATM   67  C67 UNL     1      -9.816   2.811   0.078  1.00  0.00     0.205 C 
HETATM   68  O1  UNL     1       8.918   4.361   0.967  1.00  0.00    -0.274 OA
HETATM   69  O2  UNL     1       9.581   0.144   1.883  1.00  0.00    -0.339 OA
HETATM   70  O3  UNL     1      14.317   2.024  -1.310  1.00  0.00    -0.268 OA
HETATM   71  O4  UNL     1      11.342  -0.972   0.240  1.00  0.00    -0.391 OA
HETATM   72  O5  UNL     1       9.193   0.126  -1.078  1.00  0.00    -0.390 OA
HETATM   73  O6  UNL     1      10.565  -1.076   4.046  1.00  0.00    -0.301 OA
HETATM   74  O7  UNL     1       7.601  -0.903   2.345  1.00  0.00    -0.349 OA
HETATM   75  O8  UNL     1       3.706  -3.798  -2.987  1.00  0.00    -0.268 OA
HETATM   76  O9  UNL     1      -1.620  -0.321  -5.800  1.00  0.00    -0.292 OA
HETATM   77  O10 UNL     1      -7.896   1.546  -0.529  1.00  0.00    -0.346 OA
HETATM   78  O11 UNL     1      -9.359   0.590   1.051  1.00  0.00    -0.336 OA
HETATM   79  O12 UNL     1     -13.052   2.565   1.137  1.00  0.00    -0.268 OA
HETATM   80  O13 UNL     1     -12.730  -1.809   3.456  1.00  0.00    -0.391 OA
HETATM   81  O14 UNL     1     -11.366  -1.194   1.262  1.00  0.00    -0.390 OA
HETATM   82  O15 UNL     1      -9.595   2.628   5.934  1.00  0.00    -0.274 OA
HETATM   83  O16 UNL     1      -7.315   0.598   3.202  1.00  0.00    -0.393 OA
HETATM   84  O17 UNL     1     -10.226   2.914  -1.070  1.00  0.00    -0.646 OA
HETATM   85  O18 UNL     1     -10.424   3.532   1.059  1.00  0.00    -0.772 OA
HETATM   86  O19 UNL     1       5.958   1.806   2.413  1.00  0.00    -0.393 OA
HETATM   87  N1  UNL     1       7.618   2.767  -0.036  1.00  0.00    -0.352 N 
HETATM   88  N2  UNL     1      13.789   0.668   0.460  1.00  0.00    -0.354 N 
HETATM   89  N3  UNL     1       2.795  -3.612  -0.890  1.00  0.00    -0.356 N 
HETATM   90  N4  UNL     1     -13.753   0.498   1.884  1.00  0.00    -0.354 N 
HETATM   91  N5  UNL     1     -10.319   2.659   3.766  1.00  0.00    -0.352 N 
HETATM   92  S1  UNL     1       2.950  -3.181   2.218  1.00  0.00    -0.167 SA
HETATM   93  S2  UNL     1      -5.102  -1.959  -1.683  1.00  0.00    -0.169 SA
HETATM   94  H70 UNL     1      10.921  -0.909   1.125  1.00  0.00     0.210 HD
HETATM   95  H71 UNL     1       9.475  -0.778  -0.822  1.00  0.00     0.210 HD
HETATM   96  H72 UNL     1     -12.603  -2.138   2.540  1.00  0.00     0.210 HD
HETATM   97  H73 UNL     1     -10.673  -0.995   0.598  1.00  0.00     0.210 HD
HETATM   98  H74 UNL     1      -7.226   0.392   4.152  1.00  0.00     0.210 HD
HETATM   99  H75 UNL     1     -11.274   3.812   0.636  1.00  0.00     0.167 HD
HETATM  100  H76 UNL     1       5.556   2.339   1.701  1.00  0.00     0.210 HD
HETATM  101  H77 UNL     1       7.313   2.451  -0.952  1.00  0.00     0.163 HD
HETATM  102  H78 UNL     1      14.036  -0.144   1.008  1.00  0.00     0.162 HD
HETATM  103  H79 UNL     1       2.176  -3.035  -0.333  1.00  0.00     0.162 HD
HETATM  104  H80 UNL     1     -14.135  -0.397   1.606  1.00  0.00     0.162 HD
HETATM  105  H81 UNL     1     -10.636   3.277   3.018  1.00  0.00     0.163 HD
ENDROOT
TORSDOF 42
