REMARK  14 active torsions:
REMARK  status: ('A' for Active; 'I' for Inactive)
REMARK    1  A    between atoms: C3_3  and  N6_37 
REMARK    2  A    between atoms: C5_5  and  C6_6 
REMARK       I    between atoms: C6_6  and  N2_32 
REMARK    3  A    between atoms: C7_7  and  C8_8 
REMARK    4  A    between atoms: C7_7  and  N2_32 
REMARK    5  A    between atoms: C8_8  and  N3_33 
REMARK    6  A    between atoms: C9_9  and  N4_35 
REMARK    7  A    between atoms: C10_10  and  C11_11 
REMARK       I    between atoms: C10_10  and  N6_37 
REMARK    8  A    between atoms: C13_13  and  N8_39 
REMARK    9  A    between atoms: C16_16  and  C17_17 
REMARK       I    between atoms: C16_16  and  N8_39 
REMARK   10  A    between atoms: C19_19  and  N10_41 
REMARK   11  A    between atoms: C22_22  and  C23_23 
REMARK       I    between atoms: C22_22  and  N10_41 
REMARK   12  A    between atoms: C25_25  and  N12_43 
REMARK   13  A    between atoms: C28_28  and  C29_29 
REMARK       I    between atoms: C28_28  and  N12_43 
REMARK   14  A    between atoms: N4_35  and  N5_36 
ROOT
HETATM    1  C11 UNL     1       2.446   0.655  -1.822  1.00  0.00     0.105 A 
HETATM    2  C12 UNL     1       1.411   0.167  -1.028  1.00  0.00     0.066 A 
HETATM    3  C13 UNL     1       0.214   0.157  -1.787  1.00  0.00     0.053 A 
HETATM    4  C14 UNL     1       0.537   0.627  -3.034  1.00  0.00     0.120 A 
HETATM    5  C15 UNL     1       2.565   1.445  -4.218  1.00  0.00     0.156 C 
HETATM    6  N7  UNL     1       1.877   0.918  -3.057  1.00  0.00    -0.354 N 
ENDROOT
BRANCH   3   7
HETATM    7  N8  UNL     1      -1.016  -0.271  -1.327  1.00  0.00    -0.320 N 
HETATM    8  C16 UNL     1      -2.208  -0.214  -2.026  1.00  0.00     0.273 C 
HETATM    9  O3  UNL     1      -2.369   0.313  -3.121  1.00  0.00    -0.266 OA
HETATM   10  H33 UNL     1      -1.054  -0.576  -0.365  1.00  0.00     0.169 HD
BRANCH   8  11
HETATM   11  C17 UNL     1      -3.318  -0.800  -1.294  1.00  0.00     0.105 A 
HETATM   12  C18 UNL     1      -4.586  -0.256  -1.142  1.00  0.00     0.066 A 
HETATM   13  C19 UNL     1      -5.359  -1.127  -0.337  1.00  0.00     0.053 A 
HETATM   14  C20 UNL     1      -4.559  -2.205  -0.045  1.00  0.00     0.120 A 
HETATM   15  N9  UNL     1      -3.349  -2.030  -0.668  1.00  0.00    -0.354 N 
HETATM   16  C21 UNL     1      -2.321  -3.049  -0.719  1.00  0.00     0.156 C 
BRANCH  13  17
HETATM   17  N10 UNL     1      -6.666  -0.895   0.049  1.00  0.00    -0.320 N 
HETATM   18  C22 UNL     1      -7.452  -1.738   0.815  1.00  0.00     0.273 C 
HETATM   19  O4  UNL     1      -7.088  -2.831   1.239  1.00  0.00    -0.266 OA
HETATM   20  H34 UNL     1      -7.081  -0.050  -0.311  1.00  0.00     0.169 HD
BRANCH  18  21
HETATM   21  C23 UNL     1      -8.795  -1.219   1.075  1.00  0.00     0.105 A 
HETATM   22  C24 UNL     1      -9.295   0.076   0.959  1.00  0.00     0.066 A 
HETATM   23  C25 UNL     1     -10.662   0.077   1.335  1.00  0.00     0.053 A 
HETATM   24  C26 UNL     1     -10.975  -1.212   1.681  1.00  0.00     0.120 A 
HETATM   25  N11 UNL     1      -9.853  -1.987   1.534  1.00  0.00    -0.354 N 
HETATM   26  C27 UNL     1      -9.819  -3.410   1.806  1.00  0.00     0.156 C 
BRANCH  23  27
HETATM   27  N12 UNL     1     -11.484   1.189   1.345  1.00  0.00    -0.321 N 
HETATM   28  C28 UNL     1     -12.829   1.190   1.676  1.00  0.00     0.266 C 
HETATM   29  O5  UNL     1     -13.515   0.216   1.967  1.00  0.00    -0.266 OA
HETATM   30  H35 UNL     1     -11.059   2.056   1.046  1.00  0.00     0.169 HD
BRANCH  28  31
HETATM   31  C29 UNL     1     -13.442   2.557   1.617  1.00  0.00     0.092 C 
HETATM   32  C30 UNL     1     -12.861   3.633   2.164  1.00  0.00     0.042 C 
HETATM   33 CL1  UNL     1     -14.993   2.682   0.871  1.00  0.00    -0.079 Cl
ENDBRANCH  28  31
ENDBRANCH  23  27
ENDBRANCH  18  21
ENDBRANCH  13  17
ENDBRANCH   8  11
ENDBRANCH   3   7
BRANCH   1  34
HETATM   34  C10 UNL     1       3.860   0.854  -1.507  1.00  0.00     0.273 C 
HETATM   35  N6  UNL     1       4.134   0.881  -0.151  1.00  0.00    -0.320 N 
HETATM   36  H32 UNL     1       3.364   0.831   0.498  1.00  0.00     0.169 HD
HETATM   37  O2  UNL     1       4.708   0.995  -2.384  1.00  0.00    -0.266 OA
BRANCH  35  38
HETATM   38  C3  UNL     1       5.387   1.039   0.407  1.00  0.00     0.053 A 
HETATM   39  C2  UNL     1       5.597   1.085   1.764  1.00  0.00     0.120 A 
HETATM   40  N1  UNL     1       6.943   1.243   1.987  1.00  0.00    -0.354 N 
HETATM   41  C1  UNL     1       7.537   1.335   3.306  1.00  0.00     0.156 C 
HETATM   42  C5  UNL     1       7.626   1.306   0.783  1.00  0.00     0.104 A 
HETATM   43  C4  UNL     1       6.654   1.175  -0.205  1.00  0.00     0.066 A 
BRANCH  42  44
HETATM   44  C6  UNL     1       9.070   1.459   0.664  1.00  0.00     0.268 C 
HETATM   45  N2  UNL     1       9.530   1.635  -0.624  1.00  0.00    -0.354 N 
HETATM   46  H28 UNL     1       8.868   1.660  -1.384  1.00  0.00     0.162 HD
HETATM   47  O1  UNL     1       9.823   1.421   1.632  1.00  0.00    -0.266 OA
BRANCH  45  48
HETATM   48  C7  UNL     1      10.945   1.641  -0.960  1.00  0.00     0.142 C 
BRANCH  48  49
HETATM   49  C8  UNL     1      11.463   0.248  -1.354  1.00  0.00     0.140 C 
BRANCH  49  50
HETATM   50  N3  UNL     1      11.481  -0.629  -0.179  1.00  0.00    -0.384 N 
HETATM   51  C9  UNL     1      10.488  -1.441  -0.092  1.00  0.00     0.187 C 
ATOM     52  H3  UNL     1      12.226  -0.597   0.517  1.00  0.00     0.160 HD
BRANCH  51  53
HETATM   53  N4  UNL     1      10.218  -2.263   0.982  1.00  0.00    -0.320 N 
HETATM   54  H29 UNL     1       9.257  -2.601   1.047  1.00  0.00     0.181 HD
BRANCH  53  55
HETATM   55  N5  UNL     1      10.797  -1.828   2.208  1.00  0.00    -0.249 NA
HETATM   56  H30 UNL     1      10.574  -0.827   2.332  1.00  0.00     0.143 HD
HETATM   57  H31 UNL     1      11.815  -1.789   2.062  1.00  0.00     0.143 HD
ENDBRANCH  53  55
ENDBRANCH  51  53
ENDBRANCH  49  50
ENDBRANCH  48  49
ENDBRANCH  45  48
ENDBRANCH  42  44
ENDBRANCH  35  38
ENDBRANCH   1  34
TORSDOF 14
