REMARK  18 active torsions:
REMARK  status: ('A' for Active; 'I' for Inactive)
REMARK    1  A    between atoms: C5_5  and  C6_6 
REMARK    2  A    between atoms: C5_5  and  O1_89 
REMARK    3  A    between atoms: C6_6  and  C7_7 
REMARK    4  A    between atoms: C7_7  and  N2_69 
REMARK    5  A    between atoms: C17_17  and  O16_104 
REMARK    6  A    between atoms: C31_31  and  C41_41 
REMARK    7  A    between atoms: C33_33  and  C34_34 
REMARK    8  A    between atoms: C34_34  and  O7_95 
REMARK    9  A    between atoms: C41_41  and  O9_97 
REMARK   10  A    between atoms: C45_45  and  O12_100 
REMARK   11  A    between atoms: C46_46  and  C47_47 
REMARK   12  A    between atoms: C48_48  and  C49_49 
REMARK       I    between atoms: C49_49  and  N12_84 
REMARK   13  A    between atoms: C50_50  and  C52_52 
REMARK   14  A    between atoms: C50_50  and  N12_84 
REMARK       I    between atoms: C52_52  and  N13_85 
REMARK   15  A    between atoms: C59_59  and  O16_104 
REMARK   16  A    between atoms: C61_61  and  O18_106 
REMARK   17  A    between atoms: C62_62  and  N15_88 
REMARK   18  A    between atoms: N1_68  and  O1_89 
ROOT
HETATM    1  C1  UNL     1      -3.293   4.022  -1.739  1.00  0.00     0.147 A 
HETATM    2  C2  UNL     1      -4.147   2.936  -2.006  1.00  0.00     0.014 A 
HETATM    3  C3  UNL     1      -5.526   3.426  -1.992  1.00  0.00     0.012 A 
HETATM    4  C4  UNL     1      -5.438   4.806  -1.780  1.00  0.00     0.075 A 
HETATM    5  C11 UNL     1      -6.552   5.656  -1.687  1.00  0.00     0.033 A 
HETATM    6  C12 UNL     1      -7.814   5.103  -1.824  1.00  0.00     0.003 A 
HETATM    7  C13 UNL     1      -7.952   3.739  -2.028  1.00  0.00     0.010 A 
HETATM    8  C14 UNL     1      -6.840   2.856  -2.099  1.00  0.00    -0.021 A 
HETATM    9  C15 UNL     1      -7.221   1.397  -2.330  1.00  0.00     0.218 C 
HETATM   10  C16 UNL     1      -6.466   0.288  -0.359  1.00  0.00     0.291 C 
HETATM   11  C17 UNL     1      -5.322  -0.600   0.188  1.00  0.00     0.255 C 
HETATM   12  C18 UNL     1      -4.111  -0.487  -0.776  1.00  0.00     0.189 C 
HETATM   13  C19 UNL     1      -2.833  -1.272  -0.372  1.00  0.00     0.174 C 
HETATM   14  C20 UNL     1      -2.184  -0.681   0.868  1.00  0.00     0.077 A 
HETATM   15  C21 UNL     1      -1.002   0.799   2.051  1.00  0.00     0.102 A 
HETATM   16  C22 UNL     1      -0.204   2.023   2.133  1.00  0.00     0.248 C 
HETATM   17  C23 UNL     1       0.654   2.460  -0.087  1.00  0.00     0.144 C 
HETATM   18  C24 UNL     1       2.051   2.895   0.298  1.00  0.00     0.071 A 
HETATM   19  C25 UNL     1       4.195   2.707   0.863  1.00  0.00     0.067 A 
HETATM   20  C26 UNL     1       5.460   2.010   1.122  1.00  0.00     0.073 A 
HETATM   21  C27 UNL     1       5.539   0.651   1.447  1.00  0.00     0.029 A 
HETATM   22  C28 UNL     1       4.376  -0.213   1.639  1.00  0.00     0.087 C 
HETATM   23  C29 UNL     1       2.821  -1.737   1.234  1.00  0.00     0.102 C 
HETATM   24  C30 UNL     1       2.130  -2.723   0.405  1.00  0.00     0.248 C 
HETATM   25  C31 UNL     1       2.539  -3.885  -1.723  1.00  0.00     0.183 C 
HETATM   26  C32 UNL     1       1.368  -4.883  -1.706  1.00  0.00     0.242 C 
HETATM   27  C33 UNL     1       0.282  -6.542  -0.234  1.00  0.00     0.098 C 
HETATM   28  C37 UNL     1      -1.010  -6.174  -0.747  1.00  0.00     0.104 C 
HETATM   29  C38 UNL     1      -2.654  -4.801  -1.363  1.00  0.00     0.108 C 
HETATM   30  C39 UNL     1      -3.278  -3.480  -1.392  1.00  0.00     0.269 C 
HETATM   31  C40 UNL     1      -2.962  -5.872  -2.175  1.00  0.00     0.087 C 
HETATM   32  C43 UNL     1       2.298  -1.192   2.391  1.00  0.00     0.086 C 
HETATM   33  C44 UNL     1       6.816   0.088   1.584  1.00  0.00     0.055 A 
HETATM   34  C45 UNL     1       7.953   0.880   1.430  1.00  0.00     0.096 A 
HETATM   35  C46 UNL     1       7.798   2.238   1.139  1.00  0.00     0.100 A 
HETATM   36  C54 UNL     1       4.030   4.065   1.063  1.00  0.00     0.083 A 
HETATM   37  C55 UNL     1       0.233   3.004  -1.469  1.00  0.00     0.205 C 
HETATM   38  C56 UNL     1      -1.862   4.141  -1.522  1.00  0.00     0.313 C 
HETATM   39  C57 UNL     1      -1.284  -0.098   3.058  1.00  0.00     0.086 A 
HETATM   40  C58 UNL     1      -3.739   1.498  -2.145  1.00  0.00     0.210 C 
HETATM   41  N1  UNL     1      -4.111   5.122  -1.662  1.00  0.00    -0.215 N 
HETATM   42  N3  UNL     1      -1.527   0.457   0.812  1.00  0.00    -0.348 N 
ATOM     43  H3  UNL     1      -1.417   1.017  -0.034  1.00  0.00     0.166 HD
HETATM   44  N4  UNL     1      -0.320   2.779   0.965  1.00  0.00    -0.244 NA
HETATM   45  N5  UNL     1       3.070   2.062   0.371  1.00  0.00    -0.350 N 
ATOM     46  H5  UNL     1       3.036   1.079   0.103  1.00  0.00     0.166 HD
HETATM   47  N6  UNL     1       4.072  -1.238   0.868  1.00  0.00    -0.345 N 
ATOM     48  H6  UNL     1       4.659  -1.609   0.121  1.00  0.00     0.167 HD
HETATM   49  N7  UNL     1       2.985  -3.468  -0.387  1.00  0.00    -0.241 NA
HETATM   50  N8  UNL     1       1.366  -5.768  -0.635  1.00  0.00    -0.321 N 
HETATM   51  N9  UNL     1      -1.598  -5.022  -0.486  1.00  0.00    -0.344 N 
ATOM     52  H9  UNL     1      -1.317  -4.382   0.257  1.00  0.00     0.167 HD
HETATM   53  N10 UNL     1      -2.882  -2.715  -0.315  1.00  0.00    -0.343 N 
HETATM   54  N14 UNL     1       6.565   2.798   0.988  1.00  0.00    -0.349 N 
ATOM     55  H14 UNL     1       6.470   3.792   0.778  1.00  0.00     0.166 HD
HETATM   56  O2  UNL     1      -6.361   0.453  -1.704  1.00  0.00    -0.315 OA
HETATM   57  O3  UNL     1      -7.367   0.759   0.325  1.00  0.00    -0.262 OA
HETATM   58  O4  UNL     1       0.481   2.346   3.094  1.00  0.00    -0.272 OA
HETATM   59  O5  UNL     1       0.911  -2.845   0.398  1.00  0.00    -0.272 OA
HETATM   60  O6  UNL     1       0.609  -4.951  -2.672  1.00  0.00    -0.271 OA
HETATM   61  O8  UNL     1      -4.007  -3.092  -2.296  1.00  0.00    -0.266 OA
HETATM   62  O13 UNL     1      -1.208   2.950  -1.654  1.00  0.00    -0.314 OA
HETATM   63  O14 UNL     1      -1.275   5.187  -1.257  1.00  0.00    -0.258 OA
HETATM   64  O15 UNL     1      -3.761   0.920  -0.846  1.00  0.00    -0.376 OA
HETATM   65  S1  UNL     1      -1.864  -7.162  -1.884  1.00  0.00    -0.079 SA
HETATM   66  S2  UNL     1       3.352   0.007   3.006  1.00  0.00    -0.081 SA
HETATM   67  S4  UNL     1       2.422   4.530   0.697  1.00  0.00    -0.085 SA
HETATM   68  S5  UNL     1      -2.212  -1.402   2.427  1.00  0.00    -0.084 SA
HETATM   69  H65 UNL     1      -1.223   2.528   0.566  1.00  0.00     0.131 HD
HETATM   70  H66 UNL     1       3.930  -3.079  -0.402  1.00  0.00     0.131 HD
HETATM   71  H67 UNL     1       2.164  -5.715  -0.017  1.00  0.00     0.169 HD
HETATM   72  H68 UNL     1      -2.129  -3.168   0.205  1.00  0.00     0.163 HD
ENDROOT
BRANCH  35  73
HETATM   73  C47 UNL     1       8.943   3.157   0.941  1.00  0.00     0.104 A 
HETATM   74  N11 UNL     1      10.204   2.795   0.779  1.00  0.00    -0.344 N 
HETATM   75  C48 UNL     1      11.027   3.909   0.599  1.00  0.00     0.108 A 
ATOM     76  H11 UNL     1      10.533   1.829   0.785  1.00  0.00     0.167 HD
HETATM   77  C53 UNL     1      10.368   5.120   0.637  1.00  0.00     0.087 A 
HETATM   78  S3  UNL     1       8.697   4.873   0.899  1.00  0.00    -0.079 SA
BRANCH  75  79
HETATM   79  C49 UNL     1      12.471   3.745   0.393  1.00  0.00     0.273 C 
HETATM   80  N12 UNL     1      12.822   2.413   0.427  1.00  0.00    -0.318 N 
HETATM   81  H69 UNL     1      12.032   1.781   0.554  1.00  0.00     0.169 HD
HETATM   82  O10 UNL     1      13.218   4.701   0.232  1.00  0.00    -0.266 OA
BRANCH  80  83
HETATM   83  C50 UNL     1      14.054   1.826   0.248  1.00  0.00     0.093 C 
HETATM   84  C51 UNL     1      15.186   2.464  -0.073  1.00  0.00     0.049 C 
BRANCH  83  85
HETATM   85  C52 UNL     1      14.135   0.331   0.418  1.00  0.00     0.265 C 
HETATM   86  N13 UNL     1      13.180  -0.198   1.242  1.00  0.00    -0.365 N 
HETATM   87  H70 UNL     1      13.327  -1.169   1.489  1.00  0.00     0.159 HD
HETATM   88  H71 UNL     1      12.718   0.386   1.925  1.00  0.00     0.159 HD
HETATM   89  O11 UNL     1      14.987  -0.378  -0.102  1.00  0.00    -0.266 OA
ENDBRANCH  83  85
ENDBRANCH  80  83
ENDBRANCH  75  79
ENDBRANCH  35  73
BRANCH  34  90
HETATM   90  O12 UNL     1       9.185   0.307   1.585  1.00  0.00    -0.358 OA
HETATM   91  H73 UNL     1       9.093  -0.657   1.668  1.00  0.00     0.217 HD
ENDBRANCH  34  90
BRANCH  25  92
HETATM   92  C41 UNL     1       3.729  -4.511  -2.486  1.00  0.00     0.141 C 
HETATM   93  C42 UNL     1       3.513  -4.544  -3.995  1.00  0.00     0.041 C 
BRANCH  92  94
HETATM   94  O9  UNL     1       4.909  -3.731  -2.215  1.00  0.00    -0.394 OA
HETATM   95  H72 UNL     1       5.634  -4.103  -2.751  1.00  0.00     0.210 HD
ENDBRANCH  92  94
ENDBRANCH  25  92
BRANCH  41  96
HETATM   96  O1  UNL     1      -3.676   6.413  -1.320  1.00  0.00    -0.272 OA
BRANCH  96  97
HETATM   97  C5  UNL     1      -3.527   7.217  -2.489  1.00  0.00     0.203 C 
BRANCH  97  98
HETATM   98  C6  UNL     1      -2.168   7.921  -2.443  1.00  0.00     0.057 C 
BRANCH  98  99
HETATM   99  C7  UNL     1      -1.894   8.537  -1.068  1.00  0.00     0.238 C 
BRANCH  99 100
HETATM  100  N2  UNL     1      -0.443   9.033  -0.883  1.00  0.00    -0.079 N 
HETATM  101  C8  UNL     1       0.517   7.845  -0.807  1.00  0.00     0.271 C 
HETATM  102  C9  UNL     1      -0.373   9.773   0.456  1.00  0.00     0.271 C 
HETATM  103  C10 UNL     1      -0.013   9.981  -1.986  1.00  0.00     0.271 C 
ENDBRANCH  99 100
ENDBRANCH  98  99
ENDBRANCH  97  98
ENDBRANCH  96  97
ENDBRANCH  41  96
BRANCH  27 104
HETATM  104  C34 UNL     1       0.374  -7.499   0.718  1.00  0.00     0.071 C 
HETATM  105  C36 UNL     1       1.643  -7.904   1.422  1.00  0.00     0.078 C 
BRANCH 104 106
HETATM  106  O7  UNL     1      -0.780  -8.117   1.195  1.00  0.00    -0.358 OA
HETATM  107  C35 UNL     1      -0.751  -9.538   1.070  1.00  0.00     0.209 C 
ENDBRANCH 104 106
ENDBRANCH  27 104
BRANCH  11 108
HETATM  108  O16 UNL     1      -5.762  -1.952   0.339  1.00  0.00    -0.343 OA
BRANCH 108 109
HETATM  109  C59 UNL     1      -6.565  -2.140   1.509  1.00  0.00     0.264 C 
HETATM  110  C60 UNL     1      -7.476  -3.343   1.334  1.00  0.00     0.100 C 
HETATM  111  C61 UNL     1      -6.713  -4.680   1.233  1.00  0.00     0.092 C 
HETATM  112  C62 UNL     1      -5.301  -4.614   1.955  1.00  0.00     0.284 C 
HETATM  113  C67 UNL     1      -6.593  -5.063  -0.256  1.00  0.00     0.048 C 
HETATM  114  C63 UNL     1      -5.366  -3.541   3.093  1.00  0.00     0.157 C 
HETATM  115  C64 UNL     1      -6.213  -3.941   4.303  1.00  0.00     0.042 C 
HETATM  116  O17 UNL     1      -5.748  -2.227   2.663  1.00  0.00    -0.354 OA
BRANCH 111 117
HETATM  117  O18 UNL     1      -7.553  -5.669   1.858  1.00  0.00    -0.388 OA
HETATM  118  H74 UNL     1      -8.371  -5.750   1.340  1.00  0.00     0.210 HD
ENDBRANCH 111 117
BRANCH 112 119
HETATM  119  N15 UNL     1      -4.691  -5.894   2.454  1.00  0.00     0.090 N 
HETATM  120  C65 UNL     1      -4.762  -7.013   1.520  1.00  0.00     0.310 C 
HETATM  121  C66 UNL     1      -3.287  -5.719   2.854  1.00  0.00     0.310 C 
ENDBRANCH 112 119
ENDBRANCH 108 109
ENDBRANCH  11 108
TORSDOF 18
