REMARK  0 active torsions:
REMARK  status: ('A' for Active; 'I' for Inactive)
REMARK       I    between atoms: C2_2  and  C3_3 
REMARK       I    between atoms: C3_3  and  C5_5 
REMARK       I    between atoms: C5_5  and  C6_6 
REMARK       I    between atoms: C5_5  and  N4_93 
REMARK       I    between atoms: C6_6  and  C7_7 
REMARK       I    between atoms: C6_6  and  O7_78 
REMARK       I    between atoms: C7_7  and  C8_8 
REMARK       I    between atoms: C8_8  and  N1_90 
REMARK       I    between atoms: C12_12  and  C13_13 
REMARK       I    between atoms: C13_13  and  C14_14 
REMARK       I    between atoms: C13_13  and  O6_77 
REMARK       I    between atoms: C14_14  and  C16_16 
REMARK       I    between atoms: C16_16  and  N2_91 
REMARK       I    between atoms: C17_17  and  C18_18 
REMARK       I    between atoms: C17_17  and  C25_25 
REMARK       I    between atoms: C17_17  and  N2_91 
REMARK       I    between atoms: C18_18  and  C19_19 
REMARK       I    between atoms: C25_25  and  N3_92 
REMARK       I    between atoms: C26_26  and  S1_102 
REMARK       I    between atoms: C32_32  and  C33_33 
REMARK       I    between atoms: C32_32  and  N4_93 
REMARK       I    between atoms: C33_33  and  C34_34 
REMARK       I    between atoms: C33_33  and  N5_94 
REMARK       I    between atoms: C37_37  and  C38_38 
REMARK       I    between atoms: C37_37  and  N5_94 
REMARK       I    between atoms: C38_38  and  C39_39 
REMARK       I    between atoms: C38_38  and  N6_95 
REMARK       I    between atoms: C43_43  and  O11_82 
REMARK       I    between atoms: C43_43  and  N6_95 
REMARK       I    between atoms: C44_44  and  C45_45 
REMARK       I    between atoms: C44_44  and  O11_82 
REMARK       I    between atoms: C48_48  and  N7_96 
REMARK       I    between atoms: C51_51  and  C52_52 
REMARK       I    between atoms: C51_51  and  N7_96 
REMARK       I    between atoms: C52_52  and  C53_53 
REMARK       I    between atoms: C52_52  and  N10_99 
REMARK       I    between atoms: C53_53  and  C54_54 
REMARK       I    between atoms: C54_54  and  C55_55 
REMARK       I    between atoms: C55_55  and  N8_97 
REMARK       I    between atoms: C56_56  and  N8_97 
REMARK       I    between atoms: C56_56  and  N9_98 
REMARK       I    between atoms: C57_57  and  C58_58 
REMARK       I    between atoms: C57_57  and  N10_99 
REMARK       I    between atoms: C58_58  and  C59_59 
REMARK       I    between atoms: C58_58  and  N11_100 
REMARK       I    between atoms: C62_62  and  C63_63 
REMARK       I    between atoms: C62_62  and  N11_100 
REMARK       I    between atoms: C63_63  and  C64_64 
REMARK       I    between atoms: C64_64  and  C65_65 
REMARK       I    between atoms: C65_65  and  N12_101 
REMARK       I    between atoms: C68_68  and  C71_71 
REMARK       I    between atoms: C71_71  and  O18_89 
REMARK       I    between atoms: N3_92  and  S1_102 
ROOT
HETATM    1  C1  UNL     1      -3.029   1.594   2.690  1.00  0.00     0.005 C 
HETATM    2  C2  UNL     1      -4.425   2.120   2.391  1.00  0.00     0.002 C 
HETATM    3  C3  UNL     1      -5.450   1.086   1.877  1.00  0.00     0.006 C 
HETATM    4  C4  UNL     1      -5.342  -0.260   2.604  1.00  0.00     0.012 C 
HETATM    5  C5  UNL     1      -5.571   0.938   0.311  1.00  0.00     0.119 C 
HETATM    6  C6  UNL     1      -6.190   2.229  -0.348  1.00  0.00     0.152 C 
HETATM    7  C7  UNL     1      -6.454   2.102  -1.857  1.00  0.00     0.137 C 
HETATM    8  C8  UNL     1      -7.839   1.609  -2.259  1.00  0.00     0.222 C 
HETATM    9  C9  UNL     1      -7.082  -0.785  -2.474  1.00  0.00     0.126 C 
HETATM   10  C10 UNL     1      -7.626  -1.702  -3.556  1.00  0.00     0.022 C 
HETATM   11  C11 UNL     1      -9.117  -1.694  -3.263  1.00  0.00     0.029 C 
HETATM   12  C12 UNL     1      -9.391  -0.234  -2.850  1.00  0.00     0.117 C 
HETATM   13  C13 UNL     1     -10.638  -0.130  -1.913  1.00  0.00     0.156 C 
HETATM   14  C14 UNL     1     -10.457  -0.734  -0.494  1.00  0.00     0.105 C 
HETATM   15  C15 UNL     1      -9.642   0.112   0.483  1.00  0.00     0.022 C 
HETATM   16  C16 UNL     1     -11.839  -0.978   0.108  1.00  0.00     0.224 C 
HETATM   17  C17 UNL     1     -14.006   0.108   0.653  1.00  0.00     0.181 C 
HETATM   18  C18 UNL     1     -14.228  -0.353   2.104  1.00  0.00     0.073 C 
HETATM   19  C19 UNL     1     -15.519  -1.116   2.278  1.00  0.00    -0.056 A 
HETATM   20  C20 UNL     1     -16.694  -0.463   2.669  1.00  0.00     0.007 A 
HETATM   21  C21 UNL     1     -17.885  -1.177   2.808  1.00  0.00     0.001 A 
HETATM   22  C22 UNL     1     -17.912  -2.548   2.557  1.00  0.00     0.000 A 
HETATM   23  C23 UNL     1     -16.749  -3.206   2.163  1.00  0.00     0.001 A 
HETATM   24  C24 UNL     1     -15.558  -2.494   2.021  1.00  0.00     0.007 A 
HETATM   25  C25 UNL     1     -14.615   1.514   0.476  1.00  0.00     0.254 C 
HETATM   26  C26 UNL     1     -12.526   5.067   0.510  1.00  0.00     0.130 A 
HETATM   27  C27 UNL     1     -12.494   6.375   1.251  1.00  0.00     0.023 A 
HETATM   28  C28 UNL     1     -11.781   5.173   1.814  1.00  0.00     0.023 A 
HETATM   29  C29 UNL     1     -11.748   1.757  -2.925  1.00  0.00     0.202 C 
HETATM   30  C30 UNL     1      -7.722   3.959   0.264  1.00  0.00     0.202 C 
HETATM   31  C31 UNL     1      -4.217  -1.076  -0.311  1.00  0.00     0.153 C 
HETATM   32  C32 UNL     1      -3.306   1.196  -0.764  1.00  0.00     0.243 C 
HETATM   33  C33 UNL     1      -1.961   0.647  -1.353  1.00  0.00     0.180 C 
HETATM   34  C34 UNL     1      -1.984  -0.147  -2.682  1.00  0.00     0.009 C 
HETATM   35  C35 UNL     1      -2.905   0.511  -3.714  1.00  0.00     0.012 C 
HETATM   36  C36 UNL     1      -0.573  -0.251  -3.284  1.00  0.00     0.012 C 
HETATM   37  C37 UNL     1      -0.847  -1.152   0.056  1.00  0.00     0.241 C 
HETATM   38  C38 UNL     1       0.083  -1.378   1.293  1.00  0.00     0.184 C 
HETATM   39  C39 UNL     1       1.241  -0.360   1.514  1.00  0.00     0.010 C 
HETATM   40  C40 UNL     1       1.963  -0.598   2.845  1.00  0.00     0.012 C 
HETATM   41  C41 UNL     1       2.269  -0.265   0.389  1.00  0.00     0.012 C 
HETATM   42  C42 UNL     1       0.020  -3.500   2.623  1.00  0.00     0.156 C 
HETATM   43  C43 UNL     1       1.160  -3.516   0.466  1.00  0.00     0.363 C 
HETATM   44  C44 UNL     1       1.946  -3.509  -1.771  1.00  0.00     0.219 C 
HETATM   45  C45 UNL     1       3.349  -3.004  -1.979  1.00  0.00    -0.034 A 
HETATM   46  C46 UNL     1       4.421  -3.596  -1.304  1.00  0.00     0.011 A 
HETATM   47  C47 UNL     1       5.719  -3.105  -1.471  1.00  0.00     0.030 A 
HETATM   48  C48 UNL     1       5.968  -2.008  -2.305  1.00  0.00     0.034 A 
HETATM   49  C49 UNL     1       4.898  -1.412  -2.971  1.00  0.00     0.030 A 
HETATM   50  C50 UNL     1       3.598  -1.903  -2.808  1.00  0.00     0.011 A 
HETATM   51  C51 UNL     1       7.807  -0.508  -3.119  1.00  0.00     0.245 C 
HETATM   52  C52 UNL     1       9.346  -0.349  -3.030  1.00  0.00     0.177 C 
HETATM   53  C53 UNL     1      10.070  -1.438  -3.838  1.00  0.00     0.036 C 
HETATM   54  C54 UNL     1      11.523  -1.048  -4.147  1.00  0.00     0.022 C 
HETATM   55  C55 UNL     1      12.377  -2.245  -4.548  1.00  0.00     0.124 C 
HETATM   56  C56 UNL     1      13.159  -4.361  -3.622  1.00  0.00     0.313 C 
HETATM   57  C57 UNL     1       9.975  -1.249  -0.759  1.00  0.00     0.241 C 
HETATM   58  C58 UNL     1      10.777  -0.911   0.519  1.00  0.00     0.180 C 
HETATM   59  C59 UNL     1       9.896  -0.181   1.562  1.00  0.00     0.009 C 
HETATM   60  C60 UNL     1       8.569  -0.907   1.820  1.00  0.00     0.012 C 
HETATM   61  C61 UNL     1      10.637  -0.039   2.898  1.00  0.00     0.012 C 
HETATM   62  C62 UNL     1      13.016  -0.644  -0.502  1.00  0.00     0.218 C 
HETATM   63  C63 UNL     1      14.201   0.283  -0.669  1.00  0.00     0.112 C 
HETATM   64  C64 UNL     1      15.008   0.398   0.621  1.00  0.00     0.112 C 
HETATM   65  C65 UNL     1      14.384   1.368   1.612  1.00  0.00     0.220 C 
HETATM   66  C66 UNL     1      16.432   1.153   3.048  1.00  0.00     0.126 C 
HETATM   67  C67 UNL     1      16.733   0.860   4.517  1.00  0.00     0.035 C 
HETATM   68  C68 UNL     1      16.256   1.974   5.453  1.00  0.00     0.087 C 
HETATM   69  C69 UNL     1      14.781   2.278   5.186  1.00  0.00     0.035 C 
HETATM   70  C70 UNL     1      14.520   2.588   3.717  1.00  0.00     0.126 C 
HETATM   71  C71 UNL     1      17.119   3.213   5.327  1.00  0.00     0.143 C 
HETATM   72  O1  UNL     1      -8.704   2.443  -2.542  1.00  0.00    -0.273 OA
HETATM   73  O2  UNL     1     -12.249  -2.102   0.375  1.00  0.00    -0.273 OA
HETATM   74  O3  UNL     1     -15.814   1.706   0.335  1.00  0.00    -0.270 OA
HETATM   75  O4  UNL     1     -14.791   4.495  -0.623  1.00  0.00    -0.205 OA
HETATM   76  O5  UNL     1     -14.681   4.440   1.912  1.00  0.00    -0.205 OA
HETATM   77  O6  UNL     1     -11.151   1.212  -1.751  1.00  0.00    -0.388 OA
HETATM   78  O7  UNL     1      -7.400   2.575   0.353  1.00  0.00    -0.388 OA
HETATM   79  O8  UNL     1      -3.380   2.424  -0.621  1.00  0.00    -0.271 OA
HETATM   80  O9  UNL     1      -1.416  -2.083  -0.514  1.00  0.00    -0.271 OA
HETATM   81  O10 UNL     1       1.527  -4.677   0.616  1.00  0.00    -0.238 OA
HETATM   82  O11 UNL     1       1.359  -2.806  -0.671  1.00  0.00    -0.299 OA
HETATM   83  O12 UNL     1       7.158   0.247  -3.843  1.00  0.00    -0.271 OA
HETATM   84  O13 UNL     1      13.407  -4.874  -4.703  1.00  0.00    -0.248 OA
HETATM   85  O14 UNL     1       9.361  -2.307  -0.890  1.00  0.00    -0.271 OA
HETATM   86  O15 UNL     1      13.028  -1.798  -0.923  1.00  0.00    -0.274 OA
HETATM   87  O16 UNL     1      13.318   1.931   1.348  1.00  0.00    -0.273 OA
HETATM   88  O17 UNL     1      18.095   3.355   4.610  1.00  0.00    -0.650 OA
HETATM   89  O18 UNL     1      16.726   4.206   6.146  1.00  0.00    -0.776 OA
HETATM   90  N1  UNL     1      -8.095   0.250  -2.336  1.00  0.00    -0.345 N 
HETATM   91  N2  UNL     1     -12.573   0.171   0.311  1.00  0.00    -0.347 N 
HETATM   92  N3  UNL     1     -13.677   2.568   0.579  1.00  0.00    -0.252 N 
HETATM   93  N4  UNL     1      -4.355   0.373  -0.364  1.00  0.00    -0.347 N 
HETATM   94  N5  UNL     1      -1.076   0.160  -0.288  1.00  0.00    -0.346 N 
HETATM   95  N6  UNL     1       0.469  -2.800   1.432  1.00  0.00    -0.319 N 
HETATM   96  N7  UNL     1       7.303  -1.577  -2.409  1.00  0.00    -0.325 N 
HETATM   97  N8  UNL     1      12.608  -3.131  -3.428  1.00  0.00    -0.343 N 
HETATM   98  N9  UNL     1      13.411  -4.995  -2.450  1.00  0.00    -0.352 N 
HETATM   99  N10 UNL     1       9.867  -0.211  -1.663  1.00  0.00    -0.346 N 
HETATM  100  N11 UNL     1      11.928  -0.082   0.127  1.00  0.00    -0.347 N 
HETATM  101  N12 UNL     1      15.037   1.545   2.831  1.00  0.00    -0.352 N 
HETATM  102  S1  UNL     1     -14.113   4.171   0.610  1.00  0.00     0.237 S 
HETATM  103  HA1 UNL     1      17.380   4.922   5.995  1.00  0.00     0.167 HD
HETATM  104  HA2 UNL     1     -12.297   0.912  -0.339  1.00  0.00     0.163 HD
HETATM  105  HA3 UNL     1     -12.765   2.355   0.974  1.00  0.00     0.181 HD
HETATM  106  HA4 UNL     1      -0.734   0.887   0.326  1.00  0.00     0.163 HD
HETATM  107  HA5 UNL     1       7.985  -2.103  -1.859  1.00  0.00     0.169 HD
HETATM  108  HA6 UNL     1      12.848  -2.709  -2.531  1.00  0.00     0.164 HD
HETATM  109  HA7 UNL     1      13.657  -5.969  -2.565  1.00  0.00     0.160 HD
HETATM  110  HA8 UNL     1      12.769  -4.793  -1.696  1.00  0.00     0.160 HD
HETATM  111  HA9 UNL     1      10.529   0.542  -1.509  1.00  0.00     0.163 HD
HETATM  112  HB0 UNL     1      12.090   0.797   0.626  1.00  0.00     0.163 HD
ENDROOT
TORSDOF 41
