REMARK  0 active torsions:
REMARK  status: ('A' for Active; 'I' for Inactive)
REMARK       I    between atoms: C2_2  and  C3_3 
REMARK       I    between atoms: C3_3  and  C5_5 
REMARK       I    between atoms: C5_5  and  C6_6 
REMARK       I    between atoms: C5_5  and  N7_83 
REMARK       I    between atoms: C6_6  and  N1_77 
REMARK       I    between atoms: C7_7  and  C8_8 
REMARK       I    between atoms: C7_7  and  C10_10 
REMARK       I    between atoms: C7_7  and  N1_77 
REMARK       I    between atoms: C8_8  and  C9_9 
REMARK       I    between atoms: C9_9  and  O3_59 
REMARK       I    between atoms: C10_10  and  N2_78 
REMARK       I    between atoms: C11_11  and  C12_12 
REMARK       I    between atoms: C11_11  and  C14_14 
REMARK       I    between atoms: C11_11  and  N2_78 
REMARK       I    between atoms: C12_12  and  C13_13 
REMARK       I    between atoms: C13_13  and  O6_62 
REMARK       I    between atoms: C14_14  and  N3_79 
REMARK       I    between atoms: C15_15  and  C16_16 
REMARK       I    between atoms: C15_15  and  C19_19 
REMARK       I    between atoms: C15_15  and  N3_79 
REMARK       I    between atoms: C19_19  and  N4_80 
REMARK       I    between atoms: C20_20  and  C21_21 
REMARK       I    between atoms: C20_20  and  C25_25 
REMARK       I    between atoms: C20_20  and  N4_80 
REMARK       I    between atoms: C21_21  and  C22_22 
REMARK       I    between atoms: C25_25  and  N5_81 
REMARK       I    between atoms: C26_26  and  C27_27 
REMARK       I    between atoms: C26_26  and  C31_31 
REMARK       I    between atoms: C26_26  and  N5_81 
REMARK       I    between atoms: C27_27  and  C28_28 
REMARK       I    between atoms: C28_28  and  C29_29 
REMARK       I    between atoms: C29_29  and  C30_30 
REMARK       I    between atoms: C30_30  and  N6_82 
REMARK       I    between atoms: C31_31  and  O11_67 
REMARK       I    between atoms: C32_32  and  C33_33 
REMARK       I    between atoms: C32_32  and  N7_83 
REMARK       I    between atoms: C33_33  and  C34_34 
REMARK       I    between atoms: C33_33  and  N11_88 
REMARK       I    between atoms: C34_34  and  C35_35 
REMARK       I    between atoms: C35_35  and  C36_36 
REMARK       I    between atoms: C36_36  and  N8_84 
REMARK       I    between atoms: C37_37  and  N9_86 
REMARK       I    between atoms: C37_37  and  N10_87 
REMARK       I    between atoms: C38_38  and  C39_39 
REMARK       I    between atoms: C38_38  and  N11_88 
REMARK       I    between atoms: C39_39  and  C40_40 
REMARK       I    between atoms: C39_39  and  N12_89 
REMARK       I    between atoms: C40_40  and  C41_41 
REMARK       I    between atoms: C41_41  and  O15_71 
REMARK       I    between atoms: C42_42  and  C43_43 
REMARK       I    between atoms: C42_42  and  N12_89 
REMARK       I    between atoms: C43_43  and  C44_44 
REMARK       I    between atoms: C43_43  and  N13_90 
REMARK       I    between atoms: C44_44  and  C45_45 
REMARK       I    between atoms: C45_45  and  O18_74 
REMARK       I    between atoms: C46_46  and  C47_47 
REMARK       I    between atoms: C46_46  and  N13_90 
REMARK       I    between atoms: C47_47  and  C48_48 
REMARK       I    between atoms: C47_47  and  N14_91 
REMARK       I    between atoms: C48_48  and  C50_50 
REMARK       I    between atoms: C52_52  and  C53_53 
REMARK       I    between atoms: C52_52  and  N14_91 
REMARK       I    between atoms: C53_53  and  C54_54 
REMARK       I    between atoms: C53_53  and  N15_92 
ROOT
HETATM    1  C1  UNL     1      -3.355  -1.152   7.244  1.00  0.00     0.005 C 
HETATM    2  C2  UNL     1      -1.852  -1.217   7.009  1.00  0.00     0.002 C 
HETATM    3  C3  UNL     1      -1.292  -0.176   6.008  1.00  0.00     0.013 C 
HETATM    4  C4  UNL     1      -1.565   1.243   6.532  1.00  0.00     0.012 C 
HETATM    5  C5  UNL     1      -1.810  -0.355   4.555  1.00  0.00     0.180 C 
HETATM    6  C6  UNL     1      -0.941   0.408   3.517  1.00  0.00     0.241 C 
HETATM    7  C7  UNL     1      -0.239   0.412   1.132  1.00  0.00     0.186 C 
HETATM    8  C8  UNL     1       0.001   1.917   1.016  1.00  0.00     0.144 C 
HETATM    9  C9  UNL     1      -0.039   2.347  -0.420  1.00  0.00     0.141 C 
HETATM   10  C10 UNL     1       1.070  -0.404   1.334  1.00  0.00     0.241 C 
HETATM   11  C11 UNL     1       3.290  -0.951   0.356  1.00  0.00     0.186 C 
HETATM   12  C12 UNL     1       3.134  -2.429   0.006  1.00  0.00     0.144 C 
HETATM   13  C13 UNL     1       2.727  -2.628  -1.426  1.00  0.00     0.141 C 
HETATM   14  C14 UNL     1       4.272  -0.248  -0.607  1.00  0.00     0.241 C 
HETATM   15  C15 UNL     1       6.703   0.012  -1.147  1.00  0.00     0.180 C 
HETATM   16  C16 UNL     1       6.533   0.280  -2.668  1.00  0.00     0.009 C 
HETATM   17  C17 UNL     1       7.830   0.736  -3.350  1.00  0.00     0.012 C 
HETATM   18  C18 UNL     1       6.045  -0.978  -3.406  1.00  0.00     0.012 C 
HETATM   19  C19 UNL     1       7.006   1.249  -0.247  1.00  0.00     0.241 C 
HETATM   20  C20 UNL     1       8.679   2.958   0.404  1.00  0.00     0.177 C 
HETATM   21  C21 UNL     1       9.291   2.440   1.718  1.00  0.00     0.038 C 
HETATM   22  C22 UNL     1      10.579   1.592   1.601  1.00  0.00    -0.020 C 
HETATM   23  C23 UNL     1      11.286   1.558   2.962  1.00  0.00     0.009 C 
HETATM   24  C24 UNL     1      10.314   0.155   1.148  1.00  0.00     0.009 C 
HETATM   25  C25 UNL     1       9.620   3.921  -0.354  1.00  0.00     0.241 C 
HETATM   26  C26 UNL     1       9.942   5.079  -2.541  1.00  0.00     0.182 C 
HETATM   27  C27 UNL     1      11.262   4.493  -3.060  1.00  0.00     0.036 C 
HETATM   28  C28 UNL     1      12.153   5.541  -3.736  1.00  0.00     0.004 C 
HETATM   29  C29 UNL     1      13.494   4.975  -4.216  1.00  0.00     0.030 C 
HETATM   30  C30 UNL     1      14.443   4.616  -3.071  1.00  0.00     0.267 C 
HETATM   31  C31 UNL     1       8.978   5.383  -3.686  1.00  0.00     0.163 C 
HETATM   32  C32 UNL     1      -2.973  -2.401   3.730  1.00  0.00     0.241 C 
HETATM   33  C33 UNL     1      -2.859  -3.922   3.435  1.00  0.00     0.176 C 
HETATM   34  C34 UNL     1      -1.640  -4.442   2.670  1.00  0.00     0.036 C 
HETATM   35  C35 UNL     1      -1.152  -3.732   1.403  1.00  0.00     0.022 C 
HETATM   36  C36 UNL     1      -2.214  -3.292   0.403  1.00  0.00     0.121 C 
HETATM   37  C37 UNL     1      -3.712  -1.481   0.214  1.00  0.00     0.121 C 
HETATM   38  C38 UNL     1      -5.159  -4.764   3.546  1.00  0.00     0.241 C 
HETATM   39  C39 UNL     1      -6.548  -4.382   3.013  1.00  0.00     0.186 C 
HETATM   40  C40 UNL     1      -7.024  -5.399   1.976  1.00  0.00     0.144 C 
HETATM   41  C41 UNL     1      -6.371  -5.288   0.626  1.00  0.00     0.141 C 
HETATM   42  C42 UNL     1      -7.649  -2.321   2.159  1.00  0.00     0.241 C 
HETATM   43  C43 UNL     1      -7.457  -0.812   1.918  1.00  0.00     0.186 C 
HETATM   44  C44 UNL     1      -7.577  -0.046   3.229  1.00  0.00     0.144 C 
HETATM   45  C45 UNL     1      -8.922  -0.261   3.861  1.00  0.00     0.141 C 
HETATM   46  C46 UNL     1      -8.152  -0.522  -0.435  1.00  0.00     0.241 C 
HETATM   47  C47 UNL     1      -9.362  -0.260  -1.363  1.00  0.00     0.180 C 
HETATM   48  C48 UNL     1     -10.446  -1.364  -1.261  1.00  0.00     0.013 C 
HETATM   49  C49 UNL     1     -11.803  -0.781  -1.687  1.00  0.00     0.012 C 
HETATM   50  C50 UNL     1     -10.189  -2.651  -2.077  1.00  0.00     0.002 C 
HETATM   51  C51 UNL     1      -8.939  -3.423  -1.688  1.00  0.00     0.005 C 
HETATM   52  C52 UNL     1      -8.543   1.180  -3.212  1.00  0.00     0.251 C 
HETATM   53  C53 UNL     1      -7.702   1.102  -4.525  1.00  0.00     0.312 C 
HETATM   54  C54 UNL     1      -7.809   2.402  -5.366  1.00  0.00     0.020 C 
HETATM   55  C55 UNL     1      -6.998   3.543  -4.729  1.00  0.00     0.012 C 
HETATM   56  C56 UNL     1      -7.319   2.232  -6.811  1.00  0.00     0.012 C 
HETATM   57  O1  UNL     1      -0.171   1.318   3.811  1.00  0.00    -0.271 OA
HETATM   58  O2  UNL     1      -0.805   3.158  -0.911  1.00  0.00    -0.650 OA
HETATM   59  O3  UNL     1       0.907   1.754  -1.171  1.00  0.00    -0.776 OA
HETATM   60  O4  UNL     1       1.235  -1.204   2.258  1.00  0.00    -0.271 OA
HETATM   61  O5  UNL     1       1.773  -2.129  -1.996  1.00  0.00    -0.650 OA
HETATM   62  O6  UNL     1       3.537  -3.486  -2.077  1.00  0.00    -0.776 OA
HETATM   63  O7  UNL     1       3.904   0.610  -1.407  1.00  0.00    -0.271 OA
HETATM   64  O8  UNL     1       6.268   1.593   0.678  1.00  0.00    -0.271 OA
HETATM   65  O9  UNL     1      10.536   4.540   0.175  1.00  0.00    -0.271 OA
HETATM   66  O10 UNL     1       8.121   4.624  -4.117  1.00  0.00    -0.648 OA
HETATM   67  O11 UNL     1       9.140   6.609  -4.217  1.00  0.00    -0.775 OA
HETATM   68  O12 UNL     1      -4.061  -1.816   3.670  1.00  0.00    -0.271 OA
HETATM   69  O13 UNL     1      -5.006  -5.482   4.531  1.00  0.00    -0.271 OA
HETATM   70  O14 UNL     1      -5.532  -4.486   0.250  1.00  0.00    -0.650 OA
HETATM   71  O15 UNL     1      -6.827  -6.236  -0.219  1.00  0.00    -0.776 OA
HETATM   72  O16 UNL     1      -8.731  -2.885   2.009  1.00  0.00    -0.271 OA
HETATM   73  O17 UNL     1     -10.003  -0.100   3.317  1.00  0.00    -0.650 OA
HETATM   74  O18 UNL     1      -8.844  -0.655   5.143  1.00  0.00    -0.776 OA
HETATM   75  O19 UNL     1      -7.041  -0.852  -0.853  1.00  0.00    -0.271 OA
HETATM   76  O20 UNL     1      -8.834   2.222  -2.635  1.00  0.00    -0.271 OA
HETATM   77  N1  UNL     1      -1.180   0.054   2.200  1.00  0.00    -0.345 N 
HETATM   78  N2  UNL     1       2.025  -0.228   0.366  1.00  0.00    -0.345 N 
HETATM   79  N3  UNL     1       5.579  -0.701  -0.512  1.00  0.00    -0.346 N 
HETATM   80  N4  UNL     1       8.200   1.894  -0.481  1.00  0.00    -0.346 N 
HETATM   81  N5  UNL     1       9.262   4.116  -1.671  1.00  0.00    -0.345 N 
HETATM   82  N6  UNL     1      15.725   4.170  -3.606  1.00  0.00     0.078 N 
HETATM   83  N7  UNL     1      -1.829  -1.775   4.165  1.00  0.00    -0.346 N 
HETATM   84  N8  UNL     1      -2.703  -1.983   0.824  1.00  0.00    -0.372 N 
ATOM     85  H8  UNL     1      -2.252  -1.479   1.587  1.00  0.00     0.161 HD
HETATM   86  N9  UNL     1      -4.104  -0.222   0.501  1.00  0.00    -0.279 NA
HETATM   87  N10 UNL     1      -4.505  -2.021  -0.734  1.00  0.00    -0.279 NA
HETATM   88  N11 UNL     1      -4.108  -4.303   2.778  1.00  0.00    -0.346 N 
HETATM   89  N12 UNL     1      -6.523  -2.979   2.591  1.00  0.00    -0.345 N 
HETATM   90  N13 UNL     1      -8.417  -0.367   0.911  1.00  0.00    -0.345 N 
HETATM   91  N14 UNL     1      -8.890  -0.065  -2.726  1.00  0.00    -0.346 N 
HETATM   92  N15 UNL     1      -8.125  -0.117  -5.266  1.00  0.00     0.092 N 
HETATM   93  H75 UNL     1       0.825   2.160  -2.061  1.00  0.00     0.167 HD
HETATM   94  H76 UNL     1       3.157  -3.527  -2.981  1.00  0.00     0.167 HD
HETATM   95  H77 UNL     1       8.455   6.671  -4.917  1.00  0.00     0.167 HD
HETATM   96  H78 UNL     1      -6.367  -6.067  -1.067  1.00  0.00     0.167 HD
HETATM   97  H79 UNL     1      -9.776  -0.771   5.425  1.00  0.00     0.167 HD
HETATM   98  H80 UNL     1      -1.693  -0.818   2.048  1.00  0.00     0.163 HD
HETATM   99  H81 UNL     1       1.851   0.403  -0.421  1.00  0.00     0.163 HD
HETATM  100  H82 UNL     1       5.810  -1.117   0.383  1.00  0.00     0.163 HD
HETATM  101  H83 UNL     1       8.882   1.471  -1.096  1.00  0.00     0.163 HD
HETATM  102  H84 UNL     1       8.382   3.720  -1.993  1.00  0.00     0.163 HD
HETATM  103  H85 UNL     1      15.593   3.325  -4.159  1.00  0.00     0.312 HD
HETATM  104  H86 UNL     1      16.341   3.915  -2.835  1.00  0.00     0.312 HD
HETATM  105  H87 UNL     1      -0.928  -2.226   4.044  1.00  0.00     0.163 HD
HETATM  106  H88 UNL     1      -3.404   0.297   1.020  1.00  0.00     0.126 HD
HETATM  107  H89 UNL     1      -4.437   0.293  -0.306  1.00  0.00     0.126 HD
HETATM  108  H90 UNL     1      -4.632  -3.028  -0.635  1.00  0.00     0.126 HD
HETATM  109  H91 UNL     1      -5.437  -1.595  -0.770  1.00  0.00     0.126 HD
HETATM  110  H92 UNL     1      -4.376  -3.701   2.000  1.00  0.00     0.163 HD
HETATM  111  H93 UNL     1      -5.741  -2.407   2.927  1.00  0.00     0.163 HD
HETATM  112  H94 UNL     1      -9.393  -0.365   1.204  1.00  0.00     0.163 HD
HETATM  113  H95 UNL     1      -8.414  -0.831  -3.197  1.00  0.00     0.163 HD
HETATM  114  H96 UNL     1      -7.534  -0.231  -6.088  1.00  0.00     0.313 HD
HETATM  115  H97 UNL     1      -9.072   0.038  -5.616  1.00  0.00     0.313 HD
ENDROOT
TORSDOF 52
