REMARK  30 active torsions:
REMARK  status: ('A' for Active; 'I' for Inactive)
REMARK    1  A    between atoms: C4_4  and  C5_5 
REMARK       I    between atoms: C5_5  and  N3_74 
REMARK    2  A    between atoms: C6_6  and  N3_74 
REMARK    3  A    between atoms: C8_8  and  C10_10 
REMARK       I    between atoms: C10_10  and  N5_76 
REMARK    4  A    between atoms: C11_11  and  N5_76 
REMARK    5  A    between atoms: C13_13  and  C15_15 
REMARK       I    between atoms: C15_15  and  N7_78 
REMARK    6  A    between atoms: C16_16  and  N7_78 
REMARK    7  A    between atoms: C18_18  and  C20_20 
REMARK       I    between atoms: C20_20  and  N9_80 
REMARK    8  A    between atoms: C21_21  and  N9_80 
REMARK    9  A    between atoms: C23_23  and  C25_25 
REMARK       I    between atoms: C25_25  and  N11_82 
REMARK   10  A    between atoms: C26_26  and  C27_27 
REMARK   11  A    between atoms: C26_26  and  N11_82 
REMARK   12  A    between atoms: C27_27  and  C28_28 
REMARK   13  A    between atoms: C28_28  and  C29_29 
REMARK       I    between atoms: C29_29  and  N12_83 
REMARK   14  A    between atoms: C30_30  and  N12_83 
REMARK   15  A    between atoms: C32_32  and  C33_33 
REMARK       I    between atoms: C33_33  and  N15_87 
REMARK   16  A    between atoms: C34_34  and  N15_87 
REMARK   17  A    between atoms: C36_36  and  C38_38 
REMARK       I    between atoms: C38_38  and  N17_89 
REMARK   18  A    between atoms: C39_39  and  N17_89 
REMARK   19  A    between atoms: C41_41  and  C43_43 
REMARK       I    between atoms: C43_43  and  N19_91 
REMARK   20  A    between atoms: C44_44  and  N19_91 
REMARK   21  A    between atoms: C46_46  and  C48_48 
REMARK       I    between atoms: C48_48  and  N21_93 
REMARK   22  A    between atoms: C49_49  and  N21_93 
REMARK   23  A    between atoms: C51_51  and  C53_53 
REMARK       I    between atoms: C53_53  and  N23_95 
REMARK   24  A    between atoms: C54_54  and  C55_55 
REMARK   25  A    between atoms: C54_54  and  N23_95 
REMARK   26  A    between atoms: C55_55  and  C56_56 
REMARK       I    between atoms: C56_56  and  N24_96 
REMARK   27  A    between atoms: C57_57  and  C58_58 
REMARK   28  A    between atoms: C57_57  and  N24_96 
REMARK   29  A    between atoms: C58_58  and  C59_59 
REMARK   30  A    between atoms: C59_59  and  N25_97 
ROOT
HETATM    1  C30 UNL     1      -1.325  -2.922  -1.347  1.00  0.00     0.125 A 
HETATM    2  C31 UNL     1      -1.420  -3.989  -2.208  1.00  0.00     0.140 A 
HETATM    3  C32 UNL     1       0.634  -3.157  -2.193  1.00  0.00     0.178 A 
HETATM    4  C66 UNL     1       0.234  -5.118  -3.711  1.00  0.00     0.157 C 
HETATM    5  N13 UNL     1      -0.167  -4.128  -2.742  1.00  0.00    -0.339 N 
HETATM    6  N14 UNL     1      -0.062  -2.418  -1.341  1.00  0.00    -0.323 N 
ATOM      7  H14 UNL     1       0.281  -1.630  -0.791  1.00  0.00     0.169 HD
ENDROOT
BRANCH   1   8
HETATM    8  N12 UNL     1      -2.358  -2.431  -0.593  1.00  0.00    -0.312 N 
HETATM    9  C29 UNL     1      -2.269  -1.329   0.229  1.00  0.00     0.223 C 
HETATM   10  O6  UNL     1      -1.288  -0.609   0.402  1.00  0.00    -0.273 OA
HETATM   11  H77 UNL     1      -3.258  -2.898  -0.707  1.00  0.00     0.170 HD
BRANCH   9  12
HETATM   12  C28 UNL     1      -3.575  -1.011   0.935  1.00  0.00     0.105 C 
BRANCH  12  13
HETATM   13  C27 UNL     1      -4.402   0.021   0.170  1.00  0.00     0.029 C 
BRANCH  13  14
HETATM   14  C26 UNL     1      -5.053  -0.491  -1.115  1.00  0.00     0.123 C 
BRANCH  14  15
HETATM   15  N11 UNL     1      -6.146  -1.409  -0.861  1.00  0.00    -0.356 N 
HETATM   16  C25 UNL     1      -6.001  -2.777  -0.839  1.00  0.00     0.268 C 
HETATM   17  O5  UNL     1      -4.899  -3.302  -0.995  1.00  0.00    -0.266 OA
HETATM   18  H76 UNL     1      -7.047  -1.012  -0.637  1.00  0.00     0.162 HD
BRANCH  16  19
HETATM   19  C23 UNL     1      -7.220  -3.528  -0.588  1.00  0.00     0.104 A 
HETATM   20  C24 UNL     1      -8.547  -3.107  -0.594  1.00  0.00     0.066 A 
HETATM   21  C21 UNL     1      -9.385  -4.210  -0.293  1.00  0.00     0.053 A 
HETATM   22  C22 UNL     1      -8.558  -5.289  -0.110  1.00  0.00     0.120 A 
HETATM   23  N10 UNL     1      -7.262  -4.881  -0.298  1.00  0.00    -0.354 N 
HETATM   24  C67 UNL     1      -6.120  -5.765  -0.183  1.00  0.00     0.156 C 
BRANCH  21  25
HETATM   25  N9  UNL     1     -10.764  -4.158  -0.211  1.00  0.00    -0.320 N 
HETATM   26  C20 UNL     1     -11.606  -5.222   0.064  1.00  0.00     0.273 C 
HETATM   27  O4  UNL     1     -11.226  -6.374   0.255  1.00  0.00    -0.266 OA
HETATM   28  H75 UNL     1     -11.180  -3.258  -0.394  1.00  0.00     0.169 HD
BRANCH  26  29
HETATM   29  C18 UNL     1     -13.025  -4.864   0.099  1.00  0.00     0.105 A 
HETATM   30  C19 UNL     1     -13.635  -3.612   0.077  1.00  0.00     0.066 A 
HETATM   31  C16 UNL     1     -15.038  -3.779   0.128  1.00  0.00     0.053 A 
HETATM   32  C17 UNL     1     -15.273  -5.130   0.190  1.00  0.00     0.120 A 
HETATM   33  N8  UNL     1     -14.063  -5.779   0.180  1.00  0.00    -0.354 N 
HETATM   34  C68 UNL     1     -13.924  -7.221   0.232  1.00  0.00     0.156 C 
BRANCH  31  35
HETATM   35  N7  UNL     1     -16.053  -2.842   0.123  1.00  0.00    -0.320 N 
HETATM   36  C15 UNL     1     -15.881  -1.471   0.069  1.00  0.00     0.273 C 
HETATM   37  O3  UNL     1     -14.783  -0.920   0.031  1.00  0.00    -0.266 OA
HETATM   38  H74 UNL     1     -16.991  -3.210   0.181  1.00  0.00     0.169 HD
BRANCH  36  39
HETATM   39  C13 UNL     1     -17.129  -0.708   0.069  1.00  0.00     0.105 A 
HETATM   40  C14 UNL     1     -18.446  -1.146  -0.051  1.00  0.00     0.066 A 
HETATM   41  C11 UNL     1     -19.312  -0.030   0.005  1.00  0.00     0.053 A 
HETATM   42  C12 UNL     1     -18.517   1.080   0.152  1.00  0.00     0.120 A 
HETATM   43  N6  UNL     1     -17.207   0.671   0.185  1.00  0.00    -0.354 N 
HETATM   44  C69 UNL     1     -16.086   1.576   0.336  1.00  0.00     0.156 C 
BRANCH  41  45
HETATM   45  N5  UNL     1     -20.690   0.040  -0.065  1.00  0.00    -0.320 N 
HETATM   46  C10 UNL     1     -21.542  -1.039  -0.218  1.00  0.00     0.273 C 
HETATM   47  O2  UNL     1     -21.159  -2.202  -0.320  1.00  0.00    -0.266 OA
HETATM   48  H73 UNL     1     -21.087   0.966  -0.012  1.00  0.00     0.169 HD
BRANCH  46  49
HETATM   49  C8  UNL     1     -22.961  -0.685  -0.256  1.00  0.00     0.105 A 
HETATM   50  C9  UNL     1     -23.587   0.539  -0.030  1.00  0.00     0.066 A 
HETATM   51  C6  UNL     1     -24.983   0.379  -0.183  1.00  0.00     0.053 A 
HETATM   52  C7  UNL     1     -25.200  -0.940  -0.495  1.00  0.00     0.120 A 
HETATM   53  N4  UNL     1     -23.985  -1.578  -0.535  1.00  0.00    -0.354 N 
HETATM   54  C70 UNL     1     -23.828  -2.986  -0.838  1.00  0.00     0.156 C 
BRANCH  51  55
HETATM   55  N3  UNL     1     -26.002   1.297  -0.062  1.00  0.00    -0.319 N 
HETATM   56  C5  UNL     1     -25.861   2.637   0.244  1.00  0.00     0.290 C 
HETATM   57  O1  UNL     1     -24.794   3.210   0.450  1.00  0.00    -0.264 OA
HETATM   58  H72 UNL     1     -26.957   0.981  -0.207  1.00  0.00     0.169 HD
BRANCH  56  59
HETATM   59  C4  UNL     1     -27.153   3.311   0.293  1.00  0.00     0.176 A 
HETATM   60  N1  UNL     1     -27.384   4.638   0.571  1.00  0.00    -0.342 N 
HETATM   61  C1  UNL     1     -26.386   5.635   0.873  1.00  0.00     0.157 C 
HETATM   62  C2  UNL     1     -28.734   4.854   0.514  1.00  0.00     0.109 A 
HETATM   63  C3  UNL     1     -29.279   3.633   0.199  1.00  0.00     0.107 A 
HETATM   64  N2  UNL     1     -28.301   2.684   0.064  1.00  0.00    -0.346 N 
ATOM     65  H2  UNL     1     -28.428   1.698  -0.165  1.00  0.00     0.167 HD
ENDBRANCH  56  59
ENDBRANCH  51  55
ENDBRANCH  46  49
ENDBRANCH  41  45
ENDBRANCH  36  39
ENDBRANCH  31  35
ENDBRANCH  26  29
ENDBRANCH  21  25
ENDBRANCH  16  19
ENDBRANCH  14  15
ENDBRANCH  13  14
ENDBRANCH  12  13
ENDBRANCH   9  12
ENDBRANCH   1   8
BRANCH   3  66
HETATM   66  C33 UNL     1       2.045  -2.910  -2.457  1.00  0.00     0.290 C 
HETATM   67  N15 UNL     1       2.501  -1.840  -1.711  1.00  0.00    -0.319 N 
HETATM   68  H78 UNL     1       1.798  -1.409  -1.111  1.00  0.00     0.169 HD
HETATM   69  O7  UNL     1       2.708  -3.580  -3.243  1.00  0.00    -0.264 OA
BRANCH  67  70
HETATM   70  C34 UNL     1       3.775  -1.317  -1.703  1.00  0.00     0.053 A 
HETATM   71  C35 UNL     1       4.868  -1.728  -2.420  1.00  0.00     0.120 A 
HETATM   72  N16 UNL     1       5.928  -0.922  -2.092  1.00  0.00    -0.354 N 
HETATM   73  C36 UNL     1       5.540   0.035  -1.169  1.00  0.00     0.105 A 
HETATM   74  C65 UNL     1       7.251  -1.066  -2.665  1.00  0.00     0.156 C 
HETATM   75  C37 UNL     1       4.194  -0.217  -0.916  1.00  0.00     0.066 A 
BRANCH  73  76
HETATM   76  C38 UNL     1       6.426   1.053  -0.609  1.00  0.00     0.273 C 
HETATM   77  N17 UNL     1       5.766   2.068   0.061  1.00  0.00    -0.320 N 
HETATM   78  H79 UNL     1       4.758   2.068   0.065  1.00  0.00     0.169 HD
HETATM   79  O8  UNL     1       7.647   1.002  -0.746  1.00  0.00    -0.266 OA
BRANCH  77  80
HETATM   80  C39 UNL     1       6.372   3.134   0.697  1.00  0.00     0.053 A 
HETATM   81  C40 UNL     1       5.663   4.136   1.312  1.00  0.00     0.120 A 
HETATM   82  N18 UNL     1       6.556   5.031   1.847  1.00  0.00    -0.354 N 
HETATM   83  C41 UNL     1       7.856   4.631   1.584  1.00  0.00     0.105 A 
HETATM   84  C64 UNL     1       6.162   6.224   2.570  1.00  0.00     0.156 C 
HETATM   85  C42 UNL     1       7.741   3.439   0.872  1.00  0.00     0.066 A 
BRANCH  83  86
HETATM   86  C43 UNL     1       9.051   5.359   2.015  1.00  0.00     0.273 C 
HETATM   87  N19 UNL     1      10.233   4.861   1.493  1.00  0.00    -0.320 N 
HETATM   88  H80 UNL     1      10.177   4.084   0.853  1.00  0.00     0.169 HD
HETATM   89  O9  UNL     1       8.982   6.327   2.767  1.00  0.00    -0.266 OA
BRANCH  87  90
HETATM   90  C44 UNL     1      11.504   5.344   1.744  1.00  0.00     0.053 A 
HETATM   91  C45 UNL     1      11.877   6.392   2.544  1.00  0.00     0.120 A 
HETATM   92  N20 UNL     1      13.242   6.520   2.486  1.00  0.00    -0.354 N 
HETATM   93  C46 UNL     1      13.784   5.540   1.670  1.00  0.00     0.105 A 
HETATM   94  C63 UNL     1      13.982   7.537   3.206  1.00  0.00     0.156 C 
HETATM   95  C47 UNL     1      12.696   4.813   1.190  1.00  0.00     0.066 A 
BRANCH  93  96
HETATM   96  C48 UNL     1      15.213   5.385   1.404  1.00  0.00     0.273 C 
HETATM   97  N21 UNL     1      15.546   4.174   0.820  1.00  0.00    -0.320 N 
HETATM   98  H81 UNL     1      14.814   3.493   0.688  1.00  0.00     0.169 HD
HETATM   99  O10 UNL     1      16.028   6.254   1.700  1.00  0.00    -0.266 OA
BRANCH  97 100
HETATM  100  C49 UNL     1      16.814   3.773   0.446  1.00  0.00     0.053 A 
HETATM  101  C50 UNL     1      17.990   4.477   0.521  1.00  0.00     0.120 A 
HETATM  102  N22 UNL     1      19.009   3.681   0.061  1.00  0.00    -0.354 N 
HETATM  103  C51 UNL     1      18.500   2.474  -0.377  1.00  0.00     0.104 A 
HETATM  104  C62 UNL     1      20.403   4.063   0.136  1.00  0.00     0.156 C 
HETATM  105  C52 UNL     1      17.138   2.509  -0.102  1.00  0.00     0.066 A 
BRANCH 103 106
HETATM  106  C53 UNL     1      19.222   1.357  -0.948  1.00  0.00     0.268 C 
HETATM  107  N23 UNL     1      20.238   1.703  -1.811  1.00  0.00    -0.355 N 
HETATM  108  H82 UNL     1      20.189   2.650  -2.165  1.00  0.00     0.162 HD
HETATM  109  O11 UNL     1      18.953   0.189  -0.682  1.00  0.00    -0.266 OA
BRANCH 107 110
HETATM  110  C54 UNL     1      20.946   0.762  -2.668  1.00  0.00     0.132 C 
BRANCH 110 111
HETATM  111  C55 UNL     1      21.372  -0.574  -2.072  1.00  0.00     0.122 C 
BRANCH 111 112
HETATM  112  C56 UNL     1      22.160  -0.414  -0.793  1.00  0.00     0.219 C 
HETATM  113  N24 UNL     1      21.431  -0.646   0.355  1.00  0.00    -0.361 N 
HETATM  114  H83 UNL     1      20.413  -0.637   0.233  1.00  0.00     0.162 HD
HETATM  115  O12 UNL     1      23.353  -0.126  -0.774  1.00  0.00    -0.274 OA
BRANCH 113 116
HETATM  116  C57 UNL     1      21.942  -0.314   1.666  1.00  0.00     0.124 C 
BRANCH 116 117
HETATM  117  C58 UNL     1      22.723  -1.455   2.319  1.00  0.00     0.047 C 
BRANCH 117 118
HETATM  118  C59 UNL     1      24.033  -1.756   1.595  1.00  0.00     0.235 C 
BRANCH 118 119
HETATM  119  N25 UNL     1      24.825  -2.832   2.327  1.00  0.00    -0.079 N 
HETATM  120  C60 UNL     1      25.848  -3.453   1.409  1.00  0.00     0.269 C 
HETATM  121  C61 UNL     1      25.471  -2.345   3.594  1.00  0.00     0.269 C 
HETATM  122  H84 UNL     1      24.167  -3.581   2.577  1.00  0.00     0.278 HD
ENDBRANCH 118 119
ENDBRANCH 117 118
ENDBRANCH 116 117
ENDBRANCH 113 116
ENDBRANCH 111 112
ENDBRANCH 110 111
ENDBRANCH 107 110
ENDBRANCH 103 106
ENDBRANCH  97 100
ENDBRANCH  93  96
ENDBRANCH  87  90
ENDBRANCH  83  86
ENDBRANCH  77  80
ENDBRANCH  73  76
ENDBRANCH  67  70
ENDBRANCH   3  66
TORSDOF 30
