REMARK  14 active torsions:
REMARK  status: ('A' for Active; 'I' for Inactive)
REMARK    1  A    between atoms: C4_4  and  O1_63 
REMARK    2  A    between atoms: C5_5  and  O1_63 
REMARK    3  A    between atoms: C7_7  and  O6_68 
REMARK    4  A    between atoms: C8_8  and  N2_42 
REMARK    5  A    between atoms: C10_10  and  C11_11 
REMARK    6  A    between atoms: C12_12  and  C13_13 
REMARK       I    between atoms: C12_12  and  N2_42 
REMARK    7  A    between atoms: C15_15  and  C17_17 
REMARK       I    between atoms: C17_17  and  N5_47 
REMARK    8  A    between atoms: C18_18  and  N5_47 
REMARK    9  A    between atoms: C19_19  and  O5_67 
REMARK   10  A    between atoms: C21_21  and  O4_66 
REMARK   11  A    between atoms: C22_22  and  C24_24 
REMARK   12  A    between atoms: C25_25  and  O4_66 
REMARK       I    between atoms: C29_29  and  N6_48 
REMARK       I    between atoms: C29_29  and  N7_49 
REMARK       I    between atoms: C29_29  and  N8_51 
REMARK   13  A    between atoms: C30_30  and  O5_67 
REMARK       I    between atoms: C34_34  and  N9_52 
REMARK       I    between atoms: C34_34  and  N10_53 
REMARK       I    between atoms: C34_34  and  N11_55 
REMARK   14  A    between atoms: C35_35  and  O6_68 
REMARK       I    between atoms: C39_39  and  N12_56 
REMARK       I    between atoms: C39_39  and  N13_57 
REMARK       I    between atoms: C39_39  and  N14_59 
REMARK       I    between atoms: C40_40  and  N1_41 
REMARK       I    between atoms: C40_40  and  N16_62 
ROOT
HETATM    1  C13 UNL     1      -1.656   1.421   0.465  1.00  0.00     0.104 A 
HETATM    2  C14 UNL     1      -0.589   2.229   0.769  1.00  0.00     0.070 A 
HETATM    3  C15 UNL     1       0.611   1.800   0.255  1.00  0.00     0.104 A 
HETATM    4  C16 UNL     1      -0.349  -0.024  -0.728  1.00  0.00     0.181 A 
HETATM    5  N3  UNL     1       0.765   0.680  -0.498  1.00  0.00    -0.348 N 
ATOM      6  H3  UNL     1       1.673   0.394  -0.865  1.00  0.00     0.167 HD
HETATM    7  N4  UNL     1      -1.569   0.285  -0.275  1.00  0.00    -0.348 N 
ATOM      8  H4  UNL     1      -2.384  -0.296  -0.473  1.00  0.00     0.167 HD
ENDROOT
BRANCH   1   9
HETATM    9  C12 UNL     1      -3.034   1.786   0.932  1.00  0.00     0.272 C 
HETATM   10  N2  UNL     1      -3.979   0.838   0.600  1.00  0.00    -0.319 N 
HETATM   11  H35 UNL     1      -3.611   0.003   0.144  1.00  0.00     0.169 HD
HETATM   12  O2  UNL     1      -3.224   2.839   1.526  1.00  0.00    -0.266 OA
BRANCH  10  13
HETATM   13  C8  UNL     1      -5.369   0.866   0.799  1.00  0.00     0.069 A 
HETATM   14  C7  UNL     1      -6.110  -0.223   0.321  1.00  0.00     0.098 A 
HETATM   15  C6  UNL     1      -7.493  -0.298   0.505  1.00  0.00     0.076 A 
HETATM   16  C5  UNL     1      -8.168   0.745   1.143  1.00  0.00     0.087 A 
HETATM   17  C10 UNL     1      -7.445   1.864   1.597  1.00  0.00     0.083 A 
HETATM   18  C9  UNL     1      -6.046   1.911   1.424  1.00  0.00     0.051 A 
BRANCH  14  19
HETATM   19  O6  UNL     1      -5.435  -1.266  -0.264  1.00  0.00    -0.342 OA
BRANCH  19  20
HETATM   20  C35 UNL     1      -5.743  -1.423  -1.663  1.00  0.00     0.148 C 
HETATM   21  C36 UNL     1      -6.033  -2.892  -1.927  1.00  0.00     0.054 C 
HETATM   22  C37 UNL     1      -4.641  -3.522  -1.936  1.00  0.00     0.128 C 
HETATM   23  N12 UNL     1      -3.753  -2.469  -2.431  1.00  0.00    -0.356 N 
HETATM   24  C38 UNL     1      -4.474  -1.196  -2.498  1.00  0.00     0.157 C 
HETATM   25  C39 UNL     1      -2.473  -2.654  -2.836  1.00  0.00     0.146 C 
HETATM   26  N13 UNL     1      -1.716  -1.786  -3.412  1.00  0.00    -0.376 N 
HETATM   27  N14 UNL     1      -1.945  -3.870  -2.598  1.00  0.00    -0.274 NA
HETATM   28  H43 UNL     1      -2.249  -0.929  -3.560  1.00  0.00     0.158 HD
ATOM     29  H13 UNL     1      -0.742  -1.932  -3.677  1.00  0.00     0.158 HD
HETATM   30  H44 UNL     1      -0.959  -3.869  -2.834  1.00  0.00     0.127 HD
HETATM   31  H45 UNL     1      -2.090  -4.196  -1.653  1.00  0.00     0.127 HD
ENDBRANCH  19  20
ENDBRANCH  14  19
BRANCH  16  32
HETATM   32  O1  UNL     1      -9.515   0.782   1.371  1.00  0.00    -0.343 OA
BRANCH  32  33
HETATM   33  C4  UNL     1     -10.302  -0.373   1.105  1.00  0.00     0.148 C 
HETATM   34  C1  UNL     1     -11.774   0.004   1.218  1.00  0.00     0.054 C 
HETATM   35  C2  UNL     1     -12.449  -1.341   1.427  1.00  0.00     0.128 C 
HETATM   36  N1  UNL     1     -11.494  -2.108   2.226  1.00  0.00    -0.356 N 
HETATM   37  C3  UNL     1     -10.181  -1.463   2.181  1.00  0.00     0.157 C 
HETATM   38  C40 UNL     1     -11.693  -3.383   2.651  1.00  0.00     0.146 C 
HETATM   39  N15 UNL     1     -10.836  -4.148   3.230  1.00  0.00    -0.376 N 
HETATM   40  N16 UNL     1     -12.923  -3.895   2.445  1.00  0.00    -0.274 NA
HETATM   41  H46 UNL     1      -9.959  -3.646   3.358  1.00  0.00     0.158 HD
ATOM     42  H15 UNL     1     -11.009  -5.111   3.517  1.00  0.00     0.158 HD
HETATM   43  H47 UNL     1     -12.967  -4.805   2.895  1.00  0.00     0.127 HD
HETATM   44  H48 UNL     1     -13.653  -3.302   2.815  1.00  0.00     0.127 HD
ENDBRANCH  32  33
ENDBRANCH  16  32
BRANCH  17  45
HETATM   45  C11 UNL     1      -8.159   3.007   2.280  1.00  0.00     0.420 C 
HETATM   46  F1  UNL     1      -9.093   3.601   1.484  1.00  0.00    -0.166 F 
HETATM   47  F2  UNL     1      -7.324   4.014   2.667  1.00  0.00    -0.166 F 
HETATM   48  F3  UNL     1      -8.812   2.624   3.413  1.00  0.00    -0.166 F 
ENDBRANCH  17  45
ENDBRANCH  10  13
ENDBRANCH   1   9
BRANCH   3  49
HETATM   49  C17 UNL     1       1.858   2.592   0.512  1.00  0.00     0.272 C 
HETATM   50  N5  UNL     1       2.970   2.066  -0.110  1.00  0.00    -0.319 N 
HETATM   51  H36 UNL     1       2.807   1.221  -0.659  1.00  0.00     0.169 HD
HETATM   52  O3  UNL     1       1.812   3.592   1.217  1.00  0.00    -0.266 OA
BRANCH  50  53
HETATM   53  C18 UNL     1       4.299   2.531  -0.097  1.00  0.00     0.069 A 
HETATM   54  C19 UNL     1       5.243   1.783  -0.828  1.00  0.00     0.098 A 
HETATM   55  C20 UNL     1       6.573   2.197  -0.852  1.00  0.00     0.076 A 
HETATM   56  C21 UNL     1       6.980   3.300  -0.096  1.00  0.00     0.087 A 
HETATM   57  C22 UNL     1       6.053   4.086   0.593  1.00  0.00     0.083 A 
HETATM   58  C23 UNL     1       4.706   3.679   0.592  1.00  0.00     0.051 A 
BRANCH  54  59
HETATM   59  O5  UNL     1       4.754   0.670  -1.469  1.00  0.00    -0.342 OA
BRANCH  59  60
HETATM   60  C30 UNL     1       5.676  -0.222  -2.091  1.00  0.00     0.148 C 
HETATM   61  C31 UNL     1       4.887  -1.293  -2.834  1.00  0.00     0.054 C 
HETATM   62  C32 UNL     1       5.890  -2.429  -2.991  1.00  0.00     0.128 C 
HETATM   63  N9  UNL     1       6.778  -2.310  -1.838  1.00  0.00    -0.356 N 
HETATM   64  C33 UNL     1       6.483  -1.080  -1.105  1.00  0.00     0.157 C 
HETATM   65  C34 UNL     1       7.593  -3.297  -1.388  1.00  0.00     0.146 C 
HETATM   66  N10 UNL     1       7.722  -4.479  -1.877  1.00  0.00    -0.376 N 
HETATM   67  N11 UNL     1       8.364  -2.999  -0.321  1.00  0.00    -0.274 NA
HETATM   68  H40 UNL     1       7.101  -4.590  -2.676  1.00  0.00     0.158 HD
ATOM     69  H10 UNL     1       8.351  -5.197  -1.519  1.00  0.00     0.158 HD
HETATM   70  H41 UNL     1       8.948  -2.185  -0.484  1.00  0.00     0.127 HD
HETATM   71  H42 UNL     1       8.969  -3.800  -0.158  1.00  0.00     0.127 HD
ENDBRANCH  59  60
ENDBRANCH  54  59
BRANCH  56  72
HETATM   72  O4  UNL     1       8.312   3.619  -0.110  1.00  0.00    -0.343 OA
BRANCH  72  73
HETATM   73  C25 UNL     1       9.024   2.969   0.954  1.00  0.00     0.148 C 
HETATM   74  C26 UNL     1      10.434   3.539   1.028  1.00  0.00     0.054 C 
HETATM   75  C27 UNL     1      11.213   2.466   1.779  1.00  0.00     0.128 C 
HETATM   76  N6  UNL     1      10.531   1.209   1.458  1.00  0.00    -0.356 N 
HETATM   77  C28 UNL     1       9.309   1.481   0.713  1.00  0.00     0.157 C 
HETATM   78  C29 UNL     1      11.184   0.017   1.485  1.00  0.00     0.146 C 
HETATM   79  N7  UNL     1      12.434  -0.097   1.761  1.00  0.00    -0.376 N 
HETATM   80  N8  UNL     1      10.418  -1.066   1.218  1.00  0.00    -0.274 NA
HETATM   81  H37 UNL     1      12.722  -1.073   1.703  1.00  0.00     0.158 HD
ATOM     82  H7  UNL     1      13.050   0.679   2.004  1.00  0.00     0.158 HD
HETATM   83  H38 UNL     1       9.519  -1.009   1.684  1.00  0.00     0.127 HD
HETATM   84  H39 UNL     1      10.863  -1.939   1.472  1.00  0.00     0.127 HD
ENDBRANCH  72  73
ENDBRANCH  56  72
BRANCH  57  85
HETATM   85  C24 UNL     1       6.472   5.337   1.319  1.00  0.00     0.420 C 
HETATM   86  F4  UNL     1       7.195   6.192   0.544  1.00  0.00    -0.166 F 
HETATM   87  F5  UNL     1       7.244   5.073   2.411  1.00  0.00    -0.166 F 
HETATM   88  F6  UNL     1       5.423   6.072   1.787  1.00  0.00    -0.166 F 
ENDBRANCH  57  85
ENDBRANCH  50  53
ENDBRANCH   3  49
TORSDOF 14
