REMARK  0 active torsions:
REMARK  status: ('A' for Active; 'I' for Inactive)
REMARK       I    between atoms: C2_2  and  O1_48 
REMARK       I    between atoms: C4_4  and  C5_5 
REMARK       I    between atoms: C4_4  and  O1_48 
REMARK       I    between atoms: C7_7  and  N7_62 
REMARK       I    between atoms: C8_8  and  S1_74 
REMARK       I    between atoms: C9_9  and  N1_55 
REMARK       I    between atoms: C11_11  and  C12_12 
REMARK       I    between atoms: C11_11  and  N1_55 
REMARK       I    between atoms: C12_12  and  C13_13 
REMARK       I    between atoms: C12_12  and  N5_60 
REMARK       I    between atoms: C13_13  and  C14_14 
REMARK       I    between atoms: C14_14  and  C15_15 
REMARK       I    between atoms: C15_15  and  N3_58 
REMARK       I    between atoms: C16_16  and  N3_58 
REMARK       I    between atoms: C16_16  and  N4_59 
REMARK       I    between atoms: C18_18  and  C19_19 
REMARK       I    between atoms: C18_18  and  S1_74 
REMARK       I    between atoms: C19_19  and  N6_61 
REMARK       I    between atoms: C20_20  and  C21_21 
REMARK       I    between atoms: C20_20  and  N7_62 
REMARK       I    between atoms: C23_23  and  C29_29 
REMARK       I    between atoms: C25_25  and  O4_51 
REMARK       I    between atoms: C27_27  and  C28_28 
REMARK       I    between atoms: C27_27  and  O4_51 
REMARK       I    between atoms: C28_28  and  N8_63 
REMARK       I    between atoms: C29_29  and  N9_64 
REMARK       I    between atoms: C30_30  and  N9_64 
REMARK       I    between atoms: C31_31  and  S2_75 
REMARK       I    between atoms: C32_32  and  N10_65 
REMARK       I    between atoms: C34_34  and  C36_36 
REMARK       I    between atoms: C36_36  and  O7_54 
REMARK       I    between atoms: C37_37  and  O7_54 
REMARK       I    between atoms: C40_40  and  C41_41 
REMARK       I    between atoms: C40_40  and  N10_65 
REMARK       I    between atoms: C41_41  and  C42_42 
REMARK       I    between atoms: C41_41  and  N15_72 
REMARK       I    between atoms: C42_42  and  C43_43 
REMARK       I    between atoms: C43_43  and  C44_44 
REMARK       I    between atoms: C44_44  and  N12_68 
REMARK       I    between atoms: C45_45  and  N12_68 
REMARK       I    between atoms: C45_45  and  N14_71 
REMARK       I    between atoms: C46_46  and  C47_47 
REMARK       I    between atoms: C46_46  and  S2_75 
REMARK       I    between atoms: C47_47  and  N16_73 
ROOT
HETATM    1  C1  UNL     1       8.267   4.998   4.086  1.00  0.00     0.040 C 
HETATM    2  C2  UNL     1       8.101   5.405   2.626  1.00  0.00     0.124 C 
HETATM    3  C3  UNL     1       7.544   6.819   2.521  1.00  0.00     0.040 C 
HETATM    4  C4  UNL     1       7.646   3.357   1.516  1.00  0.00     0.293 C 
HETATM    5  C5  UNL     1       6.561   2.562   0.880  1.00  0.00     0.043 A 
HETATM    6  C6  UNL     1       5.207   2.827   1.128  1.00  0.00     0.048 A 
HETATM    7  C7  UNL     1       4.218   2.052   0.522  1.00  0.00     0.055 A 
HETATM    8  C8  UNL     1       4.598   0.983  -0.329  1.00  0.00     0.054 A 
HETATM    9  C9  UNL     1       5.962   0.696  -0.579  1.00  0.00     0.053 A 
HETATM   10  C10 UNL     1       6.926   1.509   0.030  1.00  0.00     0.048 A 
HETATM   11  C11 UNL     1       7.416  -0.470  -2.271  1.00  0.00     0.108 C 
HETATM   12  C12 UNL     1       7.534  -1.759  -3.138  1.00  0.00     0.284 C 
HETATM   13  C13 UNL     1       8.224  -2.863  -2.327  1.00  0.00     0.045 C 
HETATM   14  C14 UNL     1       8.526  -4.112  -3.165  1.00  0.00     0.022 C 
HETATM   15  C15 UNL     1       9.182  -5.223  -2.344  1.00  0.00     0.121 C 
HETATM   16  C16 UNL     1      11.329  -5.532  -1.073  1.00  0.00     0.063 C 
HETATM   17  C17 UNL     1      10.951  -6.611  -0.375  1.00  0.00     0.056 C 
HETATM   18  C18 UNL     1       3.147  -1.343   0.118  1.00  0.00     0.109 C 
HETATM   19  C19 UNL     1       3.384  -2.726  -0.502  1.00  0.00     0.277 C 
HETATM   20  C20 UNL     1       2.213   3.220   1.507  1.00  0.00     0.256 C 
HETATM   21  C21 UNL     1       0.722   3.132   1.555  1.00  0.00     0.035 A 
HETATM   22  C22 UNL     1       0.044   1.924   1.356  1.00  0.00     0.034 A 
HETATM   23  C23 UNL     1      -1.356   1.884   1.392  1.00  0.00     0.035 A 
HETATM   24  C24 UNL     1      -2.069   3.054   1.681  1.00  0.00     0.053 A 
HETATM   25  C25 UNL     1      -1.398   4.260   1.910  1.00  0.00     0.070 A 
HETATM   26  C26 UNL     1      -0.006   4.297   1.839  1.00  0.00     0.053 A 
HETATM   27  C27 UNL     1      -1.640   6.521   2.696  1.00  0.00     0.205 C 
HETATM   28  C28 UNL     1      -1.293   7.495   1.564  1.00  0.00     0.293 C 
HETATM   29  C29 UNL     1      -2.018   0.566   1.158  1.00  0.00     0.256 C 
HETATM   30  C30 UNL     1      -4.193  -0.476   0.435  1.00  0.00     0.055 A 
HETATM   31  C31 UNL     1      -5.505  -0.190  -0.019  1.00  0.00     0.054 A 
HETATM   32  C32 UNL     1      -6.443  -1.232  -0.240  1.00  0.00     0.053 A 
HETATM   33  C33 UNL     1      -6.022  -2.557  -0.063  1.00  0.00     0.048 A 
HETATM   34  C34 UNL     1      -4.726  -2.850   0.382  1.00  0.00     0.043 A 
HETATM   35  C35 UNL     1      -3.823  -1.809   0.635  1.00  0.00     0.048 A 
HETATM   36  C36 UNL     1      -4.260  -4.250   0.588  1.00  0.00     0.293 C 
HETATM   37  C37 UNL     1      -5.010  -6.496   0.759  1.00  0.00     0.124 C 
HETATM   38  C38 UNL     1      -6.129  -7.295   0.103  1.00  0.00     0.040 C 
HETATM   39  C39 UNL     1      -4.938  -6.792   2.252  1.00  0.00     0.040 C 
HETATM   40  C40 UNL     1      -8.758  -1.845  -0.840  1.00  0.00     0.108 C 
HETATM   41  C41 UNL     1      -9.965  -1.864   0.142  1.00  0.00     0.284 C 
HETATM   42  C42 UNL     1     -10.014  -0.824   1.279  1.00  0.00     0.044 C 
HETATM   43  C43 UNL     1     -10.803   0.478   1.055  1.00  0.00     0.017 C 
HETATM   44  C44 UNL     1     -10.032   1.646   0.446  1.00  0.00     0.095 C 
HETATM   45  C45 UNL     1     -10.123   1.122  -1.954  1.00  0.00     0.122 C 
HETATM   46  C46 UNL     1      -5.471   1.750  -2.003  1.00  0.00     0.109 C 
HETATM   47  C47 UNL     1      -4.546   2.965  -2.146  1.00  0.00     0.277 C 
HETATM   48  O1  UNL     1       7.154   4.529   1.987  1.00  0.00    -0.313 OA
HETATM   49  O2  UNL     1       8.807   2.988   1.581  1.00  0.00    -0.259 OA
HETATM   50  O3  UNL     1       2.761   4.115   2.138  1.00  0.00    -0.267 OA
HETATM   51  O4  UNL     1      -2.219   5.321   2.171  1.00  0.00    -0.349 OA
HETATM   52  O5  UNL     1      -1.359  -0.445   1.378  1.00  0.00    -0.267 OA
HETATM   53  O6  UNL     1      -3.092  -4.555   0.767  1.00  0.00    -0.259 OA
HETATM   54  O7  UNL     1      -5.312  -5.102   0.558  1.00  0.00    -0.313 OA
HETATM   55  N1  UNL     1       6.309  -0.351  -1.460  1.00  0.00    -0.343 N 
HETATM   56  N2  UNL     1       8.352   0.423  -2.362  1.00  0.00    -0.387 N 
ATOM     57  H2  UNL     1       8.363   1.301  -1.842  1.00  0.00     0.157 HD
HETATM   58  N3  UNL     1      10.498  -4.807  -1.882  1.00  0.00    -0.382 N 
HETATM   59  N4  UNL     1      12.617  -5.081  -0.995  1.00  0.00    -0.290 NA
HETATM   60  N5  UNL     1       6.209  -2.175  -3.623  1.00  0.00     0.090 N 
HETATM   61  N6  UNL     1       4.768  -2.927  -0.961  1.00  0.00     0.079 N 
HETATM   62  N7  UNL     1       2.833   2.273   0.719  1.00  0.00    -0.322 N 
HETATM   63  N8  UNL     1      -0.713   8.740   2.062  1.00  0.00     0.080 N 
HETATM   64  N9  UNL     1      -3.310   0.609   0.676  1.00  0.00    -0.322 N 
HETATM   65  N10 UNL     1      -7.749  -0.923  -0.720  1.00  0.00    -0.343 N 
HETATM   66  N11 UNL     1      -8.738  -2.734  -1.793  1.00  0.00    -0.387 N 
ATOM     67  H11 UNL     1      -9.440  -3.454  -1.962  1.00  0.00     0.157 HD
HETATM   68  N12 UNL     1      -9.397   1.338  -0.828  1.00  0.00    -0.270 NA
HETATM   69  N13 UNL     1     -11.395   1.012  -2.009  1.00  0.00    -0.381 N 
ATOM     70  H13 UNL     1     -12.018   1.064  -1.203  1.00  0.00     0.158 HD
HETATM   71  N14 UNL     1      -9.318   0.987  -3.026  1.00  0.00    -0.279 NA
HETATM   72  N15 UNL     1     -11.209  -1.955  -0.637  1.00  0.00     0.090 N 
HETATM   73  N16 UNL     1      -3.259   2.779  -1.470  1.00  0.00     0.079 N 
HETATM   74  S1  UNL     1       3.309  -0.013  -1.130  1.00  0.00    -0.124 SA
HETATM   75  S2  UNL     1      -6.018   1.528  -0.268  1.00  0.00    -0.124 SA
HETATM   76  H50 UNL     1       5.564  -1.037  -1.582  1.00  0.00     0.167 HD
HETATM   77  H51 UNL     1       9.078   0.133  -3.023  1.00  0.00     0.157 HD
HETATM   78  H52 UNL     1      11.051  -4.361  -2.610  1.00  0.00     0.160 HD
HETATM   79  H53 UNL     1      13.109  -5.434  -0.180  1.00  0.00     0.125 HD
HETATM   80  H54 UNL     1      12.630  -4.065  -1.006  1.00  0.00     0.125 HD
HETATM   81  H55 UNL     1       5.639  -2.516  -2.843  1.00  0.00     0.313 HD
HETATM   82  H56 UNL     1       5.723  -1.362  -4.003  1.00  0.00     0.313 HD
HETATM   83  H57 UNL     1       5.385  -2.890  -0.143  1.00  0.00     0.312 HD
HETATM   84  H58 UNL     1       4.844  -3.896  -1.288  1.00  0.00     0.312 HD
HETATM   85  H59 UNL     1       2.253   1.663   0.153  1.00  0.00     0.169 HD
HETATM   86  H60 UNL     1      -0.498   9.352   1.275  1.00  0.00     0.312 HD
HETATM   87  H61 UNL     1       0.180   8.548   2.518  1.00  0.00     0.312 HD
HETATM   88  H62 UNL     1      -3.673   1.518   0.384  1.00  0.00     0.169 HD
HETATM   89  H63 UNL     1      -8.061  -0.029  -0.329  1.00  0.00     0.167 HD
HETATM   90  H64 UNL     1      -7.886  -2.576  -2.341  1.00  0.00     0.157 HD
HETATM   91  H65 UNL     1      -8.653   2.004  -1.026  1.00  0.00     0.130 HD
HETATM   92  H66 UNL     1     -11.701   0.865  -2.972  1.00  0.00     0.158 HD
HETATM   93  H67 UNL     1      -9.787   0.606  -3.840  1.00  0.00     0.126 HD
HETATM   94  H68 UNL     1      -8.511   0.409  -2.810  1.00  0.00     0.126 HD
HETATM   95  H69 UNL     1     -11.025  -2.629  -1.388  1.00  0.00     0.313 HD
HETATM   96  H70 UNL     1     -11.356  -1.063  -1.125  1.00  0.00     0.313 HD
HETATM   97  H71 UNL     1      -2.714   3.639  -1.566  1.00  0.00     0.312 HD
HETATM   98  H72 UNL     1      -2.722   2.063  -1.964  1.00  0.00     0.312 HD
ENDROOT
TORSDOF 40
