REMARK  0 active torsions:
REMARK  status: ('A' for Active; 'I' for Inactive)
REMARK       I    between atoms: N1_1  and  C1_16 
REMARK       I    between atoms: N2_2  and  C2_17 
REMARK       I    between atoms: N2_2  and  C3_18 
REMARK       I    between atoms: N3_3  and  C4_19 
REMARK       I    between atoms: N3_3  and  C5_20 
REMARK       I    between atoms: N4_4  and  C6_21 
REMARK       I    between atoms: N4_4  and  C7_22 
REMARK       I    between atoms: N5_5  and  C8_23 
REMARK       I    between atoms: N5_5  and  C9_24 
REMARK       I    between atoms: N6_6  and  C10_25 
REMARK       I    between atoms: N6_6  and  C11_26 
REMARK       I    between atoms: N7_7  and  C12_27 
REMARK       I    between atoms: N7_7  and  C13_28 
REMARK       I    between atoms: N8_8  and  C14_29 
REMARK       I    between atoms: N9_9  and  C19_34 
REMARK       I    between atoms: N10_10  and  C24_39 
REMARK       I    between atoms: N11_11  and  C26_41 
REMARK       I    between atoms: N11_11  and  C27_42 
REMARK       I    between atoms: N12_12  and  C28_43 
REMARK       I    between atoms: N12_12  and  C29_44 
REMARK       I    between atoms: N13_13  and  C30_45 
REMARK       I    between atoms: N13_13  and  C31_46 
REMARK       I    between atoms: N14_14  and  C32_47 
REMARK       I    between atoms: N14_14  and  C33_48 
REMARK       I    between atoms: N15_15  and  C34_49 
REMARK       I    between atoms: N15_15  and  C35_50 
REMARK       I    between atoms: C1_16  and  C2_17 
REMARK       I    between atoms: C2_17  and  C23_38 
REMARK       I    between atoms: C3_18  and  C4_19 
REMARK       I    between atoms: C4_19  and  C22_37 
REMARK       I    between atoms: C5_20  and  C6_21 
REMARK       I    between atoms: C6_21  and  C21_36 
REMARK       I    between atoms: C7_22  and  C8_23 
REMARK       I    between atoms: C9_24  and  C10_25 
REMARK       I    between atoms: C10_25  and  C17_32 
REMARK       I    between atoms: C11_26  and  C12_27 
REMARK       I    between atoms: C12_27  and  C16_31 
REMARK       I    between atoms: C13_28  and  C14_29 
REMARK       I    between atoms: C14_29  and  C15_30 
REMARK       I    between atoms: C15_30  and  S1_77 
REMARK       I    between atoms: C16_31  and  S2_78 
REMARK       I    between atoms: C17_32  and  C18_33 
REMARK       I    between atoms: C18_33  and  C19_34 
REMARK       I    between atoms: C21_36  and  S3_79 
REMARK       I    between atoms: C22_37  and  S4_80 
REMARK       I    between atoms: C23_38  and  C24_39 
REMARK       I    between atoms: C25_40  and  C26_41 
REMARK       I    between atoms: C27_42  and  C28_43 
REMARK       I    between atoms: C29_44  and  C30_45 
REMARK       I    between atoms: C29_44  and  C40_55 
REMARK       I    between atoms: C31_46  and  C32_47 
REMARK       I    between atoms: C31_46  and  C38_53 
REMARK       I    between atoms: C33_48  and  C34_49 
REMARK       I    between atoms: C35_50  and  C36_51 
REMARK       I    between atoms: C35_50  and  C37_52 
REMARK       I    between atoms: C36_51  and  O16_75 
REMARK       I    between atoms: C37_52  and  S5_81 
REMARK       I    between atoms: C38_53  and  O17_76 
REMARK       I    between atoms: C40_55  and  S6_82 
ROOT
HETATM    1  N1  UNL     1      -0.989   1.905   0.515  1.00  0.00    -0.337 N 
HETATM    2  N2  UNL     1      -0.065  -1.551  -0.379  1.00  0.00    -0.346 N 
HETATM    3  N3  UNL     1       1.777  -3.525  -1.518  1.00  0.00    -0.345 N 
HETATM    4  N4  UNL     1       4.407  -4.615  -0.314  1.00  0.00    -0.345 N 
HETATM    5  N5  UNL     1       6.323  -2.908  -1.241  1.00  0.00    -0.346 N 
HETATM    6  N6  UNL     1       8.837  -0.756   0.363  1.00  0.00    -0.346 N 
HETATM    7  N7  UNL     1      11.224   1.006   0.741  1.00  0.00    -0.345 N 
HETATM    8  N8  UNL     1      13.814   1.445  -0.902  1.00  0.00     0.092 N 
HETATM    9  N9  UNL     1       3.708   1.047  -0.331  1.00  0.00    -0.370 N 
HETATM   10  N10 UNL     1      -3.450  -1.819   2.816  1.00  0.00    -0.370 N 
HETATM   11  N11 UNL     1      -3.863   1.014  -1.120  1.00  0.00    -0.346 N 
HETATM   12  N12 UNL     1      -5.685   3.058  -2.496  1.00  0.00    -0.345 N 
HETATM   13  N13 UNL     1      -8.093   3.591  -0.241  1.00  0.00    -0.344 N 
HETATM   14  N14 UNL     1      -7.344   1.228   0.999  1.00  0.00    -0.350 N 
HETATM   15  N15 UNL     1      -8.406  -0.706   2.588  1.00  0.00    -0.344 N 
HETATM   16  C1  UNL     1      -0.266   0.739   0.372  1.00  0.00     0.243 C 
HETATM   17  C2  UNL     1      -1.015  -0.611   0.220  1.00  0.00     0.185 C 
HETATM   18  C3  UNL     1       0.099  -1.622  -1.748  1.00  0.00     0.241 C 
HETATM   19  C4  UNL     1       1.431  -2.271  -2.202  1.00  0.00     0.185 C 
HETATM   20  C5  UNL     1       2.283  -3.558  -0.234  1.00  0.00     0.241 C 
HETATM   21  C6  UNL     1       3.025  -4.860   0.114  1.00  0.00     0.185 C 
HETATM   22  C7  UNL     1       4.755  -4.723  -1.650  1.00  0.00     0.240 C 
HETATM   23  C8  UNL     1       6.160  -4.171  -1.961  1.00  0.00     0.172 C 
HETATM   24  C9  UNL     1       7.557  -2.440  -0.849  1.00  0.00     0.241 C 
HETATM   25  C10 UNL     1       7.536  -1.017  -0.243  1.00  0.00     0.177 C 
HETATM   26  C11 UNL     1       9.028   0.153   1.376  1.00  0.00     0.241 C 
HETATM   27  C12 UNL     1      10.499   0.314   1.813  1.00  0.00     0.185 C 
HETATM   28  C13 UNL     1      11.717   0.321  -0.349  1.00  0.00     0.252 C 
HETATM   29  C14 UNL     1      12.428   1.220  -1.381  1.00  0.00     0.318 C 
HETATM   30  C15 UNL     1      12.436   0.578  -2.774  1.00  0.00     0.116 C 
HETATM   31  C16 UNL     1      10.563   1.086   3.137  1.00  0.00     0.105 C 
HETATM   32  C17 UNL     1       7.199   0.049  -1.304  1.00  0.00     0.044 C 
HETATM   33  C18 UNL     1       6.062   0.981  -0.870  1.00  0.00     0.105 C 
HETATM   34  C19 UNL     1       4.724   0.276  -0.805  1.00  0.00     0.215 C 
HETATM   35  C20 UNL     1       6.370  -3.978  -3.456  1.00  0.00     0.042 C 
HETATM   36  C21 UNL     1       2.973  -5.156   1.615  1.00  0.00     0.105 C 
HETATM   37  C22 UNL     1       1.477  -2.428  -3.732  1.00  0.00     0.105 C 
HETATM   38  C23 UNL     1      -1.476  -1.137   1.585  1.00  0.00     0.137 C 
HETATM   39  C24 UNL     1      -2.976  -1.311   1.645  1.00  0.00     0.217 C 
HETATM   40  C25 UNL     1      -2.444   2.091   0.581  1.00  0.00     0.179 C 
HETATM   41  C26 UNL     1      -3.104   2.121  -0.818  1.00  0.00     0.241 C 
HETATM   42  C27 UNL     1      -4.578   0.880  -2.384  1.00  0.00     0.172 C 
HETATM   43  C28 UNL     1      -5.871   1.714  -2.257  1.00  0.00     0.240 C 
HETATM   44  C29 UNL     1      -6.687   4.090  -2.229  1.00  0.00     0.185 C 
HETATM   45  C30 UNL     1      -6.961   4.203  -0.716  1.00  0.00     0.242 C 
HETATM   46  C31 UNL     1      -8.357   3.477   1.196  1.00  0.00     0.205 C 
HETATM   47  C32 UNL     1      -7.562   2.316   1.822  1.00  0.00     0.243 C 
HETATM   48  C33 UNL     1      -6.449   0.164   1.415  1.00  0.00     0.225 C 
HETATM   49  C34 UNL     1      -7.045  -0.824   2.424  1.00  0.00     0.236 C 
HETATM   50  C35 UNL     1      -9.183  -1.663   3.374  1.00  0.00     0.191 C 
HETATM   51  C36 UNL     1      -9.697  -2.814   2.505  1.00  0.00     0.164 C 
HETATM   52  C37 UNL     1     -10.395  -0.987   4.019  1.00  0.00     0.106 C 
HETATM   53  C38 UNL     1      -9.856   3.252   1.476  1.00  0.00     0.146 C 
HETATM   54  C39 UNL     1     -10.673   4.508   1.190  1.00  0.00     0.042 C 
HETATM   55  C40 UNL     1      -7.885   4.166  -3.191  1.00  0.00     0.105 C 
HETATM   56  C41 UNL     1      -4.890  -0.580  -2.673  1.00  0.00     0.042 C 
HETATM   57  C42 UNL     1      -2.603   3.457   1.260  1.00  0.00     0.037 C 
HETATM   58  C43 UNL     1      -1.367   4.228   0.814  1.00  0.00     0.022 C 
HETATM   59  C44 UNL     1      -0.291   3.157   0.763  1.00  0.00     0.127 C 
HETATM   60  O1  UNL     1       0.973   0.763   0.409  1.00  0.00    -0.271 OA
HETATM   61  O2  UNL     1      -0.686  -1.085  -2.528  1.00  0.00    -0.271 OA
HETATM   62  O3  UNL     1       2.253  -2.583   0.516  1.00  0.00    -0.271 OA
HETATM   63  O4  UNL     1       4.025  -5.269  -2.473  1.00  0.00    -0.271 OA
HETATM   64  O5  UNL     1       8.584  -3.106  -0.954  1.00  0.00    -0.271 OA
HETATM   65  O6  UNL     1       8.108   0.802   1.866  1.00  0.00    -0.271 OA
HETATM   66  O7  UNL     1      11.653  -0.902  -0.434  1.00  0.00    -0.271 OA
HETATM   67  O8  UNL     1       4.555  -0.886  -1.166  1.00  0.00    -0.274 OA
HETATM   68  O9  UNL     1      -3.745  -0.970   0.752  1.00  0.00    -0.274 OA
HETATM   69  O10 UNL     1      -2.966   3.041  -1.624  1.00  0.00    -0.271 OA
HETATM   70  O11 UNL     1      -6.940   1.253  -1.861  1.00  0.00    -0.271 OA
HETATM   71  O12 UNL     1      -6.137   4.716   0.043  1.00  0.00    -0.271 OA
HETATM   72  O13 UNL     1      -7.278   2.294   3.020  1.00  0.00    -0.271 OA
HETATM   73  O14 UNL     1      -6.364  -1.682   2.983  1.00  0.00    -0.272 OA
HETATM   74  O15 UNL     1     -10.330  -3.780   2.904  1.00  0.00    -0.648 OA
HETATM   75  O16 UNL     1      -9.447  -2.677   1.185  1.00  0.00    -0.775 OA
HETATM   76  O17 UNL     1     -10.355   2.183   0.657  1.00  0.00    -0.393 OA
HETATM   77  S1  UNL     1      10.779   0.615  -3.544  1.00  0.00    -0.180 SA
HETATM   78  S2  UNL     1      12.274   1.277   3.749  1.00  0.00    -0.180 SA
HETATM   79  S3  UNL     1       1.314  -5.677   2.164  1.00  0.00    -0.180 SA
HETATM   80  S4  UNL     1       0.373  -3.737  -4.371  1.00  0.00    -0.180 SA
HETATM   81  S5  UNL     1      -9.923   0.355   5.164  1.00  0.00    -0.180 SA
HETATM   82  S6  UNL     1      -9.179   2.884  -3.132  1.00  0.00    -0.180 SA
HETATM   83  H1  UNL     1       0.795  -1.704   0.154  1.00  0.00     0.163 HD
HETATM   84  H2  UNL     1       2.062  -4.293  -2.127  1.00  0.00     0.163 HD
HETATM   85  H3  UNL     1       4.933  -3.908   0.195  1.00  0.00     0.163 HD
HETATM   86  H4  UNL     1       5.555  -2.232  -1.303  1.00  0.00     0.163 HD
HETATM   87  H5  UNL     1       9.643  -1.251  -0.030  1.00  0.00     0.163 HD
HETATM   88  H6  UNL     1      11.118   2.012   0.672  1.00  0.00     0.163 HD
HETATM   89  H7  UNL     1      14.285   0.539  -0.836  1.00  0.00     0.313 HD
HETATM   90  H8  UNL     1      13.780   1.795   0.057  1.00  0.00     0.313 HD
HETATM   91  H9  UNL     1       3.872   1.924   0.144  1.00  0.00     0.159 HD
HETATM   92  H10 UNL     1       2.786   0.635  -0.168  1.00  0.00     0.159 HD
HETATM   93  H11 UNL     1      -4.458  -1.973   2.907  1.00  0.00     0.159 HD
HETATM   94  H12 UNL     1      -2.861  -2.264   3.505  1.00  0.00     0.159 HD
HETATM   95  H13 UNL     1      -3.983   0.273  -0.426  1.00  0.00     0.163 HD
HETATM   96  H14 UNL     1      -4.710   3.363  -2.421  1.00  0.00     0.163 HD
HETATM   97  H15 UNL     1      -8.621   2.970  -0.853  1.00  0.00     0.163 HD
HETATM   98  H16 UNL     1      -7.431   1.383  -0.005  1.00  0.00     0.163 HD
HETATM   99  H17 UNL     1      -8.880  -0.177   1.860  1.00  0.00     0.163 HD
HETATM  100  H66 UNL     1      -9.809  -3.494   0.783  1.00  0.00     0.167 HD
HETATM  101  H67 UNL     1     -11.323   2.158   0.766  1.00  0.00     0.210 HD
HETATM  102  H68 UNL     1      11.108  -0.097  -4.632  1.00  0.00     0.101 HD
HETATM  103  H69 UNL     1      12.542  -0.031   3.878  1.00  0.00     0.101 HD
HETATM  104  H70 UNL     1       1.639  -5.883   3.449  1.00  0.00     0.101 HD
HETATM  105  H71 UNL     1      -0.776  -3.123  -4.041  1.00  0.00     0.101 HD
HETATM  106  H72 UNL     1      -8.962   0.889   4.386  1.00  0.00     0.101 HD
HETATM  107  H73 UNL     1      -8.351   1.824  -3.108  1.00  0.00     0.101 HD
ENDROOT
TORSDOF 45
