REMARK  15 active torsions:
REMARK  status: ('A' for Active; 'I' for Inactive)
REMARK    1  A    between atoms: C3_3  and  N5_40 
REMARK    2  A    between atoms: C5_5  and  C6_6 
REMARK       I    between atoms: C6_6  and  N2_36 
REMARK    3  A    between atoms: C7_7  and  C8_8 
REMARK    4  A    between atoms: C7_7  and  N2_36 
REMARK    5  A    between atoms: C8_8  and  C9_9 
REMARK    6  A    between atoms: C9_9  and  N4_39 
REMARK    7  A    between atoms: C10_10  and  C11_11 
REMARK       I    between atoms: C10_10  and  N5_40 
REMARK    8  A    between atoms: C13_13  and  N7_42 
REMARK    9  A    between atoms: C16_16  and  C17_17 
REMARK       I    between atoms: C16_16  and  N7_42 
REMARK   10  A    between atoms: C19_19  and  N9_44 
REMARK   11  A    between atoms: C22_22  and  C23_23 
REMARK       I    between atoms: C22_22  and  N9_44 
REMARK   12  A    between atoms: C25_25  and  N11_46 
REMARK   13  A    between atoms: C28_28  and  C29_29 
REMARK       I    between atoms: C28_28  and  N11_46 
REMARK   14  A    between atoms: C31_31  and  N13_48 
REMARK   15  A    between atoms: C34_34  and  N14_50 
ROOT
HETATM    1  C16 UNL     1       0.610  -0.661  -0.251  1.00  0.00     0.273 C 
HETATM    2  N7  UNL     1       0.988   0.315   0.654  1.00  0.00    -0.320 N 
HETATM    3  O3  UNL     1       1.397  -1.435  -0.791  1.00  0.00    -0.266 OA
HETATM    4  H36 UNL     1       0.274   0.894   1.068  1.00  0.00     0.169 HD
ENDROOT
BRANCH   1   5
HETATM    5  C17 UNL     1      -0.828  -0.711  -0.517  1.00  0.00     0.105 A 
HETATM    6  C18 UNL     1      -1.845   0.149  -0.109  1.00  0.00     0.066 A 
HETATM    7  C19 UNL     1      -3.078  -0.317  -0.621  1.00  0.00     0.053 A 
HETATM    8  C20 UNL     1      -2.803  -1.453  -1.341  1.00  0.00     0.120 A 
HETATM    9  N8  UNL     1      -1.451  -1.685  -1.281  1.00  0.00    -0.354 N 
HETATM   10  C21 UNL     1      -0.799  -2.807  -1.927  1.00  0.00     0.156 C 
BRANCH   7  11
HETATM   11  N9  UNL     1      -4.356   0.191  -0.485  1.00  0.00    -0.320 N 
HETATM   12  C22 UNL     1      -4.695   1.334   0.217  1.00  0.00     0.273 C 
HETATM   13  O4  UNL     1      -3.880   2.047   0.798  1.00  0.00    -0.266 OA
HETATM   14  H37 UNL     1      -5.085  -0.319  -0.961  1.00  0.00     0.169 HD
BRANCH  12  15
HETATM   15  C23 UNL     1      -6.125   1.643   0.207  1.00  0.00     0.105 A 
HETATM   16  C24 UNL     1      -7.201   0.886  -0.247  1.00  0.00     0.066 A 
HETATM   17  C25 UNL     1      -8.397   1.613  -0.044  1.00  0.00     0.053 A 
HETATM   18  C26 UNL     1      -8.041   2.803   0.542  1.00  0.00     0.120 A 
HETATM   19  N10 UNL     1      -6.677   2.817   0.694  1.00  0.00    -0.354 N 
HETATM   20  C27 UNL     1      -5.944   3.925   1.275  1.00  0.00     0.156 C 
BRANCH  17  21
HETATM   21  N11 UNL     1      -9.707   1.282  -0.332  1.00  0.00    -0.320 N 
HETATM   22  C28 UNL     1     -10.121   0.122  -0.960  1.00  0.00     0.273 C 
HETATM   23  O5  UNL     1      -9.358  -0.747  -1.374  1.00  0.00    -0.266 OA
HETATM   24  H38 UNL     1     -10.401   1.976  -0.099  1.00  0.00     0.169 HD
BRANCH  22  25
HETATM   25  C29 UNL     1     -11.570   0.016  -1.114  1.00  0.00     0.105 A 
HETATM   26  C30 UNL     1     -12.587   0.723  -0.477  1.00  0.00     0.066 A 
HETATM   27  C31 UNL     1     -13.815   0.242  -0.961  1.00  0.00     0.050 A 
HETATM   28  C32 UNL     1     -13.567  -0.723  -1.898  1.00  0.00     0.120 A 
HETATM   29  N12 UNL     1     -12.205  -0.874  -1.971  1.00  0.00    -0.354 N 
HETATM   30  C33 UNL     1     -11.548  -1.812  -2.859  1.00  0.00     0.156 C 
BRANCH  27  31
HETATM   31  N13 UNL     1     -15.060   0.737  -0.582  1.00  0.00    -0.356 N 
HETATM   32  C34 UNL     1     -15.732  -0.129   0.096  1.00  0.00     0.146 C 
ATOM     33  H13 UNL     1     -15.399   1.671  -0.813  1.00  0.00     0.166 HD
BRANCH  32  34
HETATM   34  N14 UNL     1     -16.983   0.115   0.572  1.00  0.00    -0.299 NA
HETATM   35  H39 UNL     1     -17.242   1.095   0.519  1.00  0.00     0.124 HD
HETATM   36  H40 UNL     1     -17.231  -0.329   1.448  1.00  0.00     0.124 HD
ENDBRANCH  32  34
ENDBRANCH  27  31
ENDBRANCH  22  25
ENDBRANCH  17  21
ENDBRANCH  12  15
ENDBRANCH   7  11
ENDBRANCH   1   5
BRANCH   2  37
HETATM   37  C13 UNL     1       2.282   0.566   1.067  1.00  0.00     0.053 A 
HETATM   38  C12 UNL     1       3.499  -0.056   0.707  1.00  0.00     0.066 A 
HETATM   39  C11 UNL     1       4.545   0.558   1.392  1.00  0.00     0.105 A 
HETATM   40  N6  UNL     1       3.953   1.538   2.171  1.00  0.00    -0.354 N 
HETATM   41  C14 UNL     1       2.594   1.549   1.974  1.00  0.00     0.120 A 
HETATM   42  C15 UNL     1       4.643   2.447   3.065  1.00  0.00     0.156 C 
BRANCH  39  43
HETATM   43  C10 UNL     1       5.981   0.279   1.361  1.00  0.00     0.273 C 
HETATM   44  N5  UNL     1       6.365  -0.617   0.380  1.00  0.00    -0.320 N 
HETATM   45  H35 UNL     1       5.661  -0.982  -0.244  1.00  0.00     0.169 HD
HETATM   46  O2  UNL     1       6.763   0.814   2.144  1.00  0.00    -0.266 OA
BRANCH  44  47
HETATM   47  C3  UNL     1       7.657  -1.049   0.150  1.00  0.00     0.053 A 
HETATM   48  C2  UNL     1       7.979  -1.929  -0.854  1.00  0.00     0.120 A 
HETATM   49  N1  UNL     1       9.332  -2.154  -0.812  1.00  0.00    -0.354 N 
HETATM   50  C1  UNL     1      10.029  -3.038  -1.724  1.00  0.00     0.156 C 
HETATM   51  C5  UNL     1       9.912  -1.423   0.212  1.00  0.00     0.104 A 
HETATM   52  C4  UNL     1       8.863  -0.735   0.818  1.00  0.00     0.066 A 
BRANCH  51  53
HETATM   53  C6  UNL     1      11.330  -1.430   0.532  1.00  0.00     0.268 C 
HETATM   54  N2  UNL     1      11.713  -0.592   1.553  1.00  0.00    -0.355 N 
HETATM   55  H31 UNL     1      11.024   0.017   1.970  1.00  0.00     0.162 HD
HETATM   56  O1  UNL     1      12.159  -2.119  -0.064  1.00  0.00    -0.266 OA
BRANCH  54  57
HETATM   57  C7  UNL     1      13.085  -0.470   2.013  1.00  0.00     0.130 C 
BRANCH  57  58
HETATM   58  C8  UNL     1      13.829   0.696   1.378  1.00  0.00     0.089 C 
BRANCH  58  59
HETATM   59  C9  UNL     1      14.346   0.511  -0.040  1.00  0.00     0.049 C 
HETATM   60  N3  UNL     1      14.735   1.571  -0.670  1.00  0.00    -0.393 N 
HETATM   61  H32 UNL     1      15.105   1.309  -1.586  1.00  0.00     0.157 HD
ATOM     62  H3  UNL     1      14.681   2.523  -0.308  1.00  0.00     0.157 HD
BRANCH  59  63
HETATM   63  N4  UNL     1      14.452  -0.714  -0.624  1.00  0.00    -0.293 NA
HETATM   64  H33 UNL     1      13.756  -1.409  -0.331  1.00  0.00     0.125 HD
HETATM   65  H34 UNL     1      14.518  -0.714  -1.634  1.00  0.00     0.125 HD
ENDBRANCH  59  63
ENDBRANCH  58  59
ENDBRANCH  57  58
ENDBRANCH  54  57
ENDBRANCH  51  53
ENDBRANCH  44  47
ENDBRANCH  39  43
ENDBRANCH   2  37
TORSDOF 15
