REMARK  0 active torsions:
REMARK  status: ('A' for Active; 'I' for Inactive)
REMARK       I    between atoms: C2_2  and  C3_3 
REMARK       I    between atoms: C2_2  and  O15_64 
REMARK       I    between atoms: C3_3  and  C4_4 
REMARK       I    between atoms: C3_3  and  N19_85 
REMARK       I    between atoms: C4_4  and  N1_65 
REMARK       I    between atoms: C8_8  and  C9_9 
REMARK       I    between atoms: C9_9  and  N2_66 
REMARK       I    between atoms: C10_10  and  C11_11 
REMARK       I    between atoms: C10_10  and  C15_15 
REMARK       I    between atoms: C10_10  and  N2_66 
REMARK       I    between atoms: C11_11  and  C12_12 
REMARK       I    between atoms: C12_12  and  C13_13 
REMARK       I    between atoms: C13_13  and  N3_67 
REMARK       I    between atoms: C14_14  and  N4_69 
REMARK       I    between atoms: C14_14  and  N5_70 
REMARK       I    between atoms: C15_15  and  N6_71 
REMARK       I    between atoms: C16_16  and  C17_17 
REMARK       I    between atoms: C16_16  and  C20_20 
REMARK       I    between atoms: C16_16  and  N6_71 
REMARK       I    between atoms: C17_17  and  C18_18 
REMARK       I    between atoms: C18_18  and  C19_19 
REMARK       I    between atoms: C19_19  and  O5_54 
REMARK       I    between atoms: C20_20  and  N7_72 
REMARK       I    between atoms: C21_21  and  C23_23 
REMARK       I    between atoms: C21_21  and  N7_72 
REMARK       I    between atoms: C23_23  and  N8_73 
REMARK       I    between atoms: C24_24  and  C26_26 
REMARK       I    between atoms: C24_24  and  N8_73 
REMARK       I    between atoms: C26_26  and  N9_74 
REMARK       I    between atoms: C27_27  and  C29_29 
REMARK       I    between atoms: C27_27  and  N9_74 
REMARK       I    between atoms: C29_29  and  N10_75 
REMARK       I    between atoms: C30_30  and  C31_31 
REMARK       I    between atoms: C30_30  and  C35_35 
REMARK       I    between atoms: C30_30  and  N10_75 
REMARK       I    between atoms: C31_31  and  C32_32 
REMARK       I    between atoms: C32_32  and  C33_33 
REMARK       I    between atoms: C33_33  and  C34_34 
REMARK       I    between atoms: C34_34  and  N11_76 
REMARK       I    between atoms: C35_35  and  N12_77 
REMARK       I    between atoms: C36_36  and  C37_37 
REMARK       I    between atoms: C36_36  and  C41_41 
REMARK       I    between atoms: C36_36  and  N12_77 
REMARK       I    between atoms: C37_37  and  C38_38 
REMARK       I    between atoms: C38_38  and  C39_39 
REMARK       I    between atoms: C39_39  and  C40_40 
REMARK       I    between atoms: C40_40  and  N13_78 
REMARK       I    between atoms: C41_41  and  N14_79 
REMARK       I    between atoms: C42_42  and  C43_43 
REMARK       I    between atoms: C42_42  and  C47_47 
REMARK       I    between atoms: C42_42  and  N14_79 
REMARK       I    between atoms: C43_43  and  C44_44 
REMARK       I    between atoms: C44_44  and  C45_45 
REMARK       I    between atoms: C45_45  and  N15_80 
REMARK       I    between atoms: C46_46  and  N16_82 
REMARK       I    between atoms: C46_46  and  N17_83 
REMARK       I    between atoms: C47_47  and  N18_84 
REMARK       I    between atoms: C48_48  and  C49_49 
REMARK       I    between atoms: C48_48  and  N18_84 
REMARK       I    between atoms: C49_49  and  O14_63 
ROOT
HETATM    1  C1  UNL     1     -14.793   2.524  -3.522  1.00  0.00     0.042 C 
HETATM    2  C2  UNL     1     -14.993   1.136  -2.924  1.00  0.00     0.156 C 
HETATM    3  C3  UNL     1     -13.758   0.620  -2.159  1.00  0.00     0.337 C 
HETATM    4  C4  UNL     1     -13.243   1.602  -1.088  1.00  0.00     0.256 C 
HETATM    5  C5  UNL     1     -15.131   1.117   0.547  1.00  0.00     0.127 C 
HETATM    6  C6  UNL     1     -15.358   1.612   1.970  1.00  0.00     0.022 C 
HETATM    7  C7  UNL     1     -14.645   2.959   1.994  1.00  0.00     0.037 C 
HETATM    8  C8  UNL     1     -13.419   2.718   1.114  1.00  0.00     0.179 C 
HETATM    9  C9  UNL     1     -12.234   2.115   1.906  1.00  0.00     0.241 C 
HETATM   10  C10 UNL     1      -9.915   1.270   1.668  1.00  0.00     0.176 C 
HETATM   11  C11 UNL     1     -10.069  -0.238   1.404  1.00  0.00     0.036 C 
HETATM   12  C12 UNL     1      -9.967  -0.623  -0.082  1.00  0.00     0.022 C 
HETATM   13  C13 UNL     1     -10.351  -2.085  -0.321  1.00  0.00     0.121 C 
HETATM   14  C14 UNL     1     -12.329  -3.361  -0.083  1.00  0.00     0.121 C 
HETATM   15  C15 UNL     1      -8.617   1.839   1.060  1.00  0.00     0.241 C 
HETATM   16  C16 UNL     1      -6.137   1.725   1.155  1.00  0.00     0.177 C 
HETATM   17  C17 UNL     1      -5.699   3.117   1.629  1.00  0.00     0.045 C 
HETATM   18  C18 UNL     1      -5.671   3.263   3.153  1.00  0.00     0.112 C 
HETATM   19  C19 UNL     1      -5.214   4.636   3.562  1.00  0.00     0.139 C 
HETATM   20  C20 UNL     1      -5.154   0.623   1.598  1.00  0.00     0.241 C 
HETATM   21  C21 UNL     1      -2.837  -0.239   1.371  1.00  0.00     0.172 C 
HETATM   22  C22 UNL     1      -2.999  -1.547   0.605  1.00  0.00     0.042 C 
HETATM   23  C23 UNL     1      -1.498   0.435   1.016  1.00  0.00     0.240 C 
HETATM   24  C24 UNL     1       0.945   0.195   1.045  1.00  0.00     0.172 C 
HETATM   25  C25 UNL     1       1.997  -0.023   2.122  1.00  0.00     0.042 C 
HETATM   26  C26 UNL     1       1.273  -0.670  -0.189  1.00  0.00     0.240 C 
HETATM   27  C27 UNL     1       2.672  -0.833  -2.231  1.00  0.00     0.172 C 
HETATM   28  C28 UNL     1       1.795  -0.378  -3.390  1.00  0.00     0.042 C 
HETATM   29  C29 UNL     1       4.165  -0.575  -2.518  1.00  0.00     0.240 C 
HETATM   30  C30 UNL     1       6.384  -0.309  -1.400  1.00  0.00     0.176 C 
HETATM   31  C31 UNL     1       6.728   1.167  -1.639  1.00  0.00     0.035 C 
HETATM   32  C32 UNL     1       8.212   1.543  -1.682  1.00  0.00     0.004 C 
HETATM   33  C33 UNL     1       8.942   1.276  -3.004  1.00  0.00     0.030 C 
HETATM   34  C34 UNL     1       9.135  -0.181  -3.418  1.00  0.00     0.267 C 
HETATM   35  C35 UNL     1       6.881  -0.818  -0.034  1.00  0.00     0.241 C 
HETATM   36  C36 UNL     1       8.721  -2.012   1.141  1.00  0.00     0.176 C 
HETATM   37  C37 UNL     1       9.185  -3.453   0.876  1.00  0.00     0.035 C 
HETATM   38  C38 UNL     1       8.022  -4.419   0.651  1.00  0.00     0.004 C 
HETATM   39  C39 UNL     1       8.399  -5.903   0.749  1.00  0.00     0.030 C 
HETATM   40  C40 UNL     1       9.426  -6.406  -0.270  1.00  0.00     0.267 C 
HETATM   41  C41 UNL     1       9.928  -1.184   1.633  1.00  0.00     0.241 C 
HETATM   42  C42 UNL     1      11.756   0.367   1.002  1.00  0.00     0.176 C 
HETATM   43  C43 UNL     1      12.142   1.204  -0.226  1.00  0.00     0.036 C 
HETATM   44  C44 UNL     1      13.086   2.379   0.063  1.00  0.00     0.022 C 
HETATM   45  C45 UNL     1      12.547   3.392   1.073  1.00  0.00     0.121 C 
HETATM   46  C46 UNL     1      11.077   4.892  -0.032  1.00  0.00     0.121 C 
HETATM   47  C47 UNL     1      12.986  -0.449   1.473  1.00  0.00     0.240 C 
HETATM   48  C48 UNL     1      13.984  -2.712   1.342  1.00  0.00     0.232 C 
HETATM   49  C49 UNL     1      13.375  -4.076   1.027  1.00  0.00     0.158 C 
HETATM   50  O1  UNL     1     -12.232   2.274  -1.334  1.00  0.00    -0.271 OA
HETATM   51  O2  UNL     1     -12.314   1.761   3.080  1.00  0.00    -0.271 OA
HETATM   52  O3  UNL     1      -8.600   2.636   0.125  1.00  0.00    -0.271 OA
HETATM   53  O4  UNL     1      -4.701   5.487   2.856  1.00  0.00    -0.650 OA
HETATM   54  O5  UNL     1      -5.404   4.859   4.877  1.00  0.00    -0.776 OA
HETATM   55  O6  UNL     1      -5.475  -0.252   2.403  1.00  0.00    -0.271 OA
HETATM   56  O7  UNL     1      -1.442   1.452   0.324  1.00  0.00    -0.271 OA
HETATM   57  O8  UNL     1       0.719  -1.747  -0.405  1.00  0.00    -0.271 OA
HETATM   58  O9  UNL     1       4.654  -0.563  -3.644  1.00  0.00    -0.271 OA
HETATM   59  O10 UNL     1       6.204  -0.691   0.986  1.00  0.00    -0.271 OA
HETATM   60  O11 UNL     1      10.314  -1.227   2.800  1.00  0.00    -0.271 OA
HETATM   61  O12 UNL     1      13.852   0.003   2.216  1.00  0.00    -0.271 OA
HETATM   62  O13 UNL     1      13.810  -5.162   1.371  1.00  0.00    -0.649 OA
HETATM   63  O14 UNL     1      12.245  -3.971   0.283  1.00  0.00    -0.775 OA
HETATM   64  O15 UNL     1     -15.297   0.230  -4.002  1.00  0.00    -0.393 OA
HETATM   65  N1  UNL     1     -13.900   1.761   0.109  1.00  0.00    -0.337 N 
HETATM   66  N2  UNL     1     -11.069   2.008   1.180  1.00  0.00    -0.346 N 
HETATM   67  N3  UNL     1     -11.800  -2.203  -0.202  1.00  0.00    -0.372 N 
ATOM     68  H3  UNL     1     -12.386  -1.369  -0.214  1.00  0.00     0.161 HD
HETATM   69  N4  UNL     1     -11.758  -4.584  -0.067  1.00  0.00    -0.279 NA
HETATM   70  N5  UNL     1     -13.670  -3.475   0.030  1.00  0.00    -0.279 NA
HETATM   71  N6  UNL     1      -7.463   1.365   1.641  1.00  0.00    -0.346 N 
HETATM   72  N7  UNL     1      -3.903   0.699   1.042  1.00  0.00    -0.346 N 
HETATM   73  N8  UNL     1      -0.377  -0.188   1.527  1.00  0.00    -0.346 N 
HETATM   74  N9  UNL     1       2.281  -0.171  -0.984  1.00  0.00    -0.346 N 
HETATM   75  N10 UNL     1       4.934  -0.484  -1.380  1.00  0.00    -0.346 N 
HETATM   76  N11 UNL     1       9.809  -0.973  -2.380  1.00  0.00     0.078 N 
HETATM   77  N12 UNL     1       8.109  -1.438  -0.059  1.00  0.00    -0.346 N 
HETATM   78  N13 UNL     1      10.820  -6.219   0.163  1.00  0.00     0.078 N 
HETATM   79  N14 UNL     1      10.661  -0.556   0.641  1.00  0.00    -0.346 N 
HETATM   80  N15 UNL     1      11.215   3.838   0.675  1.00  0.00    -0.372 N 
ATOM     81  H15 UNL     1      10.393   3.307   0.962  1.00  0.00     0.161 HD
HETATM   82  N16 UNL     1      12.001   5.729  -0.549  1.00  0.00    -0.279 NA
HETATM   83  N17 UNL     1       9.837   5.315  -0.362  1.00  0.00    -0.279 NA
HETATM   84  N18 UNL     1      13.108  -1.665   0.837  1.00  0.00    -0.349 N 
HETATM   85  N19 UNL     1     -13.992  -0.735  -1.602  1.00  0.00     0.094 N 
HETATM   86  H64 UNL     1      -5.072   5.771   5.014  1.00  0.00     0.167 HD
HETATM   87  H65 UNL     1      11.824  -4.873   0.247  1.00  0.00     0.167 HD
HETATM   88  H66 UNL     1     -14.569   0.283  -4.645  1.00  0.00     0.210 HD
HETATM   89  H67 UNL     1     -11.093   2.249   0.186  1.00  0.00     0.163 HD
HETATM   90  H68 UNL     1     -12.219  -5.207   0.587  1.00  0.00     0.126 HD
HETATM   91  H69 UNL     1     -10.759  -4.580   0.087  1.00  0.00     0.126 HD
HETATM   92  H70 UNL     1     -14.120  -2.576  -0.148  1.00  0.00     0.126 HD
HETATM   93  H71 UNL     1     -14.055  -4.184  -0.580  1.00  0.00     0.126 HD
HETATM   94  H72 UNL     1      -7.504   0.646   2.359  1.00  0.00     0.163 HD
HETATM   95  H73 UNL     1      -3.663   1.444   0.392  1.00  0.00     0.163 HD
HETATM   96  H74 UNL     1      -0.477  -1.169   1.767  1.00  0.00     0.163 HD
HETATM   97  H75 UNL     1       2.544   0.803  -0.877  1.00  0.00     0.163 HD
HETATM   98  H76 UNL     1       4.487  -0.587  -0.472  1.00  0.00     0.163 HD
HETATM   99  H77 UNL     1      10.769  -0.616  -2.313  1.00  0.00     0.312 HD
HETATM  100  H78 UNL     1       9.941  -1.917  -2.763  1.00  0.00     0.312 HD
HETATM  101  H79 UNL     1       8.641  -1.438  -0.933  1.00  0.00     0.163 HD
HETATM  102  H80 UNL     1      10.915  -6.658   1.088  1.00  0.00     0.312 HD
HETATM  103  H81 UNL     1      11.399  -6.815  -0.441  1.00  0.00     0.312 HD
HETATM  104  H82 UNL     1      10.148  -0.360  -0.211  1.00  0.00     0.163 HD
HETATM  105  H83 UNL     1      11.736   6.082  -1.461  1.00  0.00     0.126 HD
HETATM  106  H84 UNL     1      12.942   5.359  -0.565  1.00  0.00     0.126 HD
HETATM  107  H85 UNL     1       9.152   4.792   0.176  1.00  0.00     0.126 HD
HETATM  108  H86 UNL     1       9.722   6.308  -0.194  1.00  0.00     0.126 HD
HETATM  109  H87 UNL     1      12.252  -2.005   0.404  1.00  0.00     0.163 HD
HETATM  110  H88 UNL     1     -14.230  -1.343  -2.387  1.00  0.00     0.314 HD
HETATM  111  H89 UNL     1     -13.091  -1.080  -1.232  1.00  0.00     0.314 HD
ENDROOT
TORSDOF 46
