REMARK  0 active torsions:
REMARK  status: ('A' for Active; 'I' for Inactive)
REMARK       I    between atoms: C2_2  and  C4_4 
REMARK       I    between atoms: C4_4  and  C5_5 
REMARK       I    between atoms: C4_4  and  N20_114 
REMARK       I    between atoms: C5_5  and  N1_94 
REMARK       I    between atoms: C6_6  and  C7_7 
REMARK       I    between atoms: C6_6  and  C10_10 
REMARK       I    between atoms: C6_6  and  N1_94 
REMARK       I    between atoms: C10_10  and  N2_95 
REMARK       I    between atoms: C11_11  and  C12_12 
REMARK       I    between atoms: C11_11  and  C15_15 
REMARK       I    between atoms: C11_11  and  N2_95 
REMARK       I    between atoms: C15_15  and  N3_96 
REMARK       I    between atoms: C16_16  and  C17_17 
REMARK       I    between atoms: C16_16  and  C21_21 
REMARK       I    between atoms: C16_16  and  N3_96 
REMARK       I    between atoms: C17_17  and  C18_18 
REMARK       I    between atoms: C18_18  and  C19_19 
REMARK       I    between atoms: C19_19  and  C20_20 
REMARK       I    between atoms: C20_20  and  N4_97 
REMARK       I    between atoms: C21_21  and  N5_98 
REMARK       I    between atoms: C22_22  and  C23_23 
REMARK       I    between atoms: C22_22  and  C27_27 
REMARK       I    between atoms: C22_22  and  N5_98 
REMARK       I    between atoms: C23_23  and  C24_24 
REMARK       I    between atoms: C24_24  and  C25_25 
REMARK       I    between atoms: C25_25  and  C26_26 
REMARK       I    between atoms: C26_26  and  N6_99 
REMARK       I    between atoms: C27_27  and  N7_100 
REMARK       I    between atoms: C28_28  and  C29_29 
REMARK       I    between atoms: C28_28  and  C33_33 
REMARK       I    between atoms: C28_28  and  N7_100 
REMARK       I    between atoms: C29_29  and  C30_30 
REMARK       I    between atoms: C30_30  and  C31_31 
REMARK       I    between atoms: C31_31  and  C32_32 
REMARK       I    between atoms: C32_32  and  N8_101 
REMARK       I    between atoms: C33_33  and  N9_102 
REMARK       I    between atoms: C34_34  and  C35_35 
REMARK       I    between atoms: C34_34  and  C39_39 
REMARK       I    between atoms: C34_34  and  N9_102 
REMARK       I    between atoms: C35_35  and  C36_36 
REMARK       I    between atoms: C36_36  and  C37_37 
REMARK       I    between atoms: C37_37  and  N10_103 
REMARK       I    between atoms: C38_38  and  N11_105 
REMARK       I    between atoms: C38_38  and  N12_106 
REMARK       I    between atoms: C39_39  and  N13_107 
REMARK       I    between atoms: C40_40  and  C41_41 
REMARK       I    between atoms: C40_40  and  C45_45 
REMARK       I    between atoms: C40_40  and  N13_107 
REMARK       I    between atoms: C41_41  and  C42_42 
REMARK       I    between atoms: C42_42  and  C43_43 
REMARK       I    between atoms: C43_43  and  C44_44 
REMARK       I    between atoms: C44_44  and  N14_108 
REMARK       I    between atoms: C45_45  and  N15_109 
REMARK       I    between atoms: C46_46  and  C47_47 
REMARK       I    between atoms: C46_46  and  C50_50 
REMARK       I    between atoms: C46_46  and  N15_109 
REMARK       I    between atoms: C50_50  and  N16_110 
REMARK       I    between atoms: C51_51  and  C52_52 
REMARK       I    between atoms: C51_51  and  C55_55 
REMARK       I    between atoms: C51_51  and  N16_110 
REMARK       I    between atoms: C55_55  and  N17_111 
REMARK       I    between atoms: C56_56  and  C57_57 
REMARK       I    between atoms: C56_56  and  C72_72 
REMARK       I    between atoms: C56_56  and  N17_111 
REMARK       I    between atoms: C57_57  and  S1_115 
REMARK       I    between atoms: C58_58  and  S1_115 
REMARK       I    between atoms: C62_62  and  C63_63 
REMARK       I    between atoms: C62_62  and  N18_112 
REMARK       I    between atoms: C63_63  and  C64_64 
REMARK       I    between atoms: C64_64  and  C65_65 
REMARK       I    between atoms: C65_65  and  N19_113 
REMARK       I    between atoms: C67_67  and  O16_90 
REMARK       I    between atoms: C68_68  and  O15_89 
REMARK       I    between atoms: C69_69  and  O14_88 
REMARK       I    between atoms: C70_70  and  C71_71 
REMARK       I    between atoms: C71_71  and  O13_87 
REMARK       I    between atoms: C72_72  and  O18_92 
REMARK       I    between atoms: C73_73  and  N20_114 
ROOT
HETATM    1  C1  UNL     1     -14.982   3.503   4.748  1.00  0.00     0.012 C 
HETATM    2  C2  UNL     1     -15.239   3.189   3.271  1.00  0.00     0.009 C 
HETATM    3  C3  UNL     1     -16.437   2.243   3.134  1.00  0.00     0.012 C 
HETATM    4  C4  UNL     1     -13.962   2.652   2.575  1.00  0.00     0.179 C 
HETATM    5  C5  UNL     1     -14.135   2.653   1.024  1.00  0.00     0.241 C 
HETATM    6  C6  UNL     1     -13.077   1.868  -1.088  1.00  0.00     0.180 C 
HETATM    7  C7  UNL     1     -12.707   0.476  -1.656  1.00  0.00     0.009 C 
HETATM    8  C8  UNL     1     -12.535   0.499  -3.179  1.00  0.00     0.012 C 
HETATM    9  C9  UNL     1     -13.770  -0.573  -1.302  1.00  0.00     0.012 C 
HETATM   10  C10 UNL     1     -11.928   2.885  -1.331  1.00  0.00     0.241 C 
HETATM   11  C11 UNL     1      -9.775   3.805  -0.473  1.00  0.00     0.180 C 
HETATM   12  C12 UNL     1      -9.388   4.533   0.835  1.00  0.00     0.009 C 
HETATM   13  C13 UNL     1      -8.262   5.549   0.594  1.00  0.00     0.012 C 
HETATM   14  C14 UNL     1     -10.581   5.277   1.450  1.00  0.00     0.012 C 
HETATM   15  C15 UNL     1      -8.677   2.824  -0.967  1.00  0.00     0.241 C 
HETATM   16  C16 UNL     1      -8.119   1.247  -2.856  1.00  0.00     0.176 C 
HETATM   17  C17 UNL     1      -6.836   1.927  -3.360  1.00  0.00     0.035 C 
HETATM   18  C18 UNL     1      -7.092   3.111  -4.304  1.00  0.00     0.004 C 
HETATM   19  C19 UNL     1      -7.650   2.692  -5.671  1.00  0.00     0.030 C 
HETATM   20  C20 UNL     1      -8.919   3.438  -6.086  1.00  0.00     0.267 C 
HETATM   21  C21 UNL     1      -7.842  -0.047  -2.057  1.00  0.00     0.241 C 
HETATM   22  C22 UNL     1      -6.733  -0.967  -0.021  1.00  0.00     0.176 C 
HETATM   23  C23 UNL     1      -7.646  -0.889   1.217  1.00  0.00     0.035 C 
HETATM   24  C24 UNL     1      -9.133  -1.135   0.944  1.00  0.00     0.004 C 
HETATM   25  C25 UNL     1      -9.444  -2.589   0.582  1.00  0.00     0.030 C 
HETATM   26  C26 UNL     1     -10.917  -2.761   0.219  1.00  0.00     0.267 C 
HETATM   27  C27 UNL     1      -5.259  -0.836   0.422  1.00  0.00     0.241 C 
HETATM   28  C28 UNL     1      -3.356  -2.046   1.428  1.00  0.00     0.176 C 
HETATM   29  C29 UNL     1      -3.155  -2.586   2.850  1.00  0.00     0.035 C 
HETATM   30  C30 UNL     1      -3.831  -1.759   3.951  1.00  0.00     0.004 C 
HETATM   31  C31 UNL     1      -3.349  -0.308   4.013  1.00  0.00     0.030 C 
HETATM   32  C32 UNL     1      -3.980   0.430   5.194  1.00  0.00     0.267 C 
HETATM   33  C33 UNL     1      -2.717  -3.012   0.411  1.00  0.00     0.241 C 
HETATM   34  C34 UNL     1      -0.565  -3.806  -0.547  1.00  0.00     0.176 C 
HETATM   35  C35 UNL     1      -0.192  -5.119   0.150  1.00  0.00     0.036 C 
HETATM   36  C36 UNL     1       0.493  -6.129  -0.777  1.00  0.00     0.022 C 
HETATM   37  C37 UNL     1       0.823  -7.443  -0.068  1.00  0.00     0.121 C 
HETATM   38  C38 UNL     1      -0.363  -9.288   0.785  1.00  0.00     0.121 C 
HETATM   39  C39 UNL     1       0.674  -2.975  -0.934  1.00  0.00     0.241 C 
HETATM   40  C40 UNL     1       2.332  -2.496  -2.725  1.00  0.00     0.176 C 
HETATM   41  C41 UNL     1       2.197  -2.389  -4.251  1.00  0.00     0.035 C 
HETATM   42  C42 UNL     1       2.827  -1.127  -4.852  1.00  0.00     0.004 C 
HETATM   43  C43 UNL     1       4.344  -1.035  -4.690  1.00  0.00     0.030 C 
HETATM   44  C44 UNL     1       4.899   0.145  -5.491  1.00  0.00     0.267 C 
HETATM   45  C45 UNL     1       3.608  -3.252  -2.281  1.00  0.00     0.241 C 
HETATM   46  C46 UNL     1       5.134  -3.594  -0.333  1.00  0.00     0.180 C 
HETATM   47  C47 UNL     1       4.908  -4.897   0.469  1.00  0.00     0.009 C 
HETATM   48  C48 UNL     1       3.736  -4.796   1.449  1.00  0.00     0.012 C 
HETATM   49  C49 UNL     1       4.708  -6.098  -0.460  1.00  0.00     0.012 C 
HETATM   50  C50 UNL     1       5.719  -2.468   0.554  1.00  0.00     0.241 C 
HETATM   51  C51 UNL     1       7.681  -1.748   1.928  1.00  0.00     0.180 C 
HETATM   52  C52 UNL     1       6.985  -1.549   3.295  1.00  0.00     0.009 C 
HETATM   53  C53 UNL     1       7.908  -0.835   4.295  1.00  0.00     0.012 C 
HETATM   54  C54 UNL     1       6.563  -2.886   3.920  1.00  0.00     0.012 C 
HETATM   55  C55 UNL     1       7.951  -0.436   1.142  1.00  0.00     0.241 C 
HETATM   56  C56 UNL     1       8.612   0.401  -1.104  1.00  0.00     0.191 C 
HETATM   57  C57 UNL     1      10.040   0.528  -1.648  1.00  0.00     0.111 C 
HETATM   58  C58 UNL     1      10.872   2.086   0.567  1.00  0.00     0.148 C 
HETATM   59  C59 UNL     1      11.022   3.390  -0.203  1.00  0.00     0.128 C 
HETATM   60  C60 UNL     1      12.155   4.096   0.478  1.00  0.00     0.228 C 
HETATM   61  C61 UNL     1      11.802   2.247   1.751  1.00  0.00     0.240 C 
HETATM   62  C62 UNL     1      13.554   3.829   2.514  1.00  0.00     0.135 C 
HETATM   63  C63 UNL     1      14.883   3.108   2.268  1.00  0.00     0.022 C 
HETATM   64  C64 UNL     1      15.493   3.439   0.903  1.00  0.00     0.032 C 
HETATM   65  C65 UNL     1      16.878   2.797   0.739  1.00  0.00     0.273 C 
HETATM   66  C66 UNL     1      18.504   2.083  -0.930  1.00  0.00     0.307 C 
HETATM   67  C67 UNL     1      19.842   2.320  -0.199  1.00  0.00     0.177 C 
HETATM   68  C68 UNL     1      20.180   3.815  -0.096  1.00  0.00     0.179 C 
HETATM   69  C69 UNL     1      19.367   4.636  -1.103  1.00  0.00     0.184 C 
HETATM   70  C70 UNL     1      17.856   4.454  -0.806  1.00  0.00     0.277 C 
HETATM   71  C71 UNL     1      16.993   5.093  -1.917  1.00  0.00     0.202 C 
HETATM   72  C72 UNL     1       7.699   0.035  -2.271  1.00  0.00     0.164 C 
HETATM   73  C73 UNL     1     -12.192   0.971   3.094  1.00  0.00     0.214 C 
HETATM   74  C74 UNL     1     -11.856  -0.201   3.973  1.00  0.00     0.117 C 
HETATM   75  O1  UNL     1     -14.835   3.473   0.435  1.00  0.00    -0.271 OA
HETATM   76  O2  UNL     1     -11.747   3.427  -2.423  1.00  0.00    -0.271 OA
HETATM   77  O3  UNL     1      -7.588   2.688  -0.416  1.00  0.00    -0.271 OA
HETATM   78  O4  UNL     1      -8.353  -1.123  -2.364  1.00  0.00    -0.271 OA
HETATM   79  O5  UNL     1      -4.587   0.178   0.240  1.00  0.00    -0.271 OA
HETATM   80  O6  UNL     1      -3.386  -3.799  -0.259  1.00  0.00    -0.271 OA
HETATM   81  O7  UNL     1       1.180  -2.153  -0.169  1.00  0.00    -0.271 OA
HETATM   82  O8  UNL     1       4.261  -3.976  -3.028  1.00  0.00    -0.271 OA
HETATM   83  O9  UNL     1       5.093  -1.442   0.812  1.00  0.00    -0.271 OA
HETATM   84  O10 UNL     1       7.852   0.695   1.606  1.00  0.00    -0.271 OA
HETATM   85  O11 UNL     1      12.650   5.138   0.073  1.00  0.00    -0.273 OA
HETATM   86  O12 UNL     1      11.918   1.456   2.678  1.00  0.00    -0.272 OA
HETATM   87  O13 UNL     1      17.399   4.666  -3.215  1.00  0.00    -0.399 OA
HETATM   88  O14 UNL     1      19.760   6.014  -0.973  1.00  0.00    -0.391 OA
HETATM   89  O15 UNL     1      21.581   4.020  -0.352  1.00  0.00    -0.390 OA
HETATM   90  O16 UNL     1      19.799   1.749   1.119  1.00  0.00    -0.391 OA
HETATM   91  O17 UNL     1       7.276  -1.090  -2.506  1.00  0.00    -0.648 OA
HETATM   92  O18 UNL     1       7.455   1.077  -3.088  1.00  0.00    -0.775 OA
HETATM   93  O19 UNL     1     -11.388   1.469   2.309  1.00  0.00    -0.274 OA
HETATM   94  N1  UNL     1     -13.325   1.767   0.351  1.00  0.00    -0.346 N 
HETATM   95  N2  UNL     1     -11.005   3.023  -0.313  1.00  0.00    -0.346 N 
HETATM   96  N3  UNL     1      -9.012   2.137  -2.116  1.00  0.00    -0.346 N 
HETATM   97  N4  UNL     1     -10.043   3.118  -5.215  1.00  0.00     0.078 N 
HETATM   98  N5  UNL     1      -7.028   0.101  -0.963  1.00  0.00    -0.346 N 
HETATM   99  N6  UNL     1     -11.221  -4.167  -0.024  1.00  0.00     0.078 N 
HETATM  100  N7  UNL     1      -4.775  -1.939   1.098  1.00  0.00    -0.346 N 
HETATM  101  N8  UNL     1      -3.546   1.822   5.237  1.00  0.00     0.078 N 
HETATM  102  N9  UNL     1      -1.346  -2.963   0.356  1.00  0.00    -0.346 N 
HETATM  103  N10 UNL     1      -0.423  -8.118   0.274  1.00  0.00    -0.372 N 
ATOM    104  H10 UNL     1      -1.323  -7.667   0.109  1.00  0.00     0.161 HD
HETATM  105  N11 UNL     1       0.710 -10.049   1.091  1.00  0.00    -0.279 NA
HETATM  106  N12 UNL     1      -1.501  -9.945   1.094  1.00  0.00    -0.279 NA
HETATM  107  N13 UNL     1       1.175  -3.222  -2.191  1.00  0.00    -0.346 N 
HETATM  108  N14 UNL     1       6.357   0.237  -5.347  1.00  0.00     0.078 N 
HETATM  109  N15 UNL     1       3.908  -3.094  -0.947  1.00  0.00    -0.346 N 
HETATM  110  N16 UNL     1       7.001  -2.692   1.022  1.00  0.00    -0.346 N 
HETATM  111  N17 UNL     1       8.473  -0.671  -0.119  1.00  0.00    -0.344 N 
HETATM  112  N18 UNL     1      12.507   3.409   1.601  1.00  0.00    -0.287 N 
HETATM  113  N19 UNL     1      17.429   3.038  -0.606  1.00  0.00     0.100 N 
HETATM  114  N20 UNL     1     -13.502   1.380   3.157  1.00  0.00    -0.348 N 
HETATM  115  S1  UNL     1      11.387   0.619  -0.404  1.00  0.00    -0.152 SA
HETATM  116  HA9 UNL     1      16.625   4.770  -3.796  1.00  0.00     0.209 HD
HETATM  117  HB0 UNL     1      19.459   6.458  -1.787  1.00  0.00     0.210 HD
HETATM  118  HB1 UNL     1      21.682   4.992  -0.390  1.00  0.00     0.210 HD
HETATM  119  HB2 UNL     1      19.771   0.784   1.010  1.00  0.00     0.210 HD
HETATM  120  HB3 UNL     1       6.919   0.713  -3.850  1.00  0.00     0.167 HD
HETATM  121  HB4 UNL     1     -12.616   1.304   0.905  1.00  0.00     0.163 HD
HETATM  122  HB5 UNL     1     -11.066   2.423   0.505  1.00  0.00     0.163 HD
HETATM  123  HB6 UNL     1      -9.858   2.424  -2.602  1.00  0.00     0.163 HD
HETATM  124  HB7 UNL     1     -10.913   3.401  -5.668  1.00  0.00     0.312 HD
HETATM  125  HB8 UNL     1     -10.007   3.698  -4.375  1.00  0.00     0.312 HD
HETATM  126  HB9 UNL     1      -6.774   1.050  -0.679  1.00  0.00     0.163 HD
HETATM  127  HC0 UNL     1     -10.620  -4.510  -0.775  1.00  0.00     0.312 HD
HETATM  128  HC1 UNL     1     -12.174  -4.247  -0.377  1.00  0.00     0.312 HD
HETATM  129  HC2 UNL     1      -5.225  -2.825   0.885  1.00  0.00     0.163 HD
HETATM  130  HC3 UNL     1      -2.528   1.863   5.267  1.00  0.00     0.312 HD
HETATM  131  HC4 UNL     1      -3.812   2.284   4.366  1.00  0.00     0.312 HD
HETATM  132  HC5 UNL     1      -0.837  -2.239   0.856  1.00  0.00     0.163 HD
HETATM  133  HC6 UNL     1       1.583  -9.540   1.128  1.00  0.00     0.126 HD
HETATM  134  HC7 UNL     1       0.566 -10.583   1.941  1.00  0.00     0.126 HD
HETATM  135  HC8 UNL     1      -1.501 -10.895   0.742  1.00  0.00     0.126 HD
HETATM  136  HC9 UNL     1      -2.297  -9.434   0.723  1.00  0.00     0.126 HD
HETATM  137  HD0 UNL     1       0.869  -4.049  -2.689  1.00  0.00     0.163 HD
HETATM  138  HD1 UNL     1       6.697   0.874  -6.076  1.00  0.00     0.312 HD
HETATM  139  HD2 UNL     1       6.751  -0.676  -5.602  1.00  0.00     0.312 HD
HETATM  140  HD3 UNL     1       3.357  -2.427  -0.404  1.00  0.00     0.163 HD
HETATM  141  HD4 UNL     1       7.420  -3.605   0.896  1.00  0.00     0.163 HD
HETATM  142  HD5 UNL     1       8.285  -1.595  -0.496  1.00  0.00     0.163 HD
HETATM  143  HD6 UNL     1     -14.115   0.915   3.815  1.00  0.00     0.163 HD
ENDROOT
TORSDOF 65
