REMARK  12 active torsions:
REMARK  status: ('A' for Active; 'I' for Inactive)
REMARK    1  A    between atoms: C3_3  and  C27_27 
REMARK    2  A    between atoms: C5_5  and  N2_32 
REMARK    3  A    between atoms: C6_6  and  C7_7 
REMARK       I    between atoms: C6_6  and  N2_32 
REMARK    4  A    between atoms: C9_9  and  N4_34 
REMARK    5  A    between atoms: C11_11  and  C12_12 
REMARK       I    between atoms: C11_11  and  N4_34 
REMARK    6  A    between atoms: C14_14  and  N6_36 
REMARK    7  A    between atoms: C16_16  and  C17_17 
REMARK       I    between atoms: C16_16  and  N6_36 
REMARK    8  A    between atoms: C19_19  and  N8_38 
REMARK    9  A    between atoms: C21_21  and  C22_22 
REMARK       I    between atoms: C21_21  and  N8_38 
REMARK       I    between atoms: C27_27  and  N9_39 
REMARK   10  A    between atoms: C28_28  and  C29_29 
REMARK   11  A    between atoms: C28_28  and  N9_39 
REMARK   12  A    between atoms: C29_29  and  N10_40 
REMARK       I    between atoms: C30_30  and  N11_42 
REMARK       I    between atoms: C30_30  and  N12_43 
ROOT
HETATM    1  C7  UNL     1       1.918   3.722  -0.473  1.00  0.00     0.109 A 
HETATM    2  C8  UNL     1       0.786   2.962  -0.164  1.00  0.00    -0.002 A 
HETATM    3  C9  UNL     1      -0.360   3.771  -0.470  1.00  0.00     0.059 A 
HETATM    4  C10 UNL     1       0.103   4.990  -0.896  1.00  0.00     0.118 A 
HETATM    5  C26 UNL     1       0.747   1.582   0.402  1.00  0.00     0.053 C 
HETATM    6  N3  UNL     1       1.466   4.968  -0.851  1.00  0.00    -0.359 N 
HETATM    7  H25 UNL     1       2.081   5.737  -1.091  1.00  0.00     0.165 HD
ENDROOT
BRANCH   3   8
HETATM    8  N4  UNL     1      -1.680   3.374  -0.349  1.00  0.00    -0.320 N 
HETATM    9  C11 UNL     1      -2.794   4.150  -0.589  1.00  0.00     0.273 C 
HETATM   10  O2  UNL     1      -2.789   5.346  -0.864  1.00  0.00    -0.266 OA
HETATM   11  H26 UNL     1      -1.837   2.441   0.000  1.00  0.00     0.169 HD
BRANCH   9  12
HETATM   12  C12 UNL     1      -4.055   3.445  -0.402  1.00  0.00     0.109 C 
HETATM   13  C13 UNL     1      -4.442   2.110  -0.566  1.00  0.00    -0.002 C 
HETATM   14  C14 UNL     1      -5.798   2.012  -0.107  1.00  0.00     0.059 C 
HETATM   15  C25 UNL     1      -3.608   1.032  -1.173  1.00  0.00     0.053 C 
HETATM   16  C15 UNL     1      -6.224   3.295   0.164  1.00  0.00     0.118 C 
HETATM   17  N5  UNL     1      -5.181   4.148  -0.041  1.00  0.00    -0.359 N 
HETATM   18  H27 UNL     1      -5.194   5.154   0.082  1.00  0.00     0.165 HD
BRANCH  14  19
HETATM   19  N6  UNL     1      -6.674   0.953   0.066  1.00  0.00    -0.320 N 
HETATM   20  C16 UNL     1      -6.394  -0.399   0.047  1.00  0.00     0.273 C 
HETATM   21  O3  UNL     1      -5.295  -0.901  -0.150  1.00  0.00    -0.266 OA
HETATM   22  H28 UNL     1      -7.629   1.227   0.242  1.00  0.00     0.169 HD
BRANCH  20  23
HETATM   23  C17 UNL     1      -7.566  -1.229   0.306  1.00  0.00     0.109 A 
HETATM   24  C18 UNL     1      -7.864  -2.490  -0.212  1.00  0.00    -0.002 A 
HETATM   25  C19 UNL     1      -9.104  -2.908   0.364  1.00  0.00     0.059 A 
HETATM   26  C24 UNL     1      -7.024  -3.246  -1.187  1.00  0.00     0.053 C 
HETATM   27  C20 UNL     1      -9.514  -1.907   1.210  1.00  0.00     0.118 A 
HETATM   28  N7  UNL     1      -8.576  -0.913   1.188  1.00  0.00    -0.359 N 
HETATM   29  H29 UNL     1      -8.601  -0.093   1.778  1.00  0.00     0.165 HD
BRANCH  25  30
HETATM   30  N8  UNL     1      -9.748  -4.106   0.113  1.00  0.00    -0.321 N 
HETATM   31  C21 UNL     1     -10.947  -4.519   0.658  1.00  0.00     0.262 C 
HETATM   32  O4  UNL     1     -11.641  -3.881   1.447  1.00  0.00    -0.267 OA
HETATM   33  H30 UNL     1      -9.285  -4.737  -0.528  1.00  0.00     0.169 HD
BRANCH  31  34
HETATM   34  C22 UNL     1     -11.382  -5.890   0.191  1.00  0.00     0.069 C 
HETATM   35  C23 UNL     1     -12.532  -6.396   0.660  1.00  0.00     0.037 C 
HETATM   36 BR1  UNL     1     -10.332  -6.860  -1.019  1.00  0.00    -0.046 Br
ENDBRANCH  31  34
ENDBRANCH  25  30
ENDBRANCH  20  23
ENDBRANCH  14  19
ENDBRANCH   9  12
ENDBRANCH   3   8
BRANCH   1  37
HETATM   37  C6  UNL     1       3.350   3.458  -0.426  1.00  0.00     0.273 C 
HETATM   38  N2  UNL     1       3.686   2.132  -0.597  1.00  0.00    -0.320 N 
HETATM   39  H24 UNL     1       2.945   1.494  -0.841  1.00  0.00     0.169 HD
HETATM   40  O1  UNL     1       4.146   4.384  -0.300  1.00  0.00    -0.266 OA
BRANCH  38  41
HETATM   41  C5  UNL     1       4.962   1.597  -0.569  1.00  0.00     0.059 A 
HETATM   42  C2  UNL     1       5.298   0.225  -0.800  1.00  0.00    -0.002 A 
HETATM   43  C1  UNL     1       4.365  -0.895  -1.118  1.00  0.00     0.053 C 
HETATM   44  C3  UNL     1       6.683   0.109  -0.678  1.00  0.00     0.108 A 
HETATM   45  N1  UNL     1       7.164   1.369  -0.402  1.00  0.00    -0.359 N 
HETATM   46  C4  UNL     1       6.135   2.263  -0.315  1.00  0.00     0.118 A 
HETATM   47  H23 UNL     1       8.144   1.602  -0.311  1.00  0.00     0.165 HD
BRANCH  44  48
HETATM   48  C27 UNL     1       7.516  -1.069  -0.845  1.00  0.00     0.268 C 
HETATM   49  N9  UNL     1       8.759  -0.968  -0.259  1.00  0.00    -0.354 N 
HETATM   50  H31 UNL     1       8.862  -0.332   0.521  1.00  0.00     0.162 HD
HETATM   51  O5  UNL     1       7.154  -2.079  -1.440  1.00  0.00    -0.266 OA
BRANCH  49  52
HETATM   52  C28 UNL     1       9.637  -2.120  -0.177  1.00  0.00     0.142 C 
BRANCH  52  53
HETATM   53  C29 UNL     1      11.033  -1.704   0.293  1.00  0.00     0.141 C 
BRANCH  53  54
HETATM   54  N10 UNL     1      10.907  -0.967   1.557  1.00  0.00    -0.370 N 
HETATM   55  C30 UNL     1      11.976  -0.512   2.091  1.00  0.00     0.121 C 
HETATM   56  N11 UNL     1      11.913   0.177   3.250  1.00  0.00    -0.279 NA
HETATM   57  N12 UNL     1      13.258  -0.592   1.674  1.00  0.00    -0.279 NA
HETATM   58  H32 UNL     1      10.948   0.376   3.494  1.00  0.00     0.126 HD
HETATM   59  H33 UNL     1      12.460   1.029   3.228  1.00  0.00     0.126 HD
HETATM   60  H34 UNL     1      13.906  -0.706   2.446  1.00  0.00     0.126 HD
HETATM   61  H35 UNL     1      13.429  -1.288   0.959  1.00  0.00     0.126 HD
ATOM     62  H10 UNL     1       9.997  -0.823   1.994  1.00  0.00     0.161 HD
ENDBRANCH  53  54
ENDBRANCH  52  53
ENDBRANCH  49  52
ENDBRANCH  44  48
ENDBRANCH  38  41
ENDBRANCH   1  37
TORSDOF 12
