REMARK  0 active torsions:
REMARK  status: ('A' for Active; 'I' for Inactive)
REMARK       I    between atoms: C2_2  and  C3_3 
REMARK       I    between atoms: C3_3  and  C5_5 
REMARK       I    between atoms: C5_5  and  C6_6 
REMARK       I    between atoms: C5_5  and  N4_74 
REMARK       I    between atoms: C6_6  and  C7_7 
REMARK       I    between atoms: C6_6  and  O4_64 
REMARK       I    between atoms: C7_7  and  C8_8 
REMARK       I    between atoms: C8_8  and  N1_70 
REMARK       I    between atoms: C12_12  and  C13_13 
REMARK       I    between atoms: C13_13  and  C14_14 
REMARK       I    between atoms: C13_13  and  O3_63 
REMARK       I    between atoms: C14_14  and  C16_16 
REMARK       I    between atoms: C16_16  and  N2_71 
REMARK       I    between atoms: C17_17  and  C18_18 
REMARK       I    between atoms: C17_17  and  C25_25 
REMARK       I    between atoms: C17_17  and  N2_71 
REMARK       I    between atoms: C18_18  and  C19_19 
REMARK       I    between atoms: C31_31  and  C32_32 
REMARK       I    between atoms: C31_31  and  N4_74 
REMARK       I    between atoms: C32_32  and  C33_33 
REMARK       I    between atoms: C32_32  and  N5_75 
REMARK       I    between atoms: C36_36  and  C37_37 
REMARK       I    between atoms: C36_36  and  N5_75 
REMARK       I    between atoms: C37_37  and  C38_38 
REMARK       I    between atoms: C37_37  and  N6_76 
REMARK       I    between atoms: C42_42  and  C43_43 
REMARK       I    between atoms: C42_42  and  N6_76 
REMARK       I    between atoms: C43_43  and  C44_44 
REMARK       I    between atoms: C47_47  and  N7_77 
REMARK       I    between atoms: C50_50  and  C51_51 
REMARK       I    between atoms: C50_50  and  N7_77 
REMARK       I    between atoms: C51_51  and  C52_52 
REMARK       I    between atoms: C51_51  and  N10_80 
REMARK       I    between atoms: C52_52  and  C53_53 
REMARK       I    between atoms: C53_53  and  C54_54 
REMARK       I    between atoms: C54_54  and  N8_78 
REMARK       I    between atoms: C55_55  and  N8_78 
REMARK       I    between atoms: C55_55  and  N9_79 
REMARK       I    between atoms: C56_56  and  C57_57 
REMARK       I    between atoms: C56_56  and  N10_80 
REMARK       I    between atoms: C57_57  and  C58_58 
REMARK       I    between atoms: C57_57  and  N11_81 
ROOT
HETATM    1  C1  UNL     1      -3.756  -3.603  -2.490  1.00  0.00     0.005 C 
HETATM    2  C2  UNL     1      -2.526  -2.711  -2.585  1.00  0.00     0.002 C 
HETATM    3  C3  UNL     1      -2.593  -1.498  -3.539  1.00  0.00     0.006 C 
HETATM    4  C4  UNL     1      -3.081  -1.947  -4.930  1.00  0.00     0.012 C 
HETATM    5  C5  UNL     1      -3.356  -0.194  -3.106  1.00  0.00     0.119 C 
HETATM    6  C6  UNL     1      -4.609  -0.299  -2.179  1.00  0.00     0.152 C 
HETATM    7  C7  UNL     1      -4.345  -0.490  -0.686  1.00  0.00     0.137 C 
HETATM    8  C8  UNL     1      -5.584  -0.971   0.051  1.00  0.00     0.222 C 
HETATM    9  C9  UNL     1      -4.338  -0.635   2.229  1.00  0.00     0.126 C 
HETATM   10  C10 UNL     1      -4.821  -0.651   3.669  1.00  0.00     0.022 C 
HETATM   11  C11 UNL     1      -5.993  -1.623   3.636  1.00  0.00     0.029 C 
HETATM   12  C12 UNL     1      -6.637  -1.400   2.260  1.00  0.00     0.117 C 
HETATM   13  C13 UNL     1      -7.842  -0.407   2.254  1.00  0.00     0.156 C 
HETATM   14  C14 UNL     1      -9.072  -0.925   3.038  1.00  0.00     0.105 C 
HETATM   15  C15 UNL     1      -9.455  -2.370   2.714  1.00  0.00     0.022 C 
HETATM   16  C16 UNL     1     -10.289  -0.049   2.744  1.00  0.00     0.224 C 
HETATM   17  C17 UNL     1     -12.522   0.619   3.598  1.00  0.00     0.146 C 
HETATM   18  C18 UNL     1     -13.492  -0.155   2.681  1.00  0.00     0.070 C 
HETATM   19  C19 UNL     1     -14.722   0.637   2.302  1.00  0.00    -0.056 A 
HETATM   20  C20 UNL     1     -14.641   1.639   1.325  1.00  0.00     0.007 A 
HETATM   21  C21 UNL     1     -15.769   2.387   0.986  1.00  0.00     0.001 A 
HETATM   22  C22 UNL     1     -16.985   2.142   1.620  1.00  0.00     0.000 A 
HETATM   23  C23 UNL     1     -17.076   1.147   2.593  1.00  0.00     0.001 A 
HETATM   24  C24 UNL     1     -15.949   0.397   2.932  1.00  0.00     0.007 A 
HETATM   25  C25 UNL     1     -13.082   0.754   4.998  1.00  0.00     0.073 A 
HETATM   26  C26 UNL     1     -13.647   0.234   7.069  1.00  0.00     0.096 A 
HETATM   27  C27 UNL     1     -14.074   1.543   7.061  1.00  0.00     0.068 A 
HETATM   28  C28 UNL     1      -7.257   1.888   1.963  1.00  0.00     0.202 C 
HETATM   29  C29 UNL     1      -6.473   0.861  -3.140  1.00  0.00     0.202 C 
HETATM   30  C30 UNL     1      -2.588   2.132  -3.585  1.00  0.00     0.153 C 
HETATM   31  C31 UNL     1      -1.589   0.860  -1.670  1.00  0.00     0.243 C 
HETATM   32  C32 UNL     1      -0.710   2.051  -1.180  1.00  0.00     0.180 C 
HETATM   33  C33 UNL     1      -1.354   3.434  -0.935  1.00  0.00     0.009 C 
HETATM   34  C34 UNL     1      -0.400   4.351  -0.153  1.00  0.00     0.012 C 
HETATM   35  C35 UNL     1      -2.663   3.308  -0.146  1.00  0.00     0.012 C 
HETATM   36  C36 UNL     1       0.963   2.710  -2.985  1.00  0.00     0.241 C 
HETATM   37  C37 UNL     1       2.263   2.148  -3.658  1.00  0.00     0.174 C 
HETATM   38  C38 UNL     1       2.295   2.569  -5.163  1.00  0.00     0.009 C 
HETATM   39  C39 UNL     1       3.643   2.310  -5.835  1.00  0.00     0.012 C 
HETATM   40  C40 UNL     1       1.162   2.017  -6.036  1.00  0.00     0.012 C 
HETATM   41  C41 UNL     1       1.949  -0.320  -4.098  1.00  0.00     0.144 C 
HETATM   42  C42 UNL     1       3.658   0.419  -2.495  1.00  0.00     0.121 C 
HETATM   43  C43 UNL     1       4.947   0.315  -3.321  1.00  0.00     0.058 C 
HETATM   44  C44 UNL     1       6.113  -0.138  -2.475  1.00  0.00    -0.057 A 
HETATM   45  C45 UNL     1       6.897   0.794  -1.786  1.00  0.00     0.009 A 
HETATM   46  C46 UNL     1       7.967   0.377  -0.986  1.00  0.00     0.030 A 
HETATM   47  C47 UNL     1       8.270  -0.978  -0.859  1.00  0.00     0.034 A 
HETATM   48  C48 UNL     1       7.482  -1.912  -1.543  1.00  0.00     0.030 A 
HETATM   49  C49 UNL     1       6.412  -1.497  -2.343  1.00  0.00     0.009 A 
HETATM   50  C50 UNL     1      10.256  -0.759   0.657  1.00  0.00     0.245 C 
HETATM   51  C51 UNL     1      11.235  -1.660   1.451  1.00  0.00     0.177 C 
HETATM   52  C52 UNL     1      10.564  -2.126   2.749  1.00  0.00     0.036 C 
HETATM   53  C53 UNL     1      11.152  -3.408   3.357  1.00  0.00     0.022 C 
HETATM   54  C54 UNL     1      12.548  -3.262   3.957  1.00  0.00     0.124 C 
HETATM   55  C55 UNL     1      14.900  -3.449   3.395  1.00  0.00     0.313 C 
HETATM   56  C56 UNL     1      13.494  -0.889   0.825  1.00  0.00     0.251 C 
HETATM   57  C57 UNL     1      14.508   0.261   1.040  1.00  0.00     0.312 C 
HETATM   58  C58 UNL     1      15.565   0.359  -0.087  1.00  0.00     0.020 C 
HETATM   59  C59 UNL     1      16.282   1.714  -0.042  1.00  0.00     0.012 C 
HETATM   60  C60 UNL     1      16.610  -0.763  -0.078  1.00  0.00     0.012 C 
HETATM   61  O1  UNL     1      -6.578  -1.404  -0.532  1.00  0.00    -0.273 OA
HETATM   62  O2  UNL     1     -10.442   0.594   1.710  1.00  0.00    -0.273 OA
HETATM   63  O3  UNL     1      -7.446   0.827   2.894  1.00  0.00    -0.388 OA
HETATM   64  O4  UNL     1      -5.335   0.957  -2.290  1.00  0.00    -0.388 OA
HETATM   65  O5  UNL     1      -1.436  -0.218  -1.077  1.00  0.00    -0.271 OA
HETATM   66  O6  UNL     1       0.394   3.724  -3.377  1.00  0.00    -0.271 OA
HETATM   67  O7  UNL     1      10.323   0.466   0.749  1.00  0.00    -0.271 OA
HETATM   68  O8  UNL     1      15.280  -3.516   4.553  1.00  0.00    -0.248 OA
HETATM   69  O9  UNL     1      13.621  -1.795   0.007  1.00  0.00    -0.271 OA
HETATM   70  N1  UNL     1      -5.517  -0.937   1.431  1.00  0.00    -0.345 N 
HETATM   71  N2  UNL     1     -11.252  -0.094   3.724  1.00  0.00    -0.350 N 
HETATM   72  N3  UNL     1     -13.074  -0.216   5.896  1.00  0.00    -0.361 N 
ATOM     73  H3  UNL     1     -12.702  -1.154   5.745  1.00  0.00     0.165 HD
HETATM   74  N4  UNL     1      -2.428   0.936  -2.769  1.00  0.00    -0.347 N 
HETATM   75  N5  UNL     1       0.575   1.995  -1.876  1.00  0.00    -0.346 N 
HETATM   76  N6  UNL     1       2.431   0.735  -3.232  1.00  0.00    -0.404 N 
HETATM   77  N7  UNL     1       9.327  -1.483  -0.072  1.00  0.00    -0.325 N 
HETATM   78  N8  UNL     1      13.600  -3.422   2.979  1.00  0.00    -0.343 N 
HETATM   79  N9  UNL     1      15.769  -3.361   2.358  1.00  0.00    -0.352 N 
HETATM   80  N10 UNL     1      12.430  -0.858   1.717  1.00  0.00    -0.346 N 
HETATM   81  N11 UNL     1      15.106   0.140   2.385  1.00  0.00     0.092 N 
HETATM   82  S1  UNL     1     -13.747   2.250   5.535  1.00  0.00    -0.085 SA
HETATM   83  H87 UNL     1     -11.141  -0.687   4.540  1.00  0.00     0.163 HD
HETATM   84  H88 UNL     1       1.068   1.105  -1.809  1.00  0.00     0.163 HD
HETATM   85  H89 UNL     1       9.436  -2.489  -0.084  1.00  0.00     0.169 HD
HETATM   86  H90 UNL     1      13.483  -2.962   2.086  1.00  0.00     0.164 HD
HETATM   87  H91 UNL     1      16.730  -3.535   2.625  1.00  0.00     0.160 HD
HETATM   88  H92 UNL     1      15.485  -3.800   1.491  1.00  0.00     0.160 HD
HETATM   89  H93 UNL     1      12.233   0.064   2.098  1.00  0.00     0.163 HD
HETATM   90  H94 UNL     1      14.367   0.032   3.080  1.00  0.00     0.313 HD
HETATM   91  H95 UNL     1      15.633  -0.737   2.437  1.00  0.00     0.313 HD
ENDROOT
TORSDOF 34
