REMARK  9 active torsions:
REMARK  status: ('A' for Active; 'I' for Inactive)
REMARK       I    between atoms: C2_2  and  N1_33 
REMARK       I    between atoms: C2_2  and  N2_34 
REMARK    1  A    between atoms: C9_9  and  N3_35 
REMARK    2  A    between atoms: C12_12  and  N3_35 
REMARK    3  A    between atoms: C14_14  and  N5_38 
REMARK    4  A    between atoms: C17_17  and  C18_18 
REMARK       I    between atoms: C17_17  and  N5_38 
REMARK    5  A    between atoms: C21_21  and  O3_42 
REMARK    6  A    between atoms: C24_24  and  O3_42 
REMARK    7  A    between atoms: C31_31  and  C32_32 
REMARK    8  A    between atoms: C31_31  and  N6_39 
REMARK    9  A    between atoms: C32_32  and  O4_43 
ROOT
HETATM    1  C12 UNL     1       4.537   2.249   3.070  1.00  0.00     0.039 A 
HETATM    2  C13 UNL     1       3.357   1.815   2.449  1.00  0.00     0.078 A 
HETATM    3  C14 UNL     1       2.225   1.596   3.221  1.00  0.00     0.109 A 
HETATM    4  C15 UNL     1       3.349   2.195   5.143  1.00  0.00     0.092 A 
HETATM    5  C16 UNL     1       4.521   2.439   4.453  1.00  0.00     0.046 A 
HETATM    6  N4  UNL     1       2.205   1.785   4.558  1.00  0.00    -0.352 N 
ATOM      7  H4  UNL     1       1.358   1.624   5.104  1.00  0.00     0.166 HD
ENDROOT
BRANCH   3   8
HETATM    8  N5  UNL     1       0.993   1.175   2.717  1.00  0.00    -0.309 N 
HETATM    9  C17 UNL     1       0.667   0.845   1.424  1.00  0.00     0.257 C 
HETATM   10  O2  UNL     1       1.427   0.815   0.465  1.00  0.00    -0.267 OA
HETATM   11  H35 UNL     1       0.314   1.059   3.456  1.00  0.00     0.170 HD
BRANCH   9  12
HETATM   12  C18 UNL     1      -0.757   0.456   1.211  1.00  0.00     0.032 A 
HETATM   13  C19 UNL     1      -1.802   1.018   1.952  1.00  0.00     0.020 A 
HETATM   14  C20 UNL     1      -3.120   0.620   1.707  1.00  0.00     0.038 A 
HETATM   15  C21 UNL     1      -3.413  -0.331   0.725  1.00  0.00     0.069 A 
HETATM   16  C22 UNL     1      -2.373  -0.874  -0.029  1.00  0.00     0.038 A 
HETATM   17  C23 UNL     1      -1.051  -0.479   0.211  1.00  0.00     0.020 A 
BRANCH  15  18
HETATM   18  O3  UNL     1      -4.743  -0.614   0.595  1.00  0.00    -0.346 OA
BRANCH  18  19
HETATM   19  C24 UNL     1      -5.158  -1.676  -0.280  1.00  0.00     0.133 C 
HETATM   20  C25 UNL     1      -5.313  -1.159  -1.722  1.00  0.00     0.068 C 
HETATM   21  C26 UNL     1      -6.681  -0.508  -1.998  1.00  0.00     0.226 C 
HETATM   22  C27 UNL     1      -6.984   0.658  -1.052  1.00  0.00     0.038 C 
HETATM   23  N6  UNL     1      -7.702  -1.526  -1.678  1.00  0.00     0.100 N 
HETATM   24  C28 UNL     1      -7.691   0.011   0.138  1.00  0.00     0.038 C 
HETATM   25  C29 UNL     1      -7.732  -1.480  -0.204  1.00  0.00     0.226 C 
HETATM   26  C30 UNL     1      -6.479  -2.238   0.278  1.00  0.00     0.068 C 
BRANCH  23  27
HETATM   27  C31 UNL     1      -8.995  -1.236  -2.328  1.00  0.00     0.299 C 
BRANCH  27  28
HETATM   28  C32 UNL     1     -10.070  -2.315  -2.091  1.00  0.00     0.194 C 
BRANCH  28  29
HETATM   29  O4  UNL     1     -10.781  -2.111  -0.872  1.00  0.00    -0.399 OA
HETATM   30  H36 UNL     1     -11.136  -1.207  -0.888  1.00  0.00     0.209 HD
ENDBRANCH  28  29
ENDBRANCH  27  28
ENDBRANCH  23  27
ENDBRANCH  18  19
ENDBRANCH  15  18
ENDBRANCH   9  12
ENDBRANCH   3   8
BRANCH   1  31
HETATM   31  N3  UNL     1       5.730   2.486   2.331  1.00  0.00    -0.351 N 
HETATM   32  C11 UNL     1       6.089   3.910   2.315  1.00  0.00     0.156 C 
BRANCH  31  33
HETATM   33  C9  UNL     1       6.177   1.687   1.245  1.00  0.00     0.035 A 
HETATM   34  C8  UNL     1       6.820   2.206   0.115  1.00  0.00     0.032 A 
HETATM   35  C7  UNL     1       7.270   1.394  -0.939  1.00  0.00     0.033 A 
HETATM   36  C6  UNL     1       7.072   0.005  -0.858  1.00  0.00     0.053 A 
HETATM   37  C5  UNL     1       6.446  -0.555   0.256  1.00  0.00    -0.005 A 
HETATM   38  N2  UNL     1       7.419  -1.034  -1.735  1.00  0.00    -0.274 N 
HETATM   39  C4  UNL     1       6.388  -1.953   0.054  1.00  0.00     0.031 A 
HETATM   40  C10 UNL     1       6.009   0.289   1.300  1.00  0.00     0.043 A 
HETATM   41  C3  UNL     1       6.964  -2.219  -1.164  1.00  0.00     0.103 A 
HETATM   42  C2  UNL     1       8.093  -0.882  -2.978  1.00  0.00     0.326 C 
HETATM   43  N1  UNL     1       8.506  -2.078  -3.531  1.00  0.00    -0.347 N 
HETATM   44  O1  UNL     1       8.288   0.226  -3.459  1.00  0.00    -0.246 OA
HETATM   45  C1  UNL     1       9.288  -2.074  -4.741  1.00  0.00     0.151 C 
HETATM   46  H34 UNL     1       8.569  -2.901  -2.949  1.00  0.00     0.163 HD
ENDBRANCH  31  33
ENDBRANCH   1  31
TORSDOF 9
