REMARK  10 active torsions:
REMARK  status: ('A' for Active; 'I' for Inactive)
REMARK    1  A    between atoms: C3_3  and  N4_31 
REMARK    2  A    between atoms: C5_5  and  N1_28 
REMARK    3  A    between atoms: C8_8  and  C9_9 
REMARK       I    between atoms: C8_8  and  N1_28 
REMARK    4  A    between atoms: C12_12  and  N2_29 
REMARK    5  A    between atoms: C19_19  and  C20_20 
REMARK    6  A    between atoms: C19_19  and  N3_30 
REMARK    7  A    between atoms: C20_20  and  O2_39 
REMARK    8  A    between atoms: C21_21  and  C22_22 
REMARK       I    between atoms: C21_21  and  N4_31 
REMARK    9  A    between atoms: C25_25  and  N8_37 
REMARK   10  A    between atoms: C26_26  and  N7_36 
ROOT
HETATM    1  C1  UNL     1       5.820   2.406  -4.007  1.00  0.00     0.050 C 
HETATM    2  C2  UNL     1       4.468   1.997  -3.484  1.00  0.00    -0.035 A 
HETATM    3  C3  UNL     1       4.259   1.580  -2.153  1.00  0.00     0.043 A 
HETATM    4  C4  UNL     1       2.964   1.218  -1.754  1.00  0.00     0.059 A 
HETATM    5  C5  UNL     1       1.879   1.254  -2.644  1.00  0.00     0.037 A 
HETATM    6  C6  UNL     1       2.097   1.670  -3.953  1.00  0.00     0.030 A 
HETATM    7  C7  UNL     1       3.379   2.036  -4.369  1.00  0.00     0.011 A 
ENDROOT
BRANCH   3   8
HETATM    8  N4  UNL     1       5.366   1.554  -1.268  1.00  0.00    -0.322 N 
HETATM    9  C21 UNL     1       5.401   1.124   0.047  1.00  0.00     0.259 C 
HETATM   10  O3  UNL     1       4.463   0.636   0.668  1.00  0.00    -0.267 OA
HETATM   11  H25 UNL     1       6.249   1.830  -1.672  1.00  0.00     0.169 HD
BRANCH   9  12
HETATM   12  C22 UNL     1       6.699   1.282   0.692  1.00  0.00     0.072 A 
HETATM   13  C23 UNL     1       7.697   2.181   0.366  1.00  0.00     0.162 A 
HETATM   14  O4  UNL     1       8.754   2.068   1.210  1.00  0.00    -0.304 OA
HETATM   15  C24 UNL     1       8.450   1.090   2.107  1.00  0.00     0.164 A 
HETATM   16  C27 UNL     1       7.196   0.573   1.832  1.00  0.00     0.076 A 
HETATM   17  N5  UNL     1       9.278   0.728   3.092  1.00  0.00    -0.312 N 
HETATM   18  C26 UNL     1       6.765  -0.448   2.681  1.00  0.00     0.116 A 
HETATM   19  N6  UNL     1       7.570  -0.829   3.693  1.00  0.00    -0.319 N 
HETATM   20  C25 UNL     1       8.772  -0.252   3.839  1.00  0.00     0.158 A 
ATOM     21  H6  UNL     1       7.266  -1.553   4.345  1.00  0.00     0.170 HD
ATOM     22  H5  UNL     1      10.191   1.153   3.253  1.00  0.00     0.170 HD
BRANCH  18  23
HETATM   23  N7  UNL     1       5.553  -1.101   2.545  1.00  0.00    -0.385 N 
HETATM   24  H26 UNL     1       5.264  -1.578   3.389  1.00  0.00     0.157 HD
HETATM   25  H27 UNL     1       4.834  -0.598   2.024  1.00  0.00     0.157 HD
ENDBRANCH  18  23
BRANCH  20  26
HETATM   26  N8  UNL     1       9.542  -0.693   4.898  1.00  0.00    -0.274 NA
HETATM   27  H28 UNL     1      10.188   0.028   5.187  1.00  0.00     0.127 HD
HETATM   28  H29 UNL     1       8.952  -1.108   5.605  1.00  0.00     0.127 HD
ENDBRANCH  20  26
ENDBRANCH   9  12
ENDBRANCH   3   8
BRANCH   5  29
HETATM   29  N1  UNL     1       0.618   0.871  -2.139  1.00  0.00    -0.323 N 
HETATM   30  C8  UNL     1      -0.571   0.765  -2.837  1.00  0.00     0.256 C 
HETATM   31  O1  UNL     1      -0.734   0.927  -4.041  1.00  0.00    -0.267 OA
HETATM   32  H24 UNL     1       0.609   0.574  -1.171  1.00  0.00     0.169 HD
BRANCH  30  33
HETATM   33  C9  UNL     1      -1.749   0.374  -2.012  1.00  0.00     0.032 A 
HETATM   34  C10 UNL     1      -1.915   0.817  -0.699  1.00  0.00     0.019 A 
HETATM   35  C11 UNL     1      -3.041   0.420   0.037  1.00  0.00     0.030 A 
HETATM   36  C12 UNL     1      -4.035  -0.414  -0.504  1.00  0.00     0.030 A 
HETATM   37  C13 UNL     1      -3.846  -0.829  -1.833  1.00  0.00     0.030 A 
HETATM   38  C14 UNL     1      -2.728  -0.439  -2.582  1.00  0.00     0.019 A 
BRANCH  36  39
HETATM   39  N2  UNL     1      -5.138  -0.803   0.235  1.00  0.00    -0.378 N 
HETATM   40  C15 UNL     1      -5.972  -1.950  -0.156  1.00  0.00     0.153 C 
HETATM   41  C16 UNL     1      -6.717  -2.547   1.064  1.00  0.00     0.292 C 
HETATM   42  N3  UNL     1      -7.538  -1.602   1.853  1.00  0.00     0.093 N 
HETATM   43  C17 UNL     1      -7.120  -0.204   1.610  1.00  0.00     0.292 C 
HETATM   44  C18 UNL     1      -5.598  -0.031   1.401  1.00  0.00     0.153 C 
BRANCH  42  45
HETATM   45  C19 UNL     1      -8.981  -1.755   1.628  1.00  0.00     0.298 C 
BRANCH  45  46
HETATM   46  C20 UNL     1      -9.573  -3.007   2.295  1.00  0.00     0.194 C 
BRANCH  46  47
HETATM   47  O2  UNL     1     -10.973  -3.089   2.039  1.00  0.00    -0.399 OA
HETATM   48  H30 UNL     1     -11.088  -3.226   1.084  1.00  0.00     0.209 HD
ENDBRANCH  46  47
ENDBRANCH  45  46
ENDBRANCH  42  45
ENDBRANCH  36  39
ENDBRANCH  30  33
ENDBRANCH   5  29
TORSDOF 10
