REMARK  32 active torsions:
REMARK  status: ('A' for Active; 'I' for Inactive)
REMARK    1  A    between atoms: C2_2  and  C3_3 
REMARK    2  A    between atoms: C3_3  and  S1_42 
REMARK    3  A    between atoms: C4_4  and  S1_42 
REMARK    4  A    between atoms: C5_5  and  N5_49 
REMARK    5  A    between atoms: C9_9  and  N1_44 
REMARK       I    between atoms: C10_10  and  N1_44 
REMARK       I    between atoms: C10_10  and  N2_45 
REMARK    6  A    between atoms: C11_11  and  C12_12 
REMARK    7  A    between atoms: C11_11  and  N2_45 
REMARK    8  A    between atoms: C12_12  and  C13_13 
REMARK    9  A    between atoms: C13_13  and  N3_46 
REMARK   10  A    between atoms: C14_14  and  N3_46 
REMARK   11  A    between atoms: C14_14  and  N4_48 
REMARK   12  A    between atoms: C16_16  and  C17_17 
REMARK       I    between atoms: C16_16  and  N5_49 
REMARK   13  A    between atoms: C18_18  and  O6_64 
REMARK   14  A    between atoms: C20_20  and  O5_63 
REMARK   15  A    between atoms: C21_21  and  C23_23 
REMARK       I    between atoms: C23_23  and  N6_50 
REMARK   16  A    between atoms: C24_24  and  N6_50 
REMARK   17  A    between atoms: C25_25  and  S2_43 
REMARK   18  A    between atoms: C26_26  and  N7_51 
REMARK   19  A    between atoms: C30_30  and  C31_31 
REMARK       I    between atoms: C30_30  and  N7_51 
REMARK   20  A    between atoms: C31_31  and  C32_32 
REMARK   21  A    between atoms: C32_32  and  C33_33 
REMARK   22  A    between atoms: C33_33  and  C34_34 
REMARK   23  A    between atoms: C34_34  and  N8_52 
REMARK       I    between atoms: C35_35  and  N8_52 
REMARK       I    between atoms: C35_35  and  N9_54 
REMARK   24  A    between atoms: C36_36  and  C37_37 
REMARK   25  A    between atoms: C36_36  and  S2_43 
REMARK   26  A    between atoms: C37_37  and  N11_56 
REMARK   27  A    between atoms: C38_38  and  C39_39 
REMARK   28  A    between atoms: C38_38  and  O5_63 
REMARK   29  A    between atoms: C39_39  and  N12_57 
REMARK   30  A    between atoms: C40_40  and  C41_41 
REMARK   31  A    between atoms: C40_40  and  O6_64 
REMARK   32  A    between atoms: C41_41  and  N13_58 
ROOT
HETATM    1  C17 UNL     1       0.427  -0.626   1.087  1.00  0.00     0.066 A 
HETATM    2  C18 UNL     1       0.883  -1.834   0.521  1.00  0.00     0.087 A 
HETATM    3  C19 UNL     1      -0.023  -2.889   0.325  1.00  0.00     0.075 A 
HETATM    4  C20 UNL     1      -1.354  -2.778   0.737  1.00  0.00     0.087 A 
HETATM    5  C21 UNL     1      -1.818  -1.583   1.291  1.00  0.00     0.066 A 
HETATM    6  C22 UNL     1      -0.923  -0.524   1.480  1.00  0.00     0.040 A 
ENDROOT
BRANCH   5   7
HETATM    7  C23 UNL     1      -3.231  -1.384   1.713  1.00  0.00     0.259 C 
HETATM    8  N6  UNL     1      -4.177  -1.948   0.876  1.00  0.00    -0.322 N 
HETATM    9  H50 UNL     1      -3.831  -2.724   0.320  1.00  0.00     0.169 HD
HETATM   10  O3  UNL     1      -3.437  -0.799   2.768  1.00  0.00    -0.267 OA
BRANCH   8  11
HETATM   11  C24 UNL     1      -5.578  -1.904   1.083  1.00  0.00     0.054 A 
HETATM   12  C25 UNL     1      -6.323  -0.757   1.448  1.00  0.00     0.054 A 
HETATM   13  C26 UNL     1      -7.718  -0.885   1.700  1.00  0.00     0.053 A 
HETATM   14  C27 UNL     1      -8.341  -2.125   1.529  1.00  0.00     0.031 A 
HETATM   15  C28 UNL     1      -7.614  -3.229   1.090  1.00  0.00     0.005 A 
HETATM   16  C29 UNL     1      -6.247  -3.117   0.859  1.00  0.00     0.031 A 
BRANCH  12  17
HETATM   17  S2  UNL     1      -5.616   0.915   1.487  1.00  0.00    -0.124 SA
BRANCH  17  18
HETATM   18  C36 UNL     1      -5.175   1.132  -0.278  1.00  0.00     0.109 C 
BRANCH  18  19
HETATM   19  C37 UNL     1      -6.247   1.910  -1.052  1.00  0.00     0.277 C 
BRANCH  19  20
HETATM   20  N11 UNL     1      -7.473   1.143  -1.264  1.00  0.00     0.079 N 
HETATM   21  H56 UNL     1      -7.367   0.531  -2.069  1.00  0.00     0.312 HD
HETATM   22  H57 UNL     1      -8.238   1.795  -1.487  1.00  0.00     0.312 HD
ENDBRANCH  19  20
ENDBRANCH  18  19
ENDBRANCH  17  18
ENDBRANCH  12  17
BRANCH  13  23
HETATM   23  N7  UNL     1      -8.436   0.271   2.099  1.00  0.00    -0.326 N 
HETATM   24  C30 UNL     1      -9.777   0.402   2.383  1.00  0.00     0.222 C 
HETATM   25  O4  UNL     1     -10.623  -0.488   2.363  1.00  0.00    -0.273 OA
HETATM   26  H51 UNL     1      -7.857   1.106   2.129  1.00  0.00     0.169 HD
BRANCH  24  27
HETATM   27  C31 UNL     1     -10.180   1.827   2.726  1.00  0.00     0.103 C 
BRANCH  27  28
HETATM   28  C32 UNL     1     -10.592   2.605   1.476  1.00  0.00     0.011 C 
BRANCH  28  29
HETATM   29  C33 UNL     1      -9.433   3.411   0.882  1.00  0.00     0.020 C 
BRANCH  29  30
HETATM   30  C34 UNL     1      -9.778   4.055  -0.462  1.00  0.00     0.122 C 
BRANCH  30  31
HETATM   31  N8  UNL     1      -9.860   3.028  -1.498  1.00  0.00    -0.367 N 
HETATM   32  C35 UNL     1     -10.990   2.711  -2.009  1.00  0.00     0.143 C 
HETATM   33  N9  UNL     1     -11.023   1.777  -2.986  1.00  0.00    -0.274 NA
HETATM   34  N10 UNL     1     -12.225   3.177  -1.738  1.00  0.00    -0.376 N 
HETATM   35  H52 UNL     1     -10.106   1.356  -3.092  1.00  0.00     0.127 HD
HETATM   36  H53 UNL     1     -11.719   1.057  -2.848  1.00  0.00     0.127 HD
HETATM   37  H54 UNL     1     -12.362   3.646  -0.854  1.00  0.00     0.158 HD
HETATM   38  H55 UNL     1     -13.011   2.616  -2.031  1.00  0.00     0.158 HD
ATOM     39  H8  UNL     1      -9.011   2.561  -1.816  1.00  0.00     0.162 HD
ENDBRANCH  30  31
ENDBRANCH  29  30
ENDBRANCH  28  29
ENDBRANCH  27  28
ENDBRANCH  24  27
ENDBRANCH  13  23
ENDBRANCH   8  11
ENDBRANCH   5   7
BRANCH   4  40
HETATM   40  O5  UNL     1      -2.221  -3.822   0.532  1.00  0.00    -0.348 OA
BRANCH  40  41
HETATM   41  C38 UNL     1      -1.921  -4.964   1.358  1.00  0.00     0.205 C 
BRANCH  41  42
HETATM   42  C39 UNL     1      -2.549  -4.820   2.752  1.00  0.00     0.293 C 
BRANCH  42  43
HETATM   43  N12 UNL     1      -2.401  -6.037   3.547  1.00  0.00     0.080 N 
HETATM   44  H58 UNL     1      -2.776  -5.867   4.482  1.00  0.00     0.312 HD
HETATM   45  H59 UNL     1      -2.977  -6.780   3.152  1.00  0.00     0.312 HD
ENDBRANCH  42  43
ENDBRANCH  41  42
ENDBRANCH  40  41
ENDBRANCH   4  40
BRANCH   1  46
HETATM   46  C16 UNL     1       1.272   0.603   1.299  1.00  0.00     0.259 C 
HETATM   47  N5  UNL     1       2.507   0.637   0.681  1.00  0.00    -0.322 N 
HETATM   48  H49 UNL     1       2.802  -0.205   0.193  1.00  0.00     0.169 HD
HETATM   49  O2  UNL     1       0.804   1.504   1.989  1.00  0.00    -0.267 OA
BRANCH  47  50
HETATM   50  C5  UNL     1       3.421   1.721   0.608  1.00  0.00     0.054 A 
HETATM   51  C4  UNL     1       4.662   1.528  -0.047  1.00  0.00     0.054 A 
HETATM   52  C9  UNL     1       5.575   2.604  -0.199  1.00  0.00     0.055 A 
HETATM   53  C8  UNL     1       5.258   3.847   0.345  1.00  0.00     0.031 A 
HETATM   54  C7  UNL     1       4.047   4.034   1.009  1.00  0.00     0.005 A 
HETATM   55  C6  UNL     1       3.135   2.984   1.134  1.00  0.00     0.031 A 
BRANCH  51  56
HETATM   56  S1  UNL     1       5.122  -0.112  -0.675  1.00  0.00    -0.125 SA
BRANCH  56  57
HETATM   57  C3  UNL     1       6.129  -0.669   0.748  1.00  0.00     0.079 C 
BRANCH  57  58
HETATM   58  C2  UNL     1       7.265  -1.599   0.320  1.00  0.00     0.006 C 
HETATM   59  C1  UNL     1       6.804  -2.953  -0.200  1.00  0.00     0.006 C 
ENDBRANCH  57  58
ENDBRANCH  56  57
ENDBRANCH  51  56
BRANCH  52  60
HETATM   60  N1  UNL     1       6.785   2.362  -0.891  1.00  0.00    -0.308 N 
HETATM   61  C10 UNL     1       7.769   3.256  -1.247  1.00  0.00     0.320 C 
HETATM   62  N2  UNL     1       8.813   2.590  -1.865  1.00  0.00    -0.343 N 
HETATM   63  O1  UNL     1       7.760   4.466  -1.072  1.00  0.00    -0.247 OA
HETATM   64  H46 UNL     1       8.994   1.682  -1.462  1.00  0.00     0.164 HD
HETATM   65  H45 UNL     1       6.861   1.444  -1.308  1.00  0.00     0.170 HD
BRANCH  62  66
HETATM   66  C11 UNL     1      10.018   3.316  -2.220  1.00  0.00     0.126 C 
BRANCH  66  67
HETATM   67  C12 UNL     1      10.843   2.603  -3.290  1.00  0.00     0.039 C 
BRANCH  67  68
HETATM   68  C13 UNL     1      11.234   1.165  -2.951  1.00  0.00     0.122 C 
BRANCH  68  69
HETATM   69  N3  UNL     1      11.864   1.095  -1.637  1.00  0.00    -0.380 N 
ATOM     70  H3  UNL     1      11.283   1.053  -0.800  1.00  0.00     0.160 HD
BRANCH  69  71
HETATM   71  C14 UNL     1      13.150   1.086  -1.523  1.00  0.00     0.066 C 
HETATM   72  C15 UNL     1      14.123   1.126  -2.677  1.00  0.00     0.088 C 
BRANCH  71  73
HETATM   73  N4  UNL     1      13.670   1.018  -0.263  1.00  0.00    -0.389 N 
HETATM   74  H47 UNL     1      14.567   0.562  -0.150  1.00  0.00     0.157 HD
HETATM   75  H48 UNL     1      12.982   0.753   0.433  1.00  0.00     0.157 HD
ENDBRANCH  71  73
ENDBRANCH  69  71
ENDBRANCH  68  69
ENDBRANCH  67  68
ENDBRANCH  66  67
ENDBRANCH  62  66
ENDBRANCH  52  60
ENDBRANCH  47  50
ENDBRANCH   1  46
BRANCH   2  76
HETATM   76  O6  UNL     1       2.198  -1.914   0.142  1.00  0.00    -0.348 OA
BRANCH  76  77
HETATM   77  C40 UNL     1       2.808  -3.209   0.092  1.00  0.00     0.205 C 
BRANCH  77  78
HETATM   78  C41 UNL     1       2.950  -3.667  -1.364  1.00  0.00     0.293 C 
BRANCH  78  79
HETATM   79  N13 UNL     1       3.561  -4.990  -1.468  1.00  0.00     0.080 N 
HETATM   80  H60 UNL     1       3.635  -5.247  -2.453  1.00  0.00     0.312 HD
HETATM   81  H61 UNL     1       4.519  -4.957  -1.120  1.00  0.00     0.312 HD
ENDBRANCH  78  79
ENDBRANCH  77  78
ENDBRANCH  76  77
ENDBRANCH   2  76
TORSDOF 32
