REMARK  0 active torsions:
REMARK  status: ('A' for Active; 'I' for Inactive)
REMARK       I    between atoms: C2_2  and  C3_3 
REMARK       I    between atoms: C2_2  and  O15_62 
REMARK       I    between atoms: C3_3  and  C4_4 
REMARK       I    between atoms: C3_3  and  N14_78 
REMARK       I    between atoms: C4_4  and  N1_63 
REMARK       I    between atoms: C5_5  and  C7_7 
REMARK       I    between atoms: C5_5  and  N1_63 
REMARK       I    between atoms: C7_7  and  N2_64 
REMARK       I    between atoms: C8_8  and  C9_9 
REMARK       I    between atoms: C8_8  and  C13_13 
REMARK       I    between atoms: C8_8  and  N2_64 
REMARK       I    between atoms: C9_9  and  C10_10 
REMARK       I    between atoms: C10_10  and  C11_11 
REMARK       I    between atoms: C11_11  and  N3_65 
REMARK       I    between atoms: C12_12  and  N4_67 
REMARK       I    between atoms: C12_12  and  N5_68 
REMARK       I    between atoms: C13_13  and  N6_69 
REMARK       I    between atoms: C14_14  and  C15_15 
REMARK       I    between atoms: C14_14  and  C25_25 
REMARK       I    between atoms: C14_14  and  N6_69 
REMARK       I    between atoms: C15_15  and  C16_16 
REMARK       I    between atoms: C16_16  and  C17_17 
REMARK       I    between atoms: C17_17  and  C18_18 
REMARK       I    between atoms: C18_18  and  N7_70 
REMARK       I    between atoms: C19_19  and  C20_20 
REMARK       I    between atoms: C19_19  and  N7_70 
REMARK       I    between atoms: C25_25  and  N9_73 
REMARK       I    between atoms: C26_26  and  C27_27 
REMARK       I    between atoms: C26_26  and  C28_28 
REMARK       I    between atoms: C26_26  and  N9_73 
REMARK       I    between atoms: C27_27  and  O6_53 
REMARK       I    between atoms: C28_28  and  N10_74 
REMARK       I    between atoms: C29_29  and  C30_30 
REMARK       I    between atoms: C29_29  and  C32_32 
REMARK       I    between atoms: C29_29  and  N10_74 
REMARK       I    between atoms: C30_30  and  O8_55 
REMARK       I    between atoms: C32_32  and  N11_75 
REMARK       I    between atoms: C33_33  and  C34_34 
REMARK       I    between atoms: C33_33  and  N11_75 
REMARK       I    between atoms: C34_34  and  N12_76 
REMARK       I    between atoms: C35_35  and  C36_36 
REMARK       I    between atoms: C35_35  and  N12_76 
REMARK       I    between atoms: C36_36  and  N13_77 
REMARK       I    between atoms: C37_37  and  C38_38 
REMARK       I    between atoms: C37_37  and  N14_78 
REMARK       I    between atoms: C38_38  and  C39_39 
REMARK       I    between atoms: C38_38  and  N16_80 
REMARK       I    between atoms: C39_39  and  C40_40 
REMARK       I    between atoms: C40_40  and  C41_41 
REMARK       I    between atoms: C41_41  and  N15_79 
REMARK       I    between atoms: C42_42  and  C43_43 
REMARK       I    between atoms: C42_42  and  N16_80 
REMARK       I    between atoms: C43_43  and  C44_44 
REMARK       I    between atoms: C43_43  and  N18_82 
REMARK       I    between atoms: C44_44  and  C45_45 
REMARK       I    between atoms: C45_45  and  C46_46 
REMARK       I    between atoms: C46_46  and  C47_47 
REMARK       I    between atoms: C47_47  and  N17_81 
ROOT
HETATM    1  C1  UNL     1      -4.173   5.542   0.335  1.00  0.00     0.042 C 
HETATM    2  C2  UNL     1      -5.303   4.581   0.687  1.00  0.00     0.146 C 
HETATM    3  C3  UNL     1      -4.834   3.110   0.707  1.00  0.00     0.205 C 
HETATM    4  C4  UNL     1      -3.867   2.828   1.875  1.00  0.00     0.243 C 
HETATM    5  C5  UNL     1      -2.361   1.095   2.834  1.00  0.00     0.172 C 
HETATM    6  C6  UNL     1      -3.204   0.489   3.950  1.00  0.00     0.042 C 
HETATM    7  C7  UNL     1      -1.371   0.053   2.271  1.00  0.00     0.240 C 
HETATM    8  C8  UNL     1       0.083  -0.444   0.339  1.00  0.00     0.176 C 
HETATM    9  C9  UNL     1      -0.190  -0.777  -1.129  1.00  0.00     0.036 C 
HETATM   10  C10 UNL     1      -1.292  -1.830  -1.317  1.00  0.00     0.022 C 
HETATM   11  C11 UNL     1      -0.968  -3.208  -0.735  1.00  0.00     0.121 C 
HETATM   12  C12 UNL     1       1.287  -3.911  -1.108  1.00  0.00     0.121 C 
HETATM   13  C13 UNL     1       1.338   0.438   0.479  1.00  0.00     0.241 C 
HETATM   14  C14 UNL     1       3.791   0.372   0.749  1.00  0.00     0.176 C 
HETATM   15  C15 UNL     1       3.980   0.515   2.273  1.00  0.00     0.035 C 
HETATM   16  C16 UNL     1       3.347  -0.538   3.194  1.00  0.00     0.004 C 
HETATM   17  C17 UNL     1       3.682  -2.005   2.936  1.00  0.00     0.020 C 
HETATM   18  C18 UNL     1       5.162  -2.352   3.038  1.00  0.00     0.123 C 
HETATM   19  C19 UNL     1       5.149  -4.540   1.800  1.00  0.00     0.268 C 
HETATM   20  C20 UNL     1       5.738  -5.921   1.864  1.00  0.00     0.100 A 
HETATM   21  C21 UNL     1       5.560  -6.804   0.806  1.00  0.00     0.035 A 
HETATM   22  C22 UNL     1       6.128  -8.070   0.908  1.00  0.00     0.004 A 
HETATM   23  C23 UNL     1       6.849  -8.405   2.051  1.00  0.00     0.017 A 
HETATM   24  C24 UNL     1       6.977  -7.458   3.055  1.00  0.00     0.088 A 
HETATM   25  C25 UNL     1       5.009  -0.285   0.064  1.00  0.00     0.241 C 
HETATM   26  C26 UNL     1       5.698  -1.725  -1.864  1.00  0.00     0.200 C 
HETATM   27  C27 UNL     1       4.979  -2.836  -2.632  1.00  0.00     0.199 C 
HETATM   28  C28 UNL     1       6.622  -0.918  -2.801  1.00  0.00     0.243 C 
HETATM   29  C29 UNL     1       7.776   1.287  -3.037  1.00  0.00     0.205 C 
HETATM   30  C30 UNL     1       7.215   2.624  -3.572  1.00  0.00     0.146 C 
HETATM   31  C31 UNL     1       6.618   3.530  -2.497  1.00  0.00     0.042 C 
HETATM   32  C32 UNL     1       8.888   1.530  -1.987  1.00  0.00     0.243 C 
HETATM   33  C33 UNL     1      10.026   0.621   0.014  1.00  0.00     0.225 C 
HETATM   34  C34 UNL     1       9.633   1.373   1.290  1.00  0.00     0.235 C 
HETATM   35  C35 UNL     1       7.805   2.061   2.776  1.00  0.00     0.225 C 
HETATM   36  C36 UNL     1       7.924   1.042   3.909  1.00  0.00     0.233 C 
HETATM   37  C37 UNL     1      -5.971   0.914   0.349  1.00  0.00     0.241 C 
HETATM   38  C38 UNL     1      -7.381   0.292   0.246  1.00  0.00     0.177 C 
HETATM   39  C39 UNL     1      -7.307  -1.234   0.165  1.00  0.00     0.044 C 
HETATM   40  C40 UNL     1      -8.688  -1.879   0.289  1.00  0.00     0.105 C 
HETATM   41  C41 UNL     1      -8.614  -3.388   0.219  1.00  0.00     0.215 C 
HETATM   42  C42 UNL     1      -8.552   2.132  -0.950  1.00  0.00     0.251 C 
HETATM   43  C43 UNL     1      -9.109   2.563  -2.330  1.00  0.00     0.308 C 
HETATM   44  C44 UNL     1      -9.625   4.013  -2.340  1.00  0.00     0.045 C 
HETATM   45  C45 UNL     1     -10.911   4.282  -1.541  1.00  0.00     0.004 C 
HETATM   46  C46 UNL     1     -12.205   4.220  -2.364  1.00  0.00     0.030 C 
HETATM   47  C47 UNL     1     -12.364   5.406  -3.318  1.00  0.00     0.267 C 
HETATM   48  O1  UNL     1      -3.714   3.587   2.827  1.00  0.00    -0.271 OA
HETATM   49  O2  UNL     1      -0.845  -0.822   2.955  1.00  0.00    -0.271 OA
HETATM   50  O3  UNL     1       1.284   1.652   0.664  1.00  0.00    -0.271 OA
HETATM   51  O4  UNL     1       4.502  -4.166   0.825  1.00  0.00    -0.266 OA
HETATM   52  O5  UNL     1       6.177  -0.111   0.416  1.00  0.00    -0.271 OA
HETATM   53  O6  UNL     1       3.714  -2.355  -3.106  1.00  0.00    -0.398 OA
HETATM   54  O7  UNL     1       7.340  -1.457  -3.639  1.00  0.00    -0.271 OA
HETATM   55  O8  UNL     1       8.208   3.360  -4.292  1.00  0.00    -0.393 OA
HETATM   56  O9  UNL     1       9.684   2.463  -2.086  1.00  0.00    -0.271 OA
HETATM   57  O10 UNL     1      10.474   1.749   2.109  1.00  0.00    -0.272 OA
HETATM   58  O11 UNL     1       7.065   0.207   4.173  1.00  0.00    -0.272 OA
HETATM   59  O12 UNL     1      -4.940   0.359  -0.022  1.00  0.00    -0.271 OA
HETATM   60  O13 UNL     1      -7.589  -4.027   0.023  1.00  0.00    -0.274 OA
HETATM   61  O14 UNL     1      -8.535   2.849   0.049  1.00  0.00    -0.271 OA
HETATM   62  O15 UNL     1      -6.315   4.757  -0.322  1.00  0.00    -0.393 OA
HETATM   63  N1  UNL     1      -3.202   1.624   1.763  1.00  0.00    -0.346 N 
HETATM   64  N2  UNL     1      -1.041   0.258   0.944  1.00  0.00    -0.346 N 
HETATM   65  N3  UNL     1       0.081  -3.848  -1.519  1.00  0.00    -0.372 N 
ATOM     66  H3  UNL     1      -0.156  -4.257  -2.423  1.00  0.00     0.161 HD
HETATM   67  N4  UNL     1       1.852  -3.442   0.026  1.00  0.00    -0.279 NA
HETATM   68  N5  UNL     1       2.199  -4.494  -1.918  1.00  0.00    -0.279 NA
HETATM   69  N6  UNL     1       2.528  -0.251   0.367  1.00  0.00    -0.346 N 
HETATM   70  N7  UNL     1       5.407  -3.777   2.919  1.00  0.00    -0.356 N 
HETATM   71  N8  UNL     1       6.441  -6.220   2.992  1.00  0.00    -0.361 N 
ATOM     72  H8  UNL     1       6.556  -5.545   3.748  1.00  0.00     0.165 HD
HETATM   73  N9  UNL     1       4.726  -0.923  -1.115  1.00  0.00    -0.344 N 
HETATM   74  N10 UNL     1       6.723   0.424  -2.499  1.00  0.00    -0.344 N 
HETATM   75  N11 UNL     1       8.990   0.572  -1.001  1.00  0.00    -0.350 N 
HETATM   76  N12 UNL     1       8.281   1.475   1.539  1.00  0.00    -0.351 N 
HETATM   77  N13 UNL     1       9.124   1.058   4.565  1.00  0.00    -0.369 N 
HETATM   78  N14 UNL     1      -5.982   2.202   0.837  1.00  0.00    -0.344 N 
HETATM   79  N15 UNL     1      -9.815  -4.016   0.375  1.00  0.00    -0.370 N 
HETATM   80  N16 UNL     1      -8.028   0.848  -0.947  1.00  0.00    -0.346 N 
HETATM   81  N17 UNL     1     -13.636   5.334  -4.031  1.00  0.00     0.078 N 
HETATM   82  N18 UNL     1     -10.124   1.594  -2.782  1.00  0.00     0.092 N 
HETATM   83  H56 UNL     1       3.054  -3.050  -2.889  1.00  0.00     0.209 HD
HETATM   84  H57 UNL     1       8.971   3.488  -3.689  1.00  0.00     0.210 HD
HETATM   85  H58 UNL     1      -7.152   4.392   0.025  1.00  0.00     0.210 HD
HETATM   86  H59 UNL     1      -3.557   0.958   1.073  1.00  0.00     0.163 HD
HETATM   87  H60 UNL     1      -1.220   1.197   0.601  1.00  0.00     0.163 HD
HETATM   88  H61 UNL     1       1.241  -3.466   0.836  1.00  0.00     0.126 HD
HETATM   89  H62 UNL     1       2.772  -3.827   0.261  1.00  0.00     0.126 HD
HETATM   90  H63 UNL     1       2.788  -5.158  -1.431  1.00  0.00     0.126 HD
HETATM   91  H64 UNL     1       1.698  -4.968  -2.669  1.00  0.00     0.126 HD
HETATM   92  H65 UNL     1       2.486  -1.267   0.300  1.00  0.00     0.163 HD
HETATM   93  H66 UNL     1       6.023  -4.215   3.603  1.00  0.00     0.162 HD
HETATM   94  H67 UNL     1       3.778  -0.918  -1.487  1.00  0.00     0.163 HD
HETATM   95  H68 UNL     1       6.209   0.755  -1.693  1.00  0.00     0.163 HD
HETATM   96  H69 UNL     1       8.249  -0.113  -0.913  1.00  0.00     0.163 HD
HETATM   97  H70 UNL     1       7.643   0.860   1.034  1.00  0.00     0.163 HD
HETATM   98  H71 UNL     1       9.299   0.285   5.192  1.00  0.00     0.159 HD
HETATM   99  H72 UNL     1       9.930   1.412   4.047  1.00  0.00     0.159 HD
HETATM  100  H73 UNL     1      -6.899   2.623   0.973  1.00  0.00     0.163 HD
HETATM  101  H74 UNL     1     -10.635  -3.544   0.729  1.00  0.00     0.159 HD
HETATM  102  H75 UNL     1      -9.800  -5.028   0.403  1.00  0.00     0.159 HD
HETATM  103  H76 UNL     1      -7.695   0.504  -1.842  1.00  0.00     0.163 HD
HETATM  104  H77 UNL     1     -13.681   4.463  -4.558  1.00  0.00     0.312 HD
HETATM  105  H78 UNL     1     -14.404   5.298  -3.361  1.00  0.00     0.312 HD
HETATM  106  H79 UNL     1      -9.741   0.651  -2.743  1.00  0.00     0.313 HD
HETATM  107  H80 UNL     1     -10.904   1.598  -2.124  1.00  0.00     0.313 HD
ENDROOT
TORSDOF 44
