REMARK  0 active torsions:
REMARK  status: ('A' for Active; 'I' for Inactive)
REMARK       I    between atoms: C2_2  and  O1_73 
REMARK       I    between atoms: C3_3  and  C15_15 
REMARK       I    between atoms: C5_5  and  C8_8 
REMARK       I    between atoms: C8_8  and  C9_9 
REMARK       I    between atoms: C9_9  and  C10_10 
REMARK       I    between atoms: C10_10  and  C11_11 
REMARK       I    between atoms: C10_10  and  N4_92 
REMARK       I    between atoms: C11_11  and  C12_12 
REMARK       I    between atoms: C12_12  and  C13_13 
REMARK       I    between atoms: C13_13  and  N1_88 
REMARK       I    between atoms: C14_14  and  N1_88 
REMARK       I    between atoms: C14_14  and  N2_89 
REMARK       I    between atoms: C14_14  and  N3_91 
REMARK       I    between atoms: C15_15  and  N5_93 
REMARK       I    between atoms: C16_16  and  C17_17 
REMARK       I    between atoms: C16_16  and  C21_21 
REMARK       I    between atoms: C16_16  and  N5_93 
REMARK       I    between atoms: C17_17  and  C18_18 
REMARK       I    between atoms: C18_18  and  C19_19 
REMARK       I    between atoms: C19_19  and  N6_94 
REMARK       I    between atoms: C20_20  and  N6_94 
REMARK       I    between atoms: C20_20  and  N7_95 
REMARK       I    between atoms: C20_20  and  N8_97 
REMARK       I    between atoms: C21_21  and  C22_22 
REMARK       I    between atoms: C22_22  and  C23_23 
REMARK       I    between atoms: C25_25  and  C31_31 
REMARK       I    between atoms: C26_26  and  O5_77 
REMARK       I    between atoms: C29_29  and  C30_30 
REMARK       I    between atoms: C29_29  and  O5_77 
REMARK       I    between atoms: C30_30  and  O7_79 
REMARK       I    between atoms: C31_31  and  N9_98 
REMARK       I    between atoms: C32_32  and  C33_33 
REMARK       I    between atoms: C32_32  and  C37_37 
REMARK       I    between atoms: C32_32  and  N9_98 
REMARK       I    between atoms: C33_33  and  C34_34 
REMARK       I    between atoms: C34_34  and  C35_35 
REMARK       I    between atoms: C35_35  and  N10_99 
REMARK       I    between atoms: C36_36  and  N10_99 
REMARK       I    between atoms: C36_36  and  N11_100 
REMARK       I    between atoms: C36_36  and  N12_102 
REMARK       I    between atoms: C37_37  and  C38_38 
REMARK       I    between atoms: C38_38  and  C39_39 
REMARK       I    between atoms: C41_41  and  C46_46 
REMARK       I    between atoms: C42_42  and  O10_82 
REMARK       I    between atoms: C46_46  and  N13_103 
REMARK       I    between atoms: C47_47  and  C48_48 
REMARK       I    between atoms: C47_47  and  C52_52 
REMARK       I    between atoms: C47_47  and  N13_103 
REMARK       I    between atoms: C48_48  and  C49_49 
REMARK       I    between atoms: C49_49  and  C50_50 
REMARK       I    between atoms: C50_50  and  N14_104 
REMARK       I    between atoms: C51_51  and  N14_104 
REMARK       I    between atoms: C51_51  and  N16_107 
REMARK       I    between atoms: C52_52  and  C53_53 
REMARK       I    between atoms: C53_53  and  C54_54 
REMARK       I    between atoms: C56_56  and  C61_61 
REMARK       I    between atoms: C57_57  and  O13_85 
REMARK       I    between atoms: C61_61  and  N17_108 
REMARK       I    between atoms: C62_62  and  C63_63 
REMARK       I    between atoms: C62_62  and  C72_72 
REMARK       I    between atoms: C62_62  and  N17_108 
REMARK       I    between atoms: C63_63  and  C64_64 
REMARK       I    between atoms: C72_72  and  N19_110 
ROOT
HETATM    1  C1  UNL     1       0.408   1.006  -0.891  1.00  0.00     0.210 C 
HETATM    2  C2  UNL     1       2.447   0.610  -2.071  1.00  0.00     0.084 A 
HETATM    3  C3  UNL     1       3.740   0.053  -2.082  1.00  0.00     0.065 A 
HETATM    4  C4  UNL     1       4.641   0.406  -3.103  1.00  0.00     0.027 A 
HETATM    5  C5  UNL     1       4.299   1.349  -4.079  1.00  0.00    -0.050 A 
HETATM    6  C6  UNL     1       3.008   1.881  -4.072  1.00  0.00     0.010 A 
HETATM    7  C7  UNL     1       2.087   1.500  -3.091  1.00  0.00     0.038 A 
HETATM    8  C8  UNL     1       5.331   1.851  -5.056  1.00  0.00     0.119 C 
HETATM    9  C9  UNL     1       6.064   3.095  -4.572  1.00  0.00     0.163 C 
HETATM   10  C10 UNL     1       6.936   2.964  -3.305  1.00  0.00     0.287 C 
HETATM   11  C11 UNL     1       6.153   3.376  -2.048  1.00  0.00     0.045 C 
HETATM   12  C12 UNL     1       6.590   2.628  -0.779  1.00  0.00     0.022 C 
HETATM   13  C13 UNL     1       7.965   3.019  -0.243  1.00  0.00     0.122 C 
HETATM   14  C14 UNL     1       7.580   4.758   1.448  1.00  0.00     0.143 C 
HETATM   15  C15 UNL     1       4.286  -0.850  -1.021  1.00  0.00     0.255 C 
HETATM   16  C16 UNL     1       4.100  -1.660   1.315  1.00  0.00     0.154 C 
HETATM   17  C17 UNL     1       3.604  -1.010   2.618  1.00  0.00     0.034 C 
HETATM   18  C18 UNL     1       3.929   0.484   2.770  1.00  0.00     0.022 C 
HETATM   19  C19 UNL     1       5.407   0.866   2.652  1.00  0.00     0.122 C 
HETATM   20  C20 UNL     1       7.472   0.569   3.961  1.00  0.00     0.143 C 
HETATM   21  C21 UNL     1       3.708  -3.153   1.320  1.00  0.00     0.153 C 
HETATM   22  C22 UNL     1       3.015  -3.731   0.095  1.00  0.00     0.119 C 
HETATM   23  C23 UNL     1       2.155  -4.947   0.372  1.00  0.00    -0.050 A 
HETATM   24  C24 UNL     1       1.177  -4.906   1.376  1.00  0.00     0.027 A 
HETATM   25  C25 UNL     1       0.320  -5.993   1.588  1.00  0.00     0.065 A 
HETATM   26  C26 UNL     1       0.450  -7.141   0.804  1.00  0.00     0.085 A 
HETATM   27  C27 UNL     1       1.411  -7.188  -0.207  1.00  0.00     0.038 A 
HETATM   28  C28 UNL     1       2.261  -6.098  -0.420  1.00  0.00     0.010 A 
HETATM   29  C29 UNL     1       0.018  -9.139   1.876  1.00  0.00     0.285 C 
HETATM   30  C30 UNL     1      -1.188  -9.811   2.503  1.00  0.00     0.164 C 
HETATM   31  C31 UNL     1      -0.698  -5.892   2.656  1.00  0.00     0.255 C 
HETATM   32  C32 UNL     1      -2.379  -4.394   3.680  1.00  0.00     0.154 C 
HETATM   33  C33 UNL     1      -2.822  -2.932   3.487  1.00  0.00     0.034 C 
HETATM   34  C34 UNL     1      -1.639  -1.955   3.452  1.00  0.00     0.022 C 
HETATM   35  C35 UNL     1      -1.911  -0.696   2.631  1.00  0.00     0.122 C 
HETATM   36  C36 UNL     1      -1.795  -1.729   0.358  1.00  0.00     0.143 C 
HETATM   37  C37 UNL     1      -3.639  -5.255   3.914  1.00  0.00     0.153 C 
HETATM   38  C38 UNL     1      -4.044  -6.310   2.899  1.00  0.00     0.119 C 
HETATM   39  C39 UNL     1      -4.357  -5.753   1.531  1.00  0.00    -0.050 A 
HETATM   40  C40 UNL     1      -5.251  -4.687   1.374  1.00  0.00     0.027 A 
HETATM   41  C41 UNL     1      -5.487  -4.107   0.114  1.00  0.00     0.065 A 
HETATM   42  C42 UNL     1      -4.851  -4.648  -1.024  1.00  0.00     0.084 A 
HETATM   43  C43 UNL     1      -3.990  -5.743  -0.866  1.00  0.00     0.038 A 
HETATM   44  C44 UNL     1      -3.748  -6.290   0.397  1.00  0.00     0.010 A 
HETATM   45  C45 UNL     1      -4.695  -4.770  -3.406  1.00  0.00     0.210 C 
HETATM   46  C46 UNL     1      -6.387  -2.905   0.108  1.00  0.00     0.255 C 
HETATM   47  C47 UNL     1      -7.039  -0.865  -1.103  1.00  0.00     0.154 C 
HETATM   48  C48 UNL     1      -7.732  -0.538  -2.426  1.00  0.00     0.034 C 
HETATM   49  C49 UNL     1      -9.063  -1.277  -2.630  1.00  0.00     0.022 C 
HETATM   50  C50 UNL     1     -10.152  -0.977  -1.594  1.00  0.00     0.122 C 
HETATM   51  C51 UNL     1      -9.981   1.397  -0.882  1.00  0.00     0.143 C 
HETATM   52  C52 UNL     1      -5.808   0.035  -0.915  1.00  0.00     0.153 C 
HETATM   53  C53 UNL     1      -6.053   1.380  -0.242  1.00  0.00     0.119 C 
HETATM   54  C54 UNL     1      -4.777   2.143   0.036  1.00  0.00    -0.050 A 
HETATM   55  C55 UNL     1      -4.101   2.795  -1.003  1.00  0.00     0.027 A 
HETATM   56  C56 UNL     1      -2.863   3.431  -0.790  1.00  0.00     0.065 A 
HETATM   57  C57 UNL     1      -2.292   3.418   0.495  1.00  0.00     0.084 A 
HETATM   58  C58 UNL     1      -2.993   2.801   1.542  1.00  0.00     0.038 A 
HETATM   59  C59 UNL     1      -4.220   2.168   1.314  1.00  0.00     0.010 A 
HETATM   60  C60 UNL     1      -0.467   3.952   1.945  1.00  0.00     0.210 C 
HETATM   61  C61 UNL     1      -2.248   4.074  -1.993  1.00  0.00     0.255 C 
HETATM   62  C62 UNL     1      -0.235   5.112  -3.031  1.00  0.00     0.181 C 
HETATM   63  C63 UNL     1       1.167   5.586  -2.600  1.00  0.00     0.075 C 
HETATM   64  C64 UNL     1       1.204   6.332  -1.298  1.00  0.00    -0.028 A 
HETATM   65  C65 UNL     1       0.461   7.448  -0.963  1.00  0.00     0.096 A 
HETATM   66  C66 UNL     1       1.764   6.987   0.814  1.00  0.00     0.042 A 
HETATM   67  C67 UNL     1       2.406   6.996   2.059  1.00  0.00     0.030 A 
HETATM   68  C68 UNL     1       3.364   6.007   2.301  1.00  0.00     0.002 A 
HETATM   69  C69 UNL     1       3.668   5.052   1.335  1.00  0.00     0.001 A 
HETATM   70  C70 UNL     1       3.017   5.057   0.097  1.00  0.00     0.014 A 
HETATM   71  C71 UNL     1       2.043   6.040  -0.173  1.00  0.00    -0.002 A 
HETATM   72  C72 UNL     1      -0.082   4.376  -4.391  1.00  0.00     0.238 C 
HETATM   73  O1  UNL     1       1.598   0.240  -1.058  1.00  0.00    -0.355 OA
HETATM   74  O2  UNL     1       6.000   4.158  -5.199  1.00  0.00    -0.295 OA
HETATM   75  O3  UNL     1       5.326  -1.475  -1.208  1.00  0.00    -0.268 OA
HETATM   76  O4  UNL     1       4.007  -3.861   2.290  1.00  0.00    -0.295 OA
HETATM   77  O5  UNL     1      -0.426  -8.187   0.904  1.00  0.00    -0.340 OA
HETATM   78  O6  UNL     1      -2.366  -9.653   2.221  1.00  0.00    -0.648 OA
HETATM   79  O7  UNL     1      -0.837 -10.700   3.460  1.00  0.00    -0.775 OA
HETATM   80  O8  UNL     1      -0.752  -6.719   3.558  1.00  0.00    -0.268 OA
HETATM   81  O9  UNL     1      -4.348  -5.056   4.911  1.00  0.00    -0.295 OA
HETATM   82  O10 UNL     1      -5.080  -4.050  -2.239  1.00  0.00    -0.355 OA
HETATM   83  O11 UNL     1      -6.899  -2.495   1.146  1.00  0.00    -0.268 OA
HETATM   84  O12 UNL     1      -4.692  -0.317  -1.321  1.00  0.00    -0.295 OA
HETATM   85  O13 UNL     1      -1.070   4.019   0.656  1.00  0.00    -0.355 OA
HETATM   86  O14 UNL     1      -2.951   4.354  -2.963  1.00  0.00    -0.268 OA
HETATM   87  O15 UNL     1       0.877   4.522  -5.146  1.00  0.00    -0.271 OA
HETATM   88  N1  UNL     1       7.967   4.404   0.202  1.00  0.00    -0.367 N 
HETATM   89  N2  UNL     1       7.018   3.985   2.304  1.00  0.00    -0.376 N 
ATOM     90  H2  UNL     1       6.749   3.015   2.142  1.00  0.00     0.158 HD
HETATM   91  N3  UNL     1       7.839   6.058   1.686  1.00  0.00    -0.274 NA
HETATM   92  N4  UNL     1       8.143   3.804  -3.461  1.00  0.00     0.090 N 
HETATM   93  N5  UNL     1       3.603  -0.915   0.168  1.00  0.00    -0.345 N 
HETATM   94  N6  UNL     1       6.189   0.235   3.698  1.00  0.00    -0.367 N 
HETATM   95  N7  UNL     1       8.149   1.596   3.615  1.00  0.00    -0.376 N 
ATOM     96  H7  UNL     1       9.124   1.753   3.870  1.00  0.00     0.158 HD
HETATM   97  N8  UNL     1       8.063  -0.367   4.729  1.00  0.00    -0.274 NA
HETATM   98  N9  UNL     1      -1.540  -4.809   2.561  1.00  0.00    -0.345 N 
HETATM   99  N10 UNL     1      -2.383  -0.930   1.275  1.00  0.00    -0.367 N 
HETATM  100  N11 UNL     1      -0.943  -2.658   0.598  1.00  0.00    -0.376 N 
ATOM    101  H11 UNL     1      -0.610  -2.942   1.519  1.00  0.00     0.158 HD
HETATM  102  N12 UNL     1      -2.205  -1.444  -0.893  1.00  0.00    -0.274 NA
HETATM  103  N13 UNL     1      -6.572  -2.246  -1.089  1.00  0.00    -0.345 N 
HETATM  104  N14 UNL     1     -10.539   0.424  -1.631  1.00  0.00    -0.367 N 
HETATM  105  N15 UNL     1      -9.398   1.298   0.253  1.00  0.00    -0.376 N 
ATOM    106  H15 UNL     1      -8.923   2.058   0.740  1.00  0.00     0.158 HD
HETATM  107  N16 UNL     1     -10.073   2.605  -1.470  1.00  0.00    -0.274 NA
HETATM  108  N17 UNL     1      -0.886   4.285  -1.998  1.00  0.00    -0.343 N 
HETATM  109  N18 UNL     1       0.803   7.828   0.307  1.00  0.00    -0.365 N 
HETATM  110  N19 UNL     1      -1.136   3.616  -4.808  1.00  0.00    -0.368 N 
HETATM  111  H68 UNL     1      -1.698 -11.016   3.806  1.00  0.00     0.167 HD
HETATM  112  H69 UNL     1       8.795   4.898  -0.111  1.00  0.00     0.162 HD
HETATM  113  H70 UNL     1       6.885   4.503   3.175  1.00  0.00     0.158 HD
HETATM  114  H71 UNL     1       7.699   6.632   0.863  1.00  0.00     0.127 HD
HETATM  115  H72 UNL     1       7.349   6.450   2.479  1.00  0.00     0.127 HD
HETATM  116  H73 UNL     1       8.610   3.554  -4.333  1.00  0.00     0.313 HD
HETATM  117  H74 UNL     1       7.821   4.764  -3.626  1.00  0.00     0.313 HD
HETATM  118  H75 UNL     1       2.669  -0.513   0.198  1.00  0.00     0.163 HD
HETATM  119  H76 UNL     1       6.082  -0.773   3.725  1.00  0.00     0.162 HD
HETATM  120  H77 UNL     1       7.585   2.249   3.044  1.00  0.00     0.158 HD
HETATM  121  H78 UNL     1       8.976  -0.019   5.008  1.00  0.00     0.127 HD
HETATM  122  H79 UNL     1       7.513  -0.589   5.549  1.00  0.00     0.127 HD
HETATM  123  H80 UNL     1      -1.388  -4.132   1.806  1.00  0.00     0.163 HD
HETATM  124  H81 UNL     1      -2.806  -0.106   0.862  1.00  0.00     0.162 HD
HETATM  125  H82 UNL     1      -0.656  -3.064  -0.298  1.00  0.00     0.158 HD
HETATM  126  H83 UNL     1      -2.084  -2.181  -1.573  1.00  0.00     0.127 HD
HETATM  127  H84 UNL     1      -3.158  -1.070  -0.966  1.00  0.00     0.127 HD
HETATM  128  H85 UNL     1      -5.938  -2.521  -1.834  1.00  0.00     0.163 HD
HETATM  129  H86 UNL     1     -10.770   0.735  -2.569  1.00  0.00     0.162 HD
HETATM  130  H87 UNL     1      -9.483   0.337   0.595  1.00  0.00     0.158 HD
HETATM  131  H88 UNL     1      -9.754   3.314  -0.815  1.00  0.00     0.127 HD
HETATM  132  H89 UNL     1     -11.019   2.824  -1.759  1.00  0.00     0.127 HD
HETATM  133  H90 UNL     1      -0.453   4.288  -1.077  1.00  0.00     0.163 HD
HETATM  134  H91 UNL     1       0.416   8.620   0.801  1.00  0.00     0.165 HD
HETATM  135  H92 UNL     1      -2.049   3.792  -4.386  1.00  0.00     0.159 HD
HETATM  136  H93 UNL     1      -1.122   3.302  -5.767  1.00  0.00     0.159 HD
ENDROOT
TORSDOF 47
