REMARK  0 active torsions:
REMARK  status: ('A' for Active; 'I' for Inactive)
REMARK       I    between atoms: C2_2  and  N1_87 
REMARK       I    between atoms: C3_3  and  N1_87 
REMARK       I    between atoms: C4_4  and  O20_86 
REMARK       I    between atoms: C6_6  and  C24_24 
REMARK       I    between atoms: C6_6  and  O8_74 
REMARK       I    between atoms: C7_7  and  C8_8 
REMARK       I    between atoms: C8_8  and  C9_9 
REMARK       I    between atoms: C8_8  and  O5_71 
REMARK       I    between atoms: C9_9  and  C10_10 
REMARK       I    between atoms: C9_9  and  O4_70 
REMARK       I    between atoms: C10_10  and  N2_88 
REMARK       I    between atoms: C11_11  and  C12_12 
REMARK       I    between atoms: C11_11  and  N2_88 
REMARK       I    between atoms: C15_15  and  C18_18 
REMARK       I    between atoms: C24_24  and  O7_73 
REMARK       I    between atoms: C25_25  and  C26_26 
REMARK       I    between atoms: C25_25  and  O8_74 
REMARK       I    between atoms: C26_26  and  C27_27 
REMARK       I    between atoms: C27_27  and  S1_93 
REMARK       I    between atoms: C28_28  and  C29_29 
REMARK       I    between atoms: C28_28  and  S1_93 
REMARK       I    between atoms: C29_29  and  N3_89 
REMARK       I    between atoms: C30_30  and  C31_31 
REMARK       I    between atoms: C30_30  and  N3_89 
REMARK       I    between atoms: C34_34  and  C37_37 
REMARK       I    between atoms: C37_37  and  N4_90 
REMARK       I    between atoms: C38_38  and  C39_39 
REMARK       I    between atoms: C38_38  and  N4_90 
REMARK       I    between atoms: C39_39  and  S2_94 
REMARK       I    between atoms: C40_40  and  C41_41 
REMARK       I    between atoms: C40_40  and  S2_94 
REMARK       I    between atoms: C41_41  and  C42_42 
REMARK       I    between atoms: C42_42  and  O11_77 
REMARK       I    between atoms: C43_43  and  C66_66 
REMARK       I    between atoms: C43_43  and  O11_77 
REMARK       I    between atoms: C45_45  and  O17_83 
REMARK       I    between atoms: C46_46  and  N6_92 
REMARK       I    between atoms: C47_47  and  C48_48 
REMARK       I    between atoms: C48_48  and  C49_49 
REMARK       I    between atoms: C48_48  and  O15_81 
REMARK       I    between atoms: C49_49  and  C50_50 
REMARK       I    between atoms: C49_49  and  O14_80 
REMARK       I    between atoms: C50_50  and  N5_91 
REMARK       I    between atoms: C51_51  and  C52_52 
REMARK       I    between atoms: C51_51  and  N5_91 
REMARK       I    between atoms: C55_55  and  C58_58 
REMARK       I    between atoms: C64_64  and  N6_92 
REMARK       I    between atoms: C66_66  and  O19_85 
ROOT
HETATM    1  C1  UNL     1      12.241  -2.529  -0.092  1.00  0.00     0.117 C 
HETATM    2  C2  UNL     1      10.956  -1.851   0.299  1.00  0.00     0.214 C 
HETATM    3  C3  UNL     1       8.915  -0.733  -0.597  1.00  0.00     0.145 C 
HETATM    4  C4  UNL     1       7.830  -1.551   0.150  1.00  0.00     0.149 C 
HETATM    5  C5  UNL     1       6.406  -1.127  -0.208  1.00  0.00     0.114 C 
HETATM    6  C6  UNL     1       6.320   0.355  -0.599  1.00  0.00     0.255 C 
HETATM    7  C7  UNL     1       8.316  -0.235  -1.936  1.00  0.00     0.182 C 
HETATM    8  C8  UNL     1       9.265   0.591  -2.848  1.00  0.00     0.179 C 
HETATM    9  C9  UNL     1      10.070  -0.244  -3.879  1.00  0.00     0.167 C 
HETATM   10  C10 UNL     1      11.127   0.608  -4.617  1.00  0.00     0.157 C 
HETATM   11  C11 UNL     1      13.256   0.101  -3.478  1.00  0.00     0.251 C 
HETATM   12  C12 UNL     1      14.245   0.507  -2.439  1.00  0.00     0.032 A 
HETATM   13  C13 UNL     1      15.047  -0.484  -1.863  1.00  0.00     0.018 A 
HETATM   14  C14 UNL     1      15.984  -0.152  -0.878  1.00  0.00     0.013 A 
HETATM   15  C15 UNL     1      16.145   1.175  -0.451  1.00  0.00    -0.026 A 
HETATM   16  C16 UNL     1      15.344   2.162  -1.049  1.00  0.00     0.013 A 
HETATM   17  C17 UNL     1      14.407   1.837  -2.036  1.00  0.00     0.018 A 
HETATM   18  C18 UNL     1      17.127   1.523   0.588  1.00  0.00    -0.026 A 
HETATM   19  C19 UNL     1      18.480   1.169   0.452  1.00  0.00     0.012 A 
HETATM   20  C20 UNL     1      19.413   1.500   1.439  1.00  0.00     0.001 A 
HETATM   21  C21 UNL     1      19.008   2.189   2.579  1.00  0.00     0.000 A 
HETATM   22  C22 UNL     1      17.671   2.548   2.733  1.00  0.00     0.001 A 
HETATM   23  C23 UNL     1      16.740   2.218   1.746  1.00  0.00     0.012 A 
HETATM   24  C24 UNL     1       4.900   0.603  -1.236  1.00  0.00     0.205 C 
HETATM   25  C25 UNL     1       5.721   1.582   1.394  1.00  0.00     0.172 C 
HETATM   26  C26 UNL     1       6.363   2.371   2.533  1.00  0.00     0.036 C 
HETATM   27  C27 UNL     1       7.135   1.510   3.534  1.00  0.00     0.076 C 
HETATM   28  C28 UNL     1       6.148  -1.041   4.084  1.00  0.00     0.093 C 
HETATM   29  C29 UNL     1       5.159  -1.966   4.797  1.00  0.00     0.133 C 
HETATM   30  C30 UNL     1       3.122  -1.888   3.411  1.00  0.00     0.251 C 
HETATM   31  C31 UNL     1       1.786  -1.261   3.201  1.00  0.00     0.032 A 
HETATM   32  C32 UNL     1       0.993  -0.812   4.264  1.00  0.00     0.018 A 
HETATM   33  C33 UNL     1      -0.255  -0.234   4.010  1.00  0.00     0.018 A 
HETATM   34  C34 UNL     1      -0.730  -0.116   2.697  1.00  0.00     0.032 A 
HETATM   35  C35 UNL     1       0.062  -0.565   1.633  1.00  0.00     0.018 A 
HETATM   36  C36 UNL     1       1.311  -1.140   1.887  1.00  0.00     0.018 A 
HETATM   37  C37 UNL     1      -2.066   0.507   2.481  1.00  0.00     0.251 C 
HETATM   38  C38 UNL     1      -4.099   0.577   1.101  1.00  0.00     0.133 C 
HETATM   39  C39 UNL     1      -4.576   0.279  -0.320  1.00  0.00     0.093 C 
HETATM   40  C40 UNL     1      -5.466  -2.313   0.387  1.00  0.00     0.076 C 
HETATM   41  C41 UNL     1      -6.928  -1.865   0.455  1.00  0.00     0.036 C 
HETATM   42  C42 UNL     1      -7.719  -2.058  -0.838  1.00  0.00     0.172 C 
HETATM   43  C43 UNL     1      -8.207  -0.993  -2.923  1.00  0.00     0.255 C 
HETATM   44  C44 UNL     1      -7.705   0.186  -3.776  1.00  0.00     0.114 C 
HETATM   45  C45 UNL     1      -8.805   0.711  -4.677  1.00  0.00     0.149 C 
HETATM   46  C46 UNL     1     -10.048   1.153  -3.871  1.00  0.00     0.145 C 
HETATM   47  C47 UNL     1     -10.136   0.455  -2.496  1.00  0.00     0.182 C 
HETATM   48  C48 UNL     1      -9.558   1.252  -1.296  1.00  0.00     0.179 C 
HETATM   49  C49 UNL     1     -10.100   2.690  -1.112  1.00  0.00     0.167 C 
HETATM   50  C50 UNL     1     -11.636   2.798  -1.084  1.00  0.00     0.157 C 
HETATM   51  C51 UNL     1     -13.587   2.075   0.224  1.00  0.00     0.251 C 
HETATM   52  C52 UNL     1     -14.144   1.089   1.194  1.00  0.00     0.032 A 
HETATM   53  C53 UNL     1     -13.349   0.440   2.145  1.00  0.00     0.018 A 
HETATM   54  C54 UNL     1     -13.924  -0.477   3.033  1.00  0.00     0.013 A 
HETATM   55  C55 UNL     1     -15.299  -0.762   2.998  1.00  0.00    -0.026 A 
HETATM   56  C56 UNL     1     -16.086  -0.092   2.047  1.00  0.00     0.013 A 
HETATM   57  C57 UNL     1     -15.518   0.826   1.158  1.00  0.00     0.018 A 
HETATM   58  C58 UNL     1     -15.898  -1.728   3.934  1.00  0.00    -0.026 A 
HETATM   59  C59 UNL     1     -15.719  -1.599   5.321  1.00  0.00     0.012 A 
HETATM   60  C60 UNL     1     -16.288  -2.515   6.210  1.00  0.00     0.001 A 
HETATM   61  C61 UNL     1     -17.044  -3.579   5.725  1.00  0.00     0.000 A 
HETATM   62  C62 UNL     1     -17.234  -3.726   4.353  1.00  0.00     0.001 A 
HETATM   63  C63 UNL     1     -16.666  -2.807   3.466  1.00  0.00     0.012 A 
HETATM   64  C64 UNL     1     -11.556   1.581  -5.797  1.00  0.00     0.214 C 
HETATM   65  C65 UNL     1     -12.781   1.111  -6.530  1.00  0.00     0.117 C 
HETATM   66  C66 UNL     1      -8.045  -2.270  -3.818  1.00  0.00     0.205 C 
HETATM   67  O1  UNL     1      10.657  -1.638   1.471  1.00  0.00    -0.274 OA
HETATM   68  O2  UNL     1       7.225   0.671  -1.676  1.00  0.00    -0.336 OA
HETATM   69  O3  UNL     1      13.312  -1.008  -4.003  1.00  0.00    -0.268 OA
HETATM   70  O4  UNL     1      10.665  -1.409  -3.292  1.00  0.00    -0.391 OA
HETATM   71  O5  UNL     1      10.111   1.444  -2.055  1.00  0.00    -0.390 OA
HETATM   72  O6  UNL     1       4.653   1.012  -2.362  1.00  0.00    -0.646 OA
HETATM   73  O7  UNL     1       3.863   0.302  -0.420  1.00  0.00    -0.772 OA
HETATM   74  O8  UNL     1       6.738   1.180   0.482  1.00  0.00    -0.346 OA
HETATM   75  O9  UNL     1       3.600  -2.613   2.545  1.00  0.00    -0.268 OA
HETATM   76  O10 UNL     1      -2.537   1.267   3.320  1.00  0.00    -0.268 OA
HETATM   77  O11 UNL     1      -7.424  -0.990  -1.733  1.00  0.00    -0.346 OA
HETATM   78  O12 UNL     1      -9.602  -0.872  -2.605  1.00  0.00    -0.336 OA
HETATM   79  O13 UNL     1     -14.319   2.893  -0.323  1.00  0.00    -0.268 OA
HETATM   80  O14 UNL     1      -9.554   3.171   0.136  1.00  0.00    -0.391 OA
HETATM   81  O15 UNL     1      -9.847   0.530  -0.071  1.00  0.00    -0.390 OA
HETATM   82  O16 UNL     1     -10.852   2.502  -6.200  1.00  0.00    -0.274 OA
HETATM   83  O17 UNL     1      -8.287   1.817  -5.422  1.00  0.00    -0.393 OA
HETATM   84  O18 UNL     1      -8.926  -2.826  -4.460  1.00  0.00    -0.646 OA
HETATM   85  O19 UNL     1      -6.779  -2.741  -3.876  1.00  0.00    -0.772 OA
HETATM   86  O20 UNL     1       8.002  -1.456   1.567  1.00  0.00    -0.393 OA
HETATM   87  N1  UNL     1      10.135  -1.524  -0.750  1.00  0.00    -0.352 N 
HETATM   88  N2  UNL     1      12.238   0.990  -3.758  1.00  0.00    -0.354 N 
HETATM   89  N3  UNL     1       3.774  -1.573   4.585  1.00  0.00    -0.356 N 
HETATM   90  N4  UNL     1      -2.729   0.152   1.326  1.00  0.00    -0.356 N 
HETATM   91  N5  UNL     1     -12.238   1.988  -0.042  1.00  0.00    -0.354 N 
HETATM   92  N6  UNL     1     -11.265   0.873  -4.653  1.00  0.00    -0.352 N 
HETATM   93  S1  UNL     1       6.018   0.674   4.716  1.00  0.00    -0.167 SA
HETATM   94  S2  UNL     1      -4.372  -1.476  -0.813  1.00  0.00    -0.167 SA
HETATM   95  H67 UNL     1      11.517  -1.565  -3.763  1.00  0.00     0.210 HD
HETATM   96  H68 UNL     1       9.507   1.935  -1.462  1.00  0.00     0.210 HD
HETATM   97  H69 UNL     1       3.077   0.513  -0.968  1.00  0.00     0.167 HD
HETATM   98  H70 UNL     1     -10.038   3.984   0.373  1.00  0.00     0.210 HD
HETATM   99  H71 UNL     1      -9.465   1.103   0.628  1.00  0.00     0.210 HD
HETATM  100  H72 UNL     1      -9.042   2.206  -5.921  1.00  0.00     0.210 HD
HETATM  101  H73 UNL     1      -6.828  -3.518  -4.470  1.00  0.00     0.167 HD
HETATM  102  H74 UNL     1       8.964  -1.571   1.744  1.00  0.00     0.210 HD
HETATM  103  H75 UNL     1      10.509  -1.621  -1.696  1.00  0.00     0.163 HD
HETATM  104  H76 UNL     1      11.979   1.633  -3.013  1.00  0.00     0.162 HD
HETATM  105  H77 UNL     1       3.477  -0.750   5.094  1.00  0.00     0.162 HD
HETATM  106  H78 UNL     1      -2.440  -0.691   0.842  1.00  0.00     0.162 HD
HETATM  107  H79 UNL     1     -11.742   1.137   0.216  1.00  0.00     0.162 HD
HETATM  108  H80 UNL     1     -11.683  -0.048  -4.554  1.00  0.00     0.163 HD
ENDROOT
TORSDOF 42
