REMARK  22 active torsions:
REMARK  status: ('A' for Active; 'I' for Inactive)
REMARK    1  A    between atoms: C5_5  and  C6_6 
REMARK       I    between atoms: C6_6  and  N2_48 
REMARK    2  A    between atoms: C7_7  and  N2_48 
REMARK    3  A    between atoms: C9_9  and  C11_11 
REMARK       I    between atoms: C11_11  and  N4_50 
REMARK    4  A    between atoms: C12_12  and  N4_50 
REMARK    5  A    between atoms: C14_14  and  C16_16 
REMARK       I    between atoms: C16_16  and  N6_52 
REMARK    6  A    between atoms: C17_17  and  C18_18 
REMARK    7  A    between atoms: C17_17  and  N6_52 
REMARK    8  A    between atoms: C18_18  and  C19_19 
REMARK    9  A    between atoms: C19_19  and  C20_20 
REMARK       I    between atoms: C20_20  and  N7_53 
REMARK   10  A    between atoms: C21_21  and  N7_53 
REMARK   11  A    between atoms: C23_23  and  C24_24 
REMARK       I    between atoms: C24_24  and  N10_57 
REMARK   12  A    between atoms: C25_25  and  N10_57 
REMARK   13  A    between atoms: C27_27  and  C28_28 
REMARK       I    between atoms: C28_28  and  N13_61 
REMARK   14  A    between atoms: C29_29  and  N13_61 
REMARK   15  A    between atoms: C31_31  and  C33_33 
REMARK       I    between atoms: C33_33  and  N15_63 
REMARK   16  A    between atoms: C34_34  and  C35_35 
REMARK   17  A    between atoms: C34_34  and  N15_63 
REMARK   18  A    between atoms: C35_35  and  C36_36 
REMARK       I    between atoms: C36_36  and  N16_64 
REMARK   19  A    between atoms: C37_37  and  C38_38 
REMARK   20  A    between atoms: C37_37  and  N16_64 
REMARK   21  A    between atoms: C38_38  and  C39_39 
REMARK   22  A    between atoms: C39_39  and  N17_65 
ROOT
HETATM    1  C21 UNL     1       1.040  -1.634  -1.212  1.00  0.00     0.125 A 
HETATM    2  C22 UNL     1       0.587  -0.787  -0.235  1.00  0.00     0.140 A 
HETATM    3  C23 UNL     1      -1.096  -1.577  -1.443  1.00  0.00     0.178 A 
HETATM    4  C44 UNL     1      -1.684   0.023   0.409  1.00  0.00     0.157 C 
HETATM    5  N8  UNL     1      -0.769  -0.753  -0.391  1.00  0.00    -0.339 N 
HETATM    6  N9  UNL     1       0.002  -2.124  -1.957  1.00  0.00    -0.323 N 
ATOM      7  H9  UNL     1       0.059  -2.773  -2.742  1.00  0.00     0.169 HD
ENDROOT
BRANCH   3   8
HETATM    8  C24 UNL     1      -2.433  -1.845  -1.964  1.00  0.00     0.291 C 
HETATM    9  N10 UNL     1      -2.379  -2.714  -3.033  1.00  0.00    -0.305 N 
HETATM   10  H56 UNL     1      -1.455  -3.039  -3.295  1.00  0.00     0.170 HD
HETATM   11  O5  UNL     1      -3.446  -1.345  -1.483  1.00  0.00    -0.264 OA
BRANCH   9  12
HETATM   12  C25 UNL     1      -3.453  -3.152  -3.755  1.00  0.00     0.125 A 
HETATM   13  C26 UNL     1      -3.385  -4.023  -4.815  1.00  0.00     0.140 A 
HETATM   14  N11 UNL     1      -4.680  -4.178  -5.232  1.00  0.00    -0.339 N 
HETATM   15  C27 UNL     1      -5.476  -3.404  -4.424  1.00  0.00     0.178 A 
HETATM   16  C43 UNL     1      -5.122  -5.004  -6.330  1.00  0.00     0.157 C 
HETATM   17  N12 UNL     1      -4.739  -2.776  -3.518  1.00  0.00    -0.323 N 
ATOM     18  H12 UNL     1      -5.069  -2.141  -2.792  1.00  0.00     0.169 HD
BRANCH  15  19
HETATM   19  C28 UNL     1      -6.922  -3.240  -4.492  1.00  0.00     0.290 C 
HETATM   20  N13 UNL     1      -7.360  -2.350  -3.529  1.00  0.00    -0.319 N 
HETATM   21  H57 UNL     1      -6.620  -1.961  -2.947  1.00  0.00     0.169 HD
HETATM   22  O6  UNL     1      -7.630  -3.827  -5.305  1.00  0.00    -0.264 OA
BRANCH  20  23
HETATM   23  C29 UNL     1      -8.656  -1.949  -3.301  1.00  0.00     0.053 A 
HETATM   24  C30 UNL     1      -9.796  -2.340  -3.958  1.00  0.00     0.120 A 
HETATM   25  N14 UNL     1     -10.869  -1.703  -3.387  1.00  0.00    -0.354 N 
HETATM   26  C31 UNL     1     -10.434  -0.851  -2.389  1.00  0.00     0.104 A 
HETATM   27  C42 UNL     1     -12.240  -1.990  -3.755  1.00  0.00     0.156 C 
HETATM   28  C32 UNL     1      -9.058  -1.030  -2.306  1.00  0.00     0.066 A 
BRANCH  26  29
HETATM   29  C33 UNL     1     -11.221   0.020  -1.546  1.00  0.00     0.268 C 
HETATM   30  N15 UNL     1     -12.269   0.656  -2.170  1.00  0.00    -0.355 N 
HETATM   31  H58 UNL     1     -12.268   0.648  -3.184  1.00  0.00     0.162 HD
HETATM   32  O7  UNL     1     -10.954   0.206  -0.360  1.00  0.00    -0.266 OA
BRANCH  30  33
HETATM   33  C34 UNL     1     -13.077   1.685  -1.528  1.00  0.00     0.132 C 
BRANCH  33  34
HETATM   34  C35 UNL     1     -14.343   1.135  -0.880  1.00  0.00     0.122 C 
BRANCH  34  35
HETATM   35  C36 UNL     1     -14.156   0.909   0.605  1.00  0.00     0.219 C 
HETATM   36  N16 UNL     1     -13.452  -0.227   0.923  1.00  0.00    -0.361 N 
HETATM   37  H59 UNL     1     -13.336  -0.904   0.177  1.00  0.00     0.162 HD
HETATM   38  O8  UNL     1     -14.548   1.711   1.445  1.00  0.00    -0.274 OA
BRANCH  36  39
HETATM   39  C37 UNL     1     -13.290  -0.724   2.271  1.00  0.00     0.124 C 
BRANCH  39  40
HETATM   40  C38 UNL     1     -12.789   0.264   3.325  1.00  0.00     0.047 C 
BRANCH  40  41
HETATM   41  C39 UNL     1     -11.725   1.281   2.920  1.00  0.00     0.235 C 
BRANCH  41  42
HETATM   42  N17 UNL     1     -10.522   0.700   2.228  1.00  0.00    -0.079 N 
HETATM   43  C40 UNL     1      -9.801  -0.369   2.983  1.00  0.00     0.269 C 
HETATM   44  C41 UNL     1      -9.574   1.788   1.797  1.00  0.00     0.269 C 
HETATM   45  H60 UNL     1     -10.856   0.298   1.323  1.00  0.00     0.278 HD
ENDBRANCH  41  42
ENDBRANCH  40  41
ENDBRANCH  39  40
ENDBRANCH  36  39
ENDBRANCH  34  35
ENDBRANCH  33  34
ENDBRANCH  30  33
ENDBRANCH  26  29
ENDBRANCH  20  23
ENDBRANCH  15  19
ENDBRANCH   9  12
ENDBRANCH   3   8
BRANCH   1  46
HETATM   46  N7  UNL     1       2.317  -2.014  -1.525  1.00  0.00    -0.312 N 
HETATM   47  C20 UNL     1       3.449  -1.614  -0.851  1.00  0.00     0.223 C 
HETATM   48  O4  UNL     1       3.483  -0.933   0.170  1.00  0.00    -0.273 OA
HETATM   49  H55 UNL     1       2.380  -2.646  -2.309  1.00  0.00     0.170 HD
BRANCH  47  50
HETATM   50  C19 UNL     1       4.731  -2.127  -1.480  1.00  0.00     0.105 C 
BRANCH  50  51
HETATM   51  C18 UNL     1       4.966  -1.631  -2.907  1.00  0.00     0.029 C 
BRANCH  51  52
HETATM   52  C17 UNL     1       4.926  -0.112  -3.059  1.00  0.00     0.123 C 
BRANCH  52  53
HETATM   53  N6  UNL     1       5.902   0.556  -2.228  1.00  0.00    -0.356 N 
HETATM   54  C16 UNL     1       5.835   1.922  -2.033  1.00  0.00     0.268 C 
HETATM   55  O3  UNL     1       4.922   2.598  -2.497  1.00  0.00    -0.266 OA
HETATM   56  H54 UNL     1       6.806   0.125  -2.098  1.00  0.00     0.162 HD
BRANCH  54  57
HETATM   57  C14 UNL     1       6.944   2.476  -1.275  1.00  0.00     0.104 A 
HETATM   58  C15 UNL     1       7.849   1.839  -0.432  1.00  0.00     0.066 A 
HETATM   59  C12 UNL     1       8.747   2.803   0.091  1.00  0.00     0.053 A 
HETATM   60  C13 UNL     1       8.371   4.014  -0.434  1.00  0.00     0.120 A 
HETATM   61  N5  UNL     1       7.281   3.818  -1.242  1.00  0.00    -0.354 N 
HETATM   62  C45 UNL     1       6.608   4.880  -1.962  1.00  0.00     0.156 C 
BRANCH  59  63
HETATM   63  N4  UNL     1       9.775   2.536   0.973  1.00  0.00    -0.320 N 
HETATM   64  C11 UNL     1      10.703   3.448   1.439  1.00  0.00     0.273 C 
HETATM   65  O2  UNL     1      10.818   4.608   1.058  1.00  0.00    -0.266 OA
HETATM   66  H53 UNL     1       9.895   1.570   1.242  1.00  0.00     0.169 HD
BRANCH  64  67
HETATM   67  C9  UNL     1      11.611   2.874   2.417  1.00  0.00     0.105 A 
HETATM   68  C10 UNL     1      12.992   3.012   2.445  1.00  0.00     0.066 A 
HETATM   69  C7  UNL     1      13.498   2.273   3.542  1.00  0.00     0.053 A 
HETATM   70  C8  UNL     1      12.411   1.734   4.187  1.00  0.00     0.120 A 
HETATM   71  N3  UNL     1      11.274   2.139   3.535  1.00  0.00    -0.354 N 
HETATM   72  C46 UNL     1       9.936   1.893   4.032  1.00  0.00     0.156 C 
BRANCH  69  73
HETATM   73  N2  UNL     1      14.836   2.159   3.868  1.00  0.00    -0.320 N 
HETATM   74  C6  UNL     1      15.362   1.413   4.909  1.00  0.00     0.272 C 
HETATM   75  O1  UNL     1      14.694   0.707   5.660  1.00  0.00    -0.266 OA
HETATM   76  H52 UNL     1      15.476   2.650   3.263  1.00  0.00     0.169 HD
BRANCH  74  77
HETATM   77  C5  UNL     1      16.817   1.514   5.035  1.00  0.00     0.102 A 
HETATM   78  C4  UNL     1      17.707   2.413   4.453  1.00  0.00     0.037 A 
HETATM   79  C3  UNL     1      19.017   2.103   4.886  1.00  0.00     0.020 A 
HETATM   80  C2  UNL     1      18.917   1.027   5.732  1.00  0.00     0.091 A 
HETATM   81  N1  UNL     1      17.593   0.681   5.829  1.00  0.00    -0.357 N 
HETATM   82  C1  UNL     1      17.105  -0.415   6.642  1.00  0.00     0.156 C 
ENDBRANCH  74  77
ENDBRANCH  69  73
ENDBRANCH  64  67
ENDBRANCH  59  63
ENDBRANCH  54  57
ENDBRANCH  52  53
ENDBRANCH  51  52
ENDBRANCH  50  51
ENDBRANCH  47  50
ENDBRANCH   1  46
TORSDOF 22
