REMARK  17 active torsions:
REMARK  status: ('A' for Active; 'I' for Inactive)
REMARK    1  A    between atoms: C2_2  and  C10_10 
REMARK    2  A    between atoms: C3_3  and  C4_4 
REMARK    3  A    between atoms: C7_7  and  O1_46 
REMARK       I    between atoms: C10_10  and  N1_58 
REMARK    4  A    between atoms: C11_11  and  N1_58 
REMARK    5  A    between atoms: C14_14  and  C17_17 
REMARK       I    between atoms: C17_17  and  N2_59 
REMARK    6  A    between atoms: C21_21  and  C22_22 
REMARK       I    between atoms: C22_22  and  N3_60 
REMARK    7  A    between atoms: C23_23  and  N3_60 
REMARK    8  A    between atoms: C26_26  and  C29_29 
REMARK       I    between atoms: C29_29  and  N4_61 
REMARK    9  A    between atoms: C30_30  and  N4_61 
REMARK   10  A    between atoms: C31_31  and  O12_57 
REMARK   11  A    between atoms: C32_32  and  O11_56 
REMARK   12  A    between atoms: C33_33  and  C36_36 
REMARK       I    between atoms: C36_36  and  N5_62 
REMARK   13  A    between atoms: C37_37  and  N5_62 
REMARK   14  A    between atoms: C38_38  and  O10_55 
REMARK   15  A    between atoms: C39_39  and  O9_54 
REMARK   16  A    between atoms: C40_40  and  C43_43 
REMARK   17  A    between atoms: C43_43  and  O8_53 
ROOT
HETATM    1  C23 UNL     1       1.976   1.638   4.474  1.00  0.00     0.034 A 
HETATM    2  C24 UNL     1       1.042   2.673   4.402  1.00  0.00     0.030 A 
HETATM    3  C25 UNL     1      -0.091   2.548   3.590  1.00  0.00     0.019 A 
HETATM    4  C26 UNL     1      -0.284   1.389   2.835  1.00  0.00     0.032 A 
HETATM    5  C27 UNL     1       0.613   0.326   2.946  1.00  0.00     0.019 A 
HETATM    6  C28 UNL     1       1.734   0.450   3.770  1.00  0.00     0.030 A 
ENDROOT
BRANCH   1   7
HETATM    7  N3  UNL     1       3.200   1.721   5.171  1.00  0.00    -0.325 N 
HETATM    8  C22 UNL     1       3.782   2.868   5.698  1.00  0.00     0.245 C 
HETATM    9  O4  UNL     1       3.246   3.968   5.794  1.00  0.00    -0.271 OA
HETATM   10  H39 UNL     1       3.790   0.903   5.092  1.00  0.00     0.169 HD
BRANCH   8  11
HETATM   11  C21 UNL     1       5.250   2.637   6.125  1.00  0.00     0.180 C 
HETATM   12  C20 UNL     1       5.407   2.879   7.629  1.00  0.00     0.037 C 
HETATM   13  C19 UNL     1       5.810   4.348   7.717  1.00  0.00     0.022 C 
HETATM   14  C18 UNL     1       6.687   4.539   6.491  1.00  0.00     0.127 C 
HETATM   15  N2  UNL     1       6.164   3.607   5.509  1.00  0.00    -0.335 N 
HETATM   16  C17 UNL     1       6.715   3.555   4.243  1.00  0.00     0.254 C 
HETATM   17  O3  UNL     1       7.655   4.252   3.875  1.00  0.00    -0.267 OA
BRANCH  16  18
HETATM   18  C14 UNL     1       6.158   2.582   3.285  1.00  0.00     0.032 A 
HETATM   19  C13 UNL     1       6.876   1.423   2.993  1.00  0.00     0.019 A 
HETATM   20  C12 UNL     1       6.343   0.492   2.096  1.00  0.00     0.030 A 
HETATM   21  C11 UNL     1       5.096   0.711   1.490  1.00  0.00     0.035 A 
HETATM   22  C16 UNL     1       4.410   1.897   1.762  1.00  0.00     0.030 A 
HETATM   23  C15 UNL     1       4.943   2.839   2.650  1.00  0.00     0.019 A 
BRANCH  21  24
HETATM   24  N1  UNL     1       4.619  -0.291   0.620  1.00  0.00    -0.323 N 
HETATM   25  C10 UNL     1       3.362  -0.384   0.055  1.00  0.00     0.251 C 
HETATM   26  O2  UNL     1       2.400   0.341   0.280  1.00  0.00    -0.268 OA
HETATM   27  H38 UNL     1       5.256  -1.056   0.441  1.00  0.00     0.169 HD
BRANCH  25  28
HETATM   28  C2  UNL     1       3.239  -1.553  -0.879  1.00  0.00     0.007 C 
HETATM   29  C1  UNL     1       4.356  -1.802  -1.848  1.00  0.00     0.054 C 
HETATM   30  C3  UNL     1       2.079  -2.235  -0.820  1.00  0.00     0.023 C 
BRANCH  30  31
HETATM   31  C4  UNL     1       1.745  -3.396  -1.650  1.00  0.00    -0.035 A 
HETATM   32  C5  UNL     1       0.708  -3.303  -2.584  1.00  0.00     0.014 A 
HETATM   33  C6  UNL     1       0.372  -4.403  -3.374  1.00  0.00     0.037 A 
HETATM   34  C7  UNL     1       1.067  -5.597  -3.225  1.00  0.00     0.065 A 
HETATM   35  C8  UNL     1       2.096  -5.711  -2.296  1.00  0.00     0.037 A 
HETATM   36  C9  UNL     1       2.433  -4.608  -1.505  1.00  0.00     0.014 A 
BRANCH  34  37
HETATM   37  O1  UNL     1       0.705  -6.646  -4.017  1.00  0.00    -0.361 OA
HETATM   38  H34 UNL     1       1.263  -7.409  -3.799  1.00  0.00     0.217 HD
ENDBRANCH  34  37
ENDBRANCH  30  31
ENDBRANCH  25  28
ENDBRANCH  21  24
ENDBRANCH  16  18
ENDBRANCH   8  11
ENDBRANCH   1   7
BRANCH   4  39
HETATM   39  C29 UNL     1      -1.447   1.310   1.918  1.00  0.00     0.256 C 
HETATM   40  O5  UNL     1      -2.538   1.688   2.325  1.00  0.00    -0.267 OA
HETATM   41  N4  UNL     1      -1.143   0.837   0.658  1.00  0.00    -0.320 N 
HETATM   42  H40 UNL     1      -0.160   0.690   0.422  1.00  0.00     0.169 HD
BRANCH  41  43
HETATM   43  C30 UNL     1      -2.033   0.613  -0.418  1.00  0.00     0.071 A 
HETATM   44  C31 UNL     1      -1.472   0.244  -1.655  1.00  0.00     0.129 A 
HETATM   45  C32 UNL     1      -2.296  -0.045  -2.753  1.00  0.00     0.117 A 
HETATM   46  C33 UNL     1      -3.693   0.053  -2.629  1.00  0.00     0.068 A 
HETATM   47  C34 UNL     1      -4.243   0.477  -1.410  1.00  0.00     0.022 A 
HETATM   48  C35 UNL     1      -3.418   0.742  -0.312  1.00  0.00     0.034 A 
BRANCH  44  49
HETATM   49  O12 UNL     1      -0.100   0.136  -1.687  1.00  0.00    -0.351 OA
HETATM   50  C45 UNL     1       0.506   0.883  -2.740  1.00  0.00     0.210 C 
ENDBRANCH  44  49
BRANCH  45  51
HETATM   51  O11 UNL     1      -1.706  -0.450  -3.927  1.00  0.00    -0.357 OA
HETATM   52  H37 UNL     1      -2.390  -0.436  -4.635  1.00  0.00     0.217 HD
ENDBRANCH  45  51
BRANCH  46  53
HETATM   53  C36 UNL     1      -4.565  -0.278  -3.795  1.00  0.00     0.259 C 
HETATM   54  O6  UNL     1      -4.073  -0.173  -4.915  1.00  0.00    -0.267 OA
HETATM   55  N5  UNL     1      -5.837  -0.722  -3.498  1.00  0.00    -0.320 N 
HETATM   56  H41 UNL     1      -6.064  -0.921  -2.530  1.00  0.00     0.169 HD
BRANCH  55  57
HETATM   57  C37 UNL     1      -6.857  -1.092  -4.403  1.00  0.00     0.071 A 
HETATM   58  C38 UNL     1      -8.058  -1.581  -3.861  1.00  0.00     0.129 A 
HETATM   59  C39 UNL     1      -9.092  -2.051  -4.683  1.00  0.00     0.118 A 
HETATM   60  C40 UNL     1      -8.973  -1.969  -6.070  1.00  0.00     0.073 A 
HETATM   61  C41 UNL     1      -7.795  -1.431  -6.615  1.00  0.00     0.023 A 
HETATM   62  C42 UNL     1      -6.745  -1.002  -5.789  1.00  0.00     0.034 A 
BRANCH  58  63
HETATM   63  O10 UNL     1      -8.212  -1.645  -2.491  1.00  0.00    -0.351 OA
HETATM   64  C44 UNL     1      -8.861  -0.455  -2.023  1.00  0.00     0.210 C 
ENDBRANCH  58  63
BRANCH  59  65
HETATM   65  O9  UNL     1     -10.211  -2.575  -4.094  1.00  0.00    -0.357 OA
HETATM   66  H36 UNL     1      -9.988  -2.752  -3.162  1.00  0.00     0.217 HD
ENDBRANCH  59  65
BRANCH  60  67
HETATM   67  C43 UNL     1     -10.049  -2.463  -6.967  1.00  0.00     0.179 C 
HETATM   68  O7  UNL     1     -10.910  -3.286  -6.727  1.00  0.00    -0.646 OA
BRANCH  67  69
HETATM   69  O8  UNL     1      -9.993  -1.873  -8.179  1.00  0.00    -0.773 OA
HETATM   70  H35 UNL     1     -10.753  -2.270  -8.654  1.00  0.00     0.167 HD
ENDBRANCH  67  69
ENDBRANCH  60  67
ENDBRANCH  55  57
ENDBRANCH  46  53
ENDBRANCH  41  43
ENDBRANCH   4  39
TORSDOF 17
