REMARK  0 active torsions:
REMARK  status: ('A' for Active; 'I' for Inactive)
REMARK       I    between atoms: C2_2  and  C3_3 
REMARK       I    between atoms: C2_2  and  O15_70 
REMARK       I    between atoms: C3_3  and  C4_4 
REMARK       I    between atoms: C3_3  and  N3_73 
REMARK       I    between atoms: C4_4  and  N1_71 
REMARK       I    between atoms: C5_5  and  C6_6 
REMARK       I    between atoms: C5_5  and  N1_71 
REMARK       I    between atoms: C6_6  and  N2_72 
REMARK       I    between atoms: C7_7  and  C8_8 
REMARK       I    between atoms: C7_7  and  N3_73 
REMARK       I    between atoms: C10_10  and  C13_13 
REMARK       I    between atoms: C15_15  and  N6_78 
REMARK       I    between atoms: C18_18  and  C19_19 
REMARK       I    between atoms: C18_18  and  N6_78 
REMARK       I    between atoms: C19_19  and  N7_79 
REMARK       I    between atoms: C21_21  and  C22_22 
REMARK       I    between atoms: C21_21  and  N7_79 
REMARK       I    between atoms: C22_22  and  N8_80 
REMARK       I    between atoms: C23_23  and  C24_24 
REMARK       I    between atoms: C23_23  and  N8_80 
REMARK       I    between atoms: C24_24  and  N9_81 
REMARK       I    between atoms: C25_25  and  C26_26 
REMARK       I    between atoms: C25_25  and  N9_81 
REMARK       I    between atoms: C30_30  and  C31_31 
REMARK       I    between atoms: C30_30  and  N10_82 
REMARK       I    between atoms: C31_31  and  N11_83 
REMARK       I    between atoms: C32_32  and  C33_33 
REMARK       I    between atoms: C32_32  and  N11_83 
REMARK       I    between atoms: C33_33  and  C34_34 
REMARK       I    between atoms: C33_33  and  N12_84 
REMARK       I    between atoms: C34_34  and  O10_65 
REMARK       I    between atoms: C35_35  and  C36_36 
REMARK       I    between atoms: C35_35  and  N12_84 
REMARK       I    between atoms: C38_38  and  C41_41 
REMARK       I    between atoms: C43_43  and  N15_89 
REMARK       I    between atoms: C46_46  and  C47_47 
REMARK       I    between atoms: C46_46  and  N15_89 
REMARK       I    between atoms: C47_47  and  C48_48 
REMARK       I    between atoms: C47_47  and  N16_90 
REMARK       I    between atoms: C48_48  and  C49_49 
REMARK       I    between atoms: C52_52  and  C53_53 
REMARK       I    between atoms: C52_52  and  N16_90 
REMARK       I    between atoms: C53_53  and  N17_91 
REMARK       I    between atoms: C54_54  and  C55_55 
REMARK       I    between atoms: C54_54  and  N17_91 
REMARK       I    between atoms: C55_55  and  N18_92 
ROOT
HETATM    1  C1  UNL     1      -2.703   8.128   6.703  1.00  0.00     0.042 C 
HETATM    2  C2  UNL     1      -2.391   9.396   5.913  1.00  0.00     0.146 C 
HETATM    3  C3  UNL     1      -1.250   9.258   4.877  1.00  0.00     0.205 C 
HETATM    4  C4  UNL     1       0.117   8.994   5.547  1.00  0.00     0.243 C 
HETATM    5  C5  UNL     1       2.481   8.458   5.153  1.00  0.00     0.225 C 
HETATM    6  C6  UNL     1       2.591   7.053   5.759  1.00  0.00     0.233 C 
HETATM    7  C7  UNL     1      -1.164   8.367   2.557  1.00  0.00     0.253 C 
HETATM    8  C8  UNL     1      -1.497   7.248   1.647  1.00  0.00     0.047 A 
HETATM    9  C9  UNL     1      -2.511   6.344   1.925  1.00  0.00     0.105 A 
HETATM   10  C10 UNL     1      -2.059   5.063   0.035  1.00  0.00     0.059 A 
HETATM   11  C11 UNL     1      -1.077   5.978  -0.351  1.00  0.00     0.033 A 
HETATM   12  C12 UNL     1      -0.788   7.074   0.463  1.00  0.00     0.021 A 
HETATM   13  C13 UNL     1      -2.320   3.823  -0.732  1.00  0.00     0.059 A 
HETATM   14  C14 UNL     1      -1.589   2.332  -2.357  1.00  0.00     0.117 A 
HETATM   15  C15 UNL     1      -2.688   1.491  -2.203  1.00  0.00     0.050 A 
HETATM   16  C16 UNL     1      -3.627   1.858  -1.248  1.00  0.00     0.033 A 
HETATM   17  C17 UNL     1      -3.442   3.027  -0.506  1.00  0.00     0.034 A 
HETATM   18  C18 UNL     1      -3.805  -0.576  -3.086  1.00  0.00     0.244 C 
HETATM   19  C19 UNL     1      -3.620  -1.606  -4.238  1.00  0.00     0.172 C 
HETATM   20  C20 UNL     1      -4.842  -2.520  -4.330  1.00  0.00     0.042 C 
HETATM   21  C21 UNL     1      -1.157  -1.944  -4.416  1.00  0.00     0.236 C 
HETATM   22  C22 UNL     1      -0.041  -2.994  -4.562  1.00  0.00     0.225 C 
HETATM   23  C23 UNL     1      -1.091  -5.238  -4.592  1.00  0.00     0.235 C 
HETATM   24  C24 UNL     1      -1.012  -6.655  -4.018  1.00  0.00     0.225 C 
HETATM   25  C25 UNL     1       1.410  -7.094  -3.746  1.00  0.00     0.241 C 
HETATM   26  C26 UNL     1       2.493  -8.170  -3.974  1.00  0.00     0.179 C 
HETATM   27  C27 UNL     1       3.904  -7.644  -3.706  1.00  0.00     0.037 C 
HETATM   28  C28 UNL     1       4.125  -7.939  -2.225  1.00  0.00     0.022 C 
HETATM   29  C29 UNL     1       3.411  -9.266  -2.029  1.00  0.00     0.127 C 
HETATM   30  C30 UNL     1       1.325 -10.190  -3.136  1.00  0.00     0.238 C 
HETATM   31  C31 UNL     1       1.217 -11.278  -2.063  1.00  0.00     0.225 C 
HETATM   32  C32 UNL     1      -0.965 -11.061  -0.911  1.00  0.00     0.243 C 
HETATM   33  C33 UNL     1      -1.692 -10.259   0.183  1.00  0.00     0.200 C 
HETATM   34  C34 UNL     1      -3.217 -10.425   0.094  1.00  0.00     0.199 C 
HETATM   35  C35 UNL     1      -1.512  -7.933   1.065  1.00  0.00     0.253 C 
HETATM   36  C36 UNL     1      -1.118  -6.533   0.793  1.00  0.00     0.047 A 
HETATM   37  C37 UNL     1      -1.774  -5.503   1.451  1.00  0.00     0.105 A 
HETATM   38  C38 UNL     1      -0.494  -3.857   0.401  1.00  0.00     0.059 A 
HETATM   39  C39 UNL     1       0.223  -4.847  -0.275  1.00  0.00     0.033 A 
HETATM   40  C40 UNL     1      -0.087  -6.193  -0.078  1.00  0.00     0.021 A 
HETATM   41  C41 UNL     1      -0.180  -2.418   0.236  1.00  0.00     0.059 A 
HETATM   42  C42 UNL     1       1.053  -0.790  -0.890  1.00  0.00     0.117 A 
HETATM   43  C43 UNL     1       0.607   0.236  -0.066  1.00  0.00     0.050 A 
HETATM   44  C44 UNL     1      -0.304  -0.112   0.928  1.00  0.00     0.033 A 
HETATM   45  C45 UNL     1      -0.704  -1.441   1.080  1.00  0.00     0.034 A 
HETATM   46  C46 UNL     1       1.851   2.141  -1.100  1.00  0.00     0.245 C 
HETATM   47  C47 UNL     1       2.084   3.671  -0.932  1.00  0.00     0.177 C 
HETATM   48  C48 UNL     1       3.388   4.104  -1.635  1.00  0.00     0.038 C 
HETATM   49  C49 UNL     1       3.742   5.601  -1.530  1.00  0.00    -0.020 C 
HETATM   50  C50 UNL     1       2.690   6.494  -2.186  1.00  0.00     0.009 C 
HETATM   51  C51 UNL     1       5.107   5.854  -2.177  1.00  0.00     0.009 C 
HETATM   52  C52 UNL     1       2.881   3.869   1.425  1.00  0.00     0.236 C 
HETATM   53  C53 UNL     1       2.522   4.370   2.829  1.00  0.00     0.225 C 
HETATM   54  C54 UNL     1       0.159   3.865   3.147  1.00  0.00     0.245 C 
HETATM   55  C55 UNL     1      -0.969   4.105   4.161  1.00  0.00     0.368 C 
HETATM   56  O1  UNL     1       0.312   9.125   6.756  1.00  0.00    -0.271 OA
HETATM   57  O2  UNL     1       1.836   6.119   5.489  1.00  0.00    -0.272 OA
HETATM   58  O3  UNL     1      -0.510   9.325   2.159  1.00  0.00    -0.268 OA
HETATM   59  O4  UNL     1      -4.816  -0.561  -2.386  1.00  0.00    -0.271 OA
HETATM   60  O5  UNL     1      -0.959  -0.748  -4.639  1.00  0.00    -0.272 OA
HETATM   61  O6  UNL     1      -1.892  -4.923  -5.470  1.00  0.00    -0.272 OA
HETATM   62  O7  UNL     1       1.564  -6.114  -3.020  1.00  0.00    -0.271 OA
HETATM   63  O8  UNL     1       0.483 -10.076  -4.031  1.00  0.00    -0.272 OA
HETATM   64  O9  UNL     1      -1.498 -11.922  -1.601  1.00  0.00    -0.271 OA
HETATM   65  O10 UNL     1      -3.862 -10.136   1.338  1.00  0.00    -0.398 OA
HETATM   66  O11 UNL     1      -2.066  -8.236   2.114  1.00  0.00    -0.268 OA
HETATM   67  O12 UNL     1       2.267   1.540  -2.091  1.00  0.00    -0.271 OA
HETATM   68  O13 UNL     1       3.962   3.329   1.204  1.00  0.00    -0.272 OA
HETATM   69  O14 UNL     1       0.191   2.860   2.436  1.00  0.00    -0.272 OA
HETATM   70  O15 UNL     1      -2.134  10.461   6.833  1.00  0.00    -0.393 OA
HETATM   71  N1  UNL     1       1.139   8.694   4.672  1.00  0.00    -0.350 N 
HETATM   72  N2  UNL     1       3.656   6.862   6.594  1.00  0.00    -0.369 N 
HETATM   73  N3  UNL     1      -1.543   8.224   3.874  1.00  0.00    -0.341 N 
HETATM   74  N4  UNL     1      -2.793   5.256   1.164  1.00  0.00    -0.363 N 
ATOM     75  H4  UNL     1      -3.531   4.604   1.430  1.00  0.00     0.165 HD
HETATM   76  N5  UNL     1      -1.384   3.478  -1.657  1.00  0.00    -0.362 N 
ATOM     77  H5  UNL     1      -0.560   4.057  -1.819  1.00  0.00     0.165 HD
HETATM   78  N6  UNL     1      -2.781   0.353  -3.024  1.00  0.00    -0.324 N 
HETATM   79  N7  UNL     1      -2.410  -2.422  -4.108  1.00  0.00    -0.347 N 
HETATM   80  N8  UNL     1      -0.275  -4.312  -3.984  1.00  0.00    -0.351 N 
HETATM   81  N9  UNL     1       0.206  -7.369  -4.359  1.00  0.00    -0.351 N 
HETATM   82  N10 UNL     1       2.316  -9.241  -2.986  1.00  0.00    -0.337 N 
HETATM   83  N11 UNL     1       0.387 -10.775  -0.982  1.00  0.00    -0.350 N 
HETATM   84  N12 UNL     1      -1.263  -8.850   0.067  1.00  0.00    -0.342 N 
HETATM   85  N13 UNL     1      -1.490  -4.186   1.270  1.00  0.00    -0.363 N 
ATOM     86  H13 UNL     1      -2.008  -3.464   1.771  1.00  0.00     0.165 HD
HETATM   87  N14 UNL     1       0.687  -2.095  -0.763  1.00  0.00    -0.362 N 
ATOM     88  H14 UNL     1       1.050  -2.808  -1.396  1.00  0.00     0.165 HD
HETATM   89  N15 UNL     1       1.017   1.583  -0.144  1.00  0.00    -0.324 N 
HETATM   90  N16 UNL     1       1.951   4.133   0.449  1.00  0.00    -0.346 N 
HETATM   91  N17 UNL     1       1.156   4.815   3.085  1.00  0.00    -0.351 N 
HETATM   92  N18 UNL     1      -0.917   5.430   4.829  1.00  0.00     0.087 N 
HETATM   93  H54 UNL     1      -3.375  -9.404   1.775  1.00  0.00     0.209 HD
HETATM   94  H55 UNL     1      -1.316  10.227   7.321  1.00  0.00     0.210 HD
HETATM   95  H56 UNL     1       0.980   8.866   3.682  1.00  0.00     0.163 HD
HETATM   96  H57 UNL     1       3.695   5.974   7.079  1.00  0.00     0.159 HD
HETATM   97  H58 UNL     1       4.094   7.647   7.060  1.00  0.00     0.159 HD
HETATM   98  H59 UNL     1      -1.554   7.262   4.221  1.00  0.00     0.163 HD
HETATM   99  H60 UNL     1      -2.003   0.193  -3.669  1.00  0.00     0.169 HD
HETATM  100  H61 UNL     1      -2.522  -3.404  -4.342  1.00  0.00     0.163 HD
HETATM  101  H62 UNL     1       0.492  -4.699  -3.431  1.00  0.00     0.163 HD
HETATM  102  H63 UNL     1       0.083  -8.349  -4.629  1.00  0.00     0.163 HD
HETATM  103  H64 UNL     1       0.729 -10.008  -0.415  1.00  0.00     0.163 HD
HETATM  104  H65 UNL     1      -1.114  -8.501  -0.873  1.00  0.00     0.163 HD
HETATM  105  H66 UNL     1       0.682   2.199   0.596  1.00  0.00     0.169 HD
HETATM  106  H67 UNL     1       1.030   4.403   0.777  1.00  0.00     0.163 HD
HETATM  107  H68 UNL     1       1.094   5.508   3.829  1.00  0.00     0.163 HD
HETATM  108  H69 UNL     1      -0.029   5.485   5.356  1.00  0.00     0.313 HD
HETATM  109  H70 UNL     1      -1.617   5.394   5.576  1.00  0.00     0.313 HD
ENDROOT
TORSDOF 33
