REMARK  16 active torsions:
REMARK  status: ('A' for Active; 'I' for Inactive)
REMARK    1  A    between atoms: C5_5  and  O5_48 
REMARK    2  A    between atoms: C18_18  and  C26_26 
REMARK       I    between atoms: C26_26  and  N1_49 
REMARK    3  A    between atoms: C27_27  and  C28_28 
REMARK    4  A    between atoms: C27_27  and  N1_49 
REMARK    5  A    between atoms: C28_28  and  C29_29 
REMARK    6  A    between atoms: C29_29  and  C30_30 
REMARK    7  A    between atoms: C30_30  and  C31_31 
REMARK    8  A    between atoms: C31_31  and  C32_32 
REMARK    9  A    between atoms: C32_32  and  C33_33 
REMARK   10  A    between atoms: C33_33  and  C34_34 
REMARK   11  A    between atoms: C34_34  and  C35_35 
REMARK   12  A    between atoms: C35_35  and  C36_36 
REMARK   13  A    between atoms: C36_36  and  C37_37 
REMARK       I    between atoms: C37_37  and  N2_50 
REMARK   14  A    between atoms: C38_38  and  C39_39 
REMARK   15  A    between atoms: C38_38  and  N2_50 
REMARK   16  A    between atoms: C39_39  and  O4_47 
ROOT
HETATM    1  C1  UNL     1      -2.448  -2.338   2.895  1.00  0.00     0.016 C 
HETATM    2  C2  UNL     1      -3.778  -1.599   2.602  1.00  0.00    -0.035 C 
HETATM    3  C3  UNL     1      -4.471  -1.329   3.972  1.00  0.00     0.012 C 
HETATM    4  C4  UNL     1      -5.016  -2.580   4.656  1.00  0.00     0.033 C 
HETATM    5  C5  UNL     1      -5.964  -3.373   3.762  1.00  0.00     0.126 C 
HETATM    6  C6  UNL     1      -5.357  -3.747   2.376  1.00  0.00    -0.017 C 
HETATM    7  C7  UNL     1      -4.770  -2.442   1.718  1.00  0.00     0.004 C 
HETATM    8  C8  UNL     1      -4.206  -2.624   0.294  1.00  0.00     0.007 C 
HETATM    9  C9  UNL     1      -4.067  -1.269  -0.404  1.00  0.00     0.011 C 
HETATM   10  C10 UNL     1      -3.168  -0.239   0.337  1.00  0.00    -0.028 C 
HETATM   11  C11 UNL     1      -3.555  -0.200   1.865  1.00  0.00     0.007 C 
HETATM   12  C12 UNL     1      -2.638   0.782   2.624  1.00  0.00     0.033 C 
HETATM   13  C13 UNL     1      -2.421   2.085   1.914  1.00  0.00    -0.022 C 
HETATM   14  C14 UNL     1      -2.748   2.355   0.635  1.00  0.00    -0.069 C 
HETATM   15  C15 UNL     1      -3.358   1.267  -0.287  1.00  0.00    -0.013 C 
HETATM   16  C16 UNL     1      -2.692   1.356  -1.696  1.00  0.00     0.016 C 
HETATM   17  C17 UNL     1      -2.637   2.761  -2.300  1.00  0.00     0.021 C 
HETATM   18  C18 UNL     1      -1.941   3.794  -1.382  1.00  0.00     0.048 C 
HETATM   19  C19 UNL     1      -2.599   3.769   0.027  1.00  0.00     0.033 C 
HETATM   20  C20 UNL     1      -1.991   4.869   0.934  1.00  0.00     0.019 C 
HETATM   21  C21 UNL     1      -2.100   6.297   0.341  1.00  0.00    -0.047 C 
HETATM   22  C22 UNL     1      -1.602   6.329  -1.118  1.00  0.00     0.010 C 
HETATM   23  C23 UNL     1      -2.181   5.208  -1.989  1.00  0.00     0.020 C 
HETATM   24  C24 UNL     1      -1.233   7.252   1.186  1.00  0.00     0.015 C 
HETATM   25  C25 UNL     1      -3.556   6.804   0.414  1.00  0.00     0.015 C 
HETATM   26  C40 UNL     1      -4.868   1.617  -0.462  1.00  0.00     0.021 C 
HETATM   27  C41 UNL     1      -1.695  -0.711   0.158  1.00  0.00     0.016 C 
HETATM   28  C42 UNL     1      -6.516  -4.293   1.493  1.00  0.00     0.018 C 
HETATM   29  C43 UNL     1      -4.340  -4.899   2.497  1.00  0.00     0.018 C 
ENDROOT
BRANCH  18  30
HETATM   30  C26 UNL     1      -0.406   3.534  -1.436  1.00  0.00     0.227 C 
HETATM   31  O1  UNL     1       0.306   4.049  -2.300  1.00  0.00    -0.273 OA
HETATM   32  N1  UNL     1       0.119   2.636  -0.541  1.00  0.00    -0.360 N 
HETATM   33  H71 UNL     1      -0.487   2.161   0.109  1.00  0.00     0.162 HD
BRANCH  32  34
HETATM   34  C27 UNL     1       1.512   2.238  -0.566  1.00  0.00     0.122 C 
BRANCH  34  35
HETATM   35  C28 UNL     1       1.749   1.115  -1.573  1.00  0.00     0.020 C 
BRANCH  35  36
HETATM   36  C29 UNL     1       3.174   0.555  -1.533  1.00  0.00     0.002 C 
BRANCH  36  37
HETATM   37  C30 UNL     1       4.234   1.578  -1.950  1.00  0.00     0.000 C 
BRANCH  37  38
HETATM   38  C31 UNL     1       5.627   0.964  -2.128  1.00  0.00     0.000 C 
BRANCH  38  39
HETATM   39  C32 UNL     1       6.214   0.411  -0.827  1.00  0.00     0.000 C 
BRANCH  39  40
HETATM   40  C33 UNL     1       7.680  -0.015  -0.955  1.00  0.00     0.000 C 
BRANCH  40  41
HETATM   41  C34 UNL     1       7.972  -1.098  -1.998  1.00  0.00     0.000 C 
BRANCH  41  42
HETATM   42  C35 UNL     1       7.217  -2.407  -1.744  1.00  0.00     0.009 C 
BRANCH  42  43
HETATM   43  C36 UNL     1       7.610  -3.503  -2.734  1.00  0.00     0.103 C 
BRANCH  43  44
HETATM   44  C37 UNL     1       8.974  -4.110  -2.458  1.00  0.00     0.217 C 
HETATM   45  O2  UNL     1       9.635  -3.884  -1.451  1.00  0.00    -0.274 OA
HETATM   46  N2  UNL     1       9.390  -4.966  -3.457  1.00  0.00    -0.351 N 
HETATM   47  H72 UNL     1       8.673  -5.344  -4.065  1.00  0.00     0.163 HD
BRANCH  46  48
HETATM   48  C38 UNL     1      10.580  -5.783  -3.271  1.00  0.00     0.232 C 
BRANCH  48  49
HETATM   49  C39 UNL     1      10.208  -7.111  -2.634  1.00  0.00     0.158 C 
HETATM   50  O3  UNL     1       9.098  -7.623  -2.615  1.00  0.00    -0.649 OA
BRANCH  49  51
HETATM   51  O4  UNL     1      11.271  -7.760  -2.118  1.00  0.00    -0.775 OA
HETATM   52  H69 UNL     1      10.891  -8.579  -1.736  1.00  0.00     0.167 HD
ENDBRANCH  49  51
ENDBRANCH  48  49
ENDBRANCH  46  48
ENDBRANCH  43  44
ENDBRANCH  42  43
ENDBRANCH  41  42
ENDBRANCH  40  41
ENDBRANCH  39  40
ENDBRANCH  38  39
ENDBRANCH  37  38
ENDBRANCH  36  37
ENDBRANCH  35  36
ENDBRANCH  34  35
ENDBRANCH  32  34
ENDBRANCH  18  30
BRANCH   5  53
HETATM   53  O5  UNL     1      -6.362  -4.530   4.497  1.00  0.00    -0.395 OA
HETATM   54  H70 UNL     1      -7.151  -4.901   4.068  1.00  0.00     0.210 HD
ENDBRANCH   5  53
TORSDOF 16
