REMARK  0 active torsions:
REMARK  status: ('A' for Active; 'I' for Inactive)
REMARK       I    between atoms: C2_2  and  O1_63 
REMARK       I    between atoms: C3_3  and  C14_14 
REMARK       I    between atoms: C5_5  and  N1_79 
REMARK       I    between atoms: C8_8  and  C9_9 
REMARK       I    between atoms: C8_8  and  N1_79 
REMARK       I    between atoms: C9_9  and  C10_10 
REMARK       I    between atoms: C9_9  and  N3_81 
REMARK       I    between atoms: C10_10  and  C11_11 
REMARK       I    between atoms: C11_11  and  C12_12 
REMARK       I    between atoms: C12_12  and  C13_13 
REMARK       I    between atoms: C13_13  and  N2_80 
REMARK       I    between atoms: C14_14  and  N4_82 
REMARK       I    between atoms: C15_15  and  C16_16 
REMARK       I    between atoms: C15_15  and  C20_20 
REMARK       I    between atoms: C15_15  and  N4_82 
REMARK       I    between atoms: C16_16  and  C17_17 
REMARK       I    between atoms: C17_17  and  C18_18 
REMARK       I    between atoms: C18_18  and  C19_19 
REMARK       I    between atoms: C19_19  and  N5_83 
REMARK       I    between atoms: C20_20  and  N6_84 
REMARK       I    between atoms: C21_21  and  N6_84 
REMARK       I    between atoms: C23_23  and  C28_28 
REMARK       I    between atoms: C24_24  and  O5_67 
REMARK       I    between atoms: C28_28  and  N7_85 
REMARK       I    between atoms: C29_29  and  C30_30 
REMARK       I    between atoms: C29_29  and  C34_34 
REMARK       I    between atoms: C29_29  and  N7_85 
REMARK       I    between atoms: C30_30  and  C31_31 
REMARK       I    between atoms: C31_31  and  C32_32 
REMARK       I    between atoms: C32_32  and  C33_33 
REMARK       I    between atoms: C33_33  and  N8_86 
REMARK       I    between atoms: C34_34  and  N9_87 
REMARK       I    between atoms: C35_35  and  N9_87 
REMARK       I    between atoms: C37_37  and  C42_42 
REMARK       I    between atoms: C38_38  and  O8_70 
REMARK       I    between atoms: C42_42  and  N10_88 
REMARK       I    between atoms: C43_43  and  C44_44 
REMARK       I    between atoms: C43_43  and  C48_48 
REMARK       I    between atoms: C43_43  and  N10_88 
REMARK       I    between atoms: C44_44  and  C45_45 
REMARK       I    between atoms: C45_45  and  C46_46 
REMARK       I    between atoms: C46_46  and  C47_47 
REMARK       I    between atoms: C47_47  and  N11_89 
REMARK       I    between atoms: C48_48  and  O11_73 
REMARK       I    between atoms: C49_49  and  O11_73 
REMARK       I    between atoms: C51_51  and  C56_56 
REMARK       I    between atoms: C52_52  and  O12_74 
REMARK       I    between atoms: C56_56  and  N12_90 
REMARK       I    between atoms: C57_57  and  C58_58 
REMARK       I    between atoms: C57_57  and  C62_62 
REMARK       I    between atoms: C57_57  and  N12_90 
REMARK       I    between atoms: C58_58  and  C59_59 
REMARK       I    between atoms: C59_59  and  C60_60 
REMARK       I    between atoms: C60_60  and  N13_91 
REMARK       I    between atoms: C61_61  and  N13_91 
REMARK       I    between atoms: C61_61  and  N14_92 
REMARK       I    between atoms: C62_62  and  O16_78 
ROOT
HETATM    1  C1  UNL     1      -6.814   1.529   1.211  1.00  0.00     0.210 C 
HETATM    2  C2  UNL     1      -8.562  -0.061   0.817  1.00  0.00     0.084 A 
HETATM    3  C3  UNL     1      -9.052  -1.145   0.060  1.00  0.00     0.067 A 
HETATM    4  C4  UNL     1     -10.409  -1.520   0.178  1.00  0.00     0.049 A 
HETATM    5  C5  UNL     1     -11.276  -0.841   1.033  1.00  0.00     0.035 A 
HETATM    6  C6  UNL     1     -10.774   0.222   1.788  1.00  0.00     0.032 A 
HETATM    7  C7  UNL     1      -9.434   0.608   1.683  1.00  0.00     0.040 A 
HETATM    8  C8  UNL     1     -13.375  -2.124   0.537  1.00  0.00     0.255 C 
HETATM    9  C9  UNL     1     -14.840  -2.221   1.040  1.00  0.00     0.309 C 
HETATM   10  C10 UNL     1     -14.928  -2.724   2.490  1.00  0.00     0.045 C 
HETATM   11  C11 UNL     1     -14.347  -4.125   2.719  1.00  0.00     0.004 C 
HETATM   12  C12 UNL     1     -14.451  -4.530   4.192  1.00  0.00     0.030 C 
HETATM   13  C13 UNL     1     -13.853  -5.915   4.429  1.00  0.00     0.267 C 
HETATM   14  C14 UNL     1      -8.222  -1.962  -0.890  1.00  0.00     0.255 C 
HETATM   15  C15 UNL     1      -6.052  -2.227  -2.066  1.00  0.00     0.177 C 
HETATM   16  C16 UNL     1      -5.421  -3.476  -1.422  1.00  0.00     0.035 C 
HETATM   17  C17 UNL     1      -4.285  -3.243  -0.412  1.00  0.00     0.004 C 
HETATM   18  C18 UNL     1      -4.624  -2.427   0.837  1.00  0.00     0.030 C 
HETATM   19  C19 UNL     1      -5.678  -3.084   1.729  1.00  0.00     0.267 C 
HETATM   20  C20 UNL     1      -4.983  -1.241  -2.588  1.00  0.00     0.245 C 
HETATM   21  C21 UNL     1      -3.235  -1.106  -4.385  1.00  0.00     0.035 A 
HETATM   22  C22 UNL     1      -2.779   0.187  -4.123  1.00  0.00     0.049 A 
HETATM   23  C23 UNL     1      -1.674   0.709  -4.815  1.00  0.00     0.067 A 
HETATM   24  C24 UNL     1      -1.057  -0.052  -5.813  1.00  0.00     0.084 A 
HETATM   25  C25 UNL     1      -1.514  -1.342  -6.086  1.00  0.00     0.040 A 
HETATM   26  C26 UNL     1      -2.602  -1.861  -5.380  1.00  0.00     0.032 A 
HETATM   27  C27 UNL     1      -0.264   0.819  -7.789  1.00  0.00     0.210 C 
HETATM   28  C28 UNL     1      -1.191   2.077  -4.505  1.00  0.00     0.255 C 
HETATM   29  C29 UNL     1      -0.652   3.728  -2.704  1.00  0.00     0.177 C 
HETATM   30  C30 UNL     1      -1.220   4.020  -1.300  1.00  0.00     0.035 C 
HETATM   31  C31 UNL     1      -0.502   3.447  -0.062  1.00  0.00     0.004 C 
HETATM   32  C32 UNL     1      -0.026   1.993  -0.087  1.00  0.00     0.030 C 
HETATM   33  C33 UNL     1      -1.112   0.939   0.131  1.00  0.00     0.267 C 
HETATM   34  C34 UNL     1       0.874   4.021  -2.823  1.00  0.00     0.245 C 
HETATM   35  C35 UNL     1       2.764   3.687  -4.442  1.00  0.00     0.035 A 
HETATM   36  C36 UNL     1       3.807   4.078  -3.605  1.00  0.00     0.049 A 
HETATM   37  C37 UNL     1       5.128   4.098  -4.078  1.00  0.00     0.067 A 
HETATM   38  C38 UNL     1       5.406   3.755  -5.402  1.00  0.00     0.084 A 
HETATM   39  C39 UNL     1       4.369   3.338  -6.237  1.00  0.00     0.040 A 
HETATM   40  C40 UNL     1       3.055   3.307  -5.758  1.00  0.00     0.032 A 
HETATM   41  C41 UNL     1       6.981   4.893  -6.622  1.00  0.00     0.210 C 
HETATM   42  C42 UNL     1       6.196   4.517  -3.143  1.00  0.00     0.255 C 
HETATM   43  C43 UNL     1       7.078   4.204  -0.843  1.00  0.00     0.185 C 
HETATM   44  C44 UNL     1       6.434   5.339  -0.030  1.00  0.00     0.035 C 
HETATM   45  C45 UNL     1       5.056   4.978   0.550  1.00  0.00     0.004 C 
HETATM   46  C46 UNL     1       4.439   6.159   1.305  1.00  0.00     0.030 C 
HETATM   47  C47 UNL     1       3.005   5.895   1.776  1.00  0.00     0.267 C 
HETATM   48  C48 UNL     1       7.355   2.985   0.039  1.00  0.00     0.287 C 
HETATM   49  C49 UNL     1       8.770   2.218   1.739  1.00  0.00     0.080 A 
HETATM   50  C50 UNL     1       9.962   1.527   1.530  1.00  0.00     0.057 A 
HETATM   51  C51 UNL     1      10.349   0.513   2.420  1.00  0.00     0.068 A 
HETATM   52  C52 UNL     1       9.506   0.207   3.504  1.00  0.00     0.084 A 
HETATM   53  C53 UNL     1       8.332   0.941   3.726  1.00  0.00     0.040 A 
HETATM   54  C54 UNL     1       7.962   1.953   2.842  1.00  0.00     0.040 A 
HETATM   55  C55 UNL     1       9.046  -1.937   4.222  1.00  0.00     0.210 C 
HETATM   56  C56 UNL     1      11.642  -0.184   2.132  1.00  0.00     0.255 C 
HETATM   57  C57 UNL     1      13.423  -1.685   2.986  1.00  0.00     0.182 C 
HETATM   58  C58 UNL     1      13.397  -3.066   3.649  1.00  0.00     0.038 C 
HETATM   59  C59 UNL     1      12.451  -4.031   2.928  1.00  0.00     0.022 C 
HETATM   60  C60 UNL     1      12.383  -5.382   3.637  1.00  0.00     0.124 C 
HETATM   61  C61 UNL     1      10.117  -6.157   3.142  1.00  0.00     0.291 C 
HETATM   62  C62 UNL     1      14.467  -0.807   3.675  1.00  0.00     0.163 C 
HETATM   63  O1  UNL     1      -7.235   0.269   0.698  1.00  0.00    -0.355 OA
HETATM   64  O2  UNL     1     -12.972  -2.842  -0.374  1.00  0.00    -0.271 OA
HETATM   65  O3  UNL     1      -8.671  -2.982  -1.404  1.00  0.00    -0.268 OA
HETATM   66  O4  UNL     1      -4.764  -0.178  -2.007  1.00  0.00    -0.271 OA
HETATM   67  O5  UNL     1       0.061   0.402  -6.461  1.00  0.00    -0.355 OA
HETATM   68  O6  UNL     1      -0.882   2.861  -5.397  1.00  0.00    -0.268 OA
HETATM   69  O7  UNL     1       1.480   4.662  -1.965  1.00  0.00    -0.271 OA
HETATM   70  O8  UNL     1       6.690   3.712  -5.871  1.00  0.00    -0.355 OA
HETATM   71  O9  UNL     1       6.938   5.454  -3.402  1.00  0.00    -0.268 OA
HETATM   72  O10 UNL     1       6.681   1.959   0.033  1.00  0.00    -0.263 OA
HETATM   73  O11 UNL     1       8.448   3.254   0.859  1.00  0.00    -0.277 OA
HETATM   74  O12 UNL     1       9.840  -0.760   4.420  1.00  0.00    -0.355 OA
HETATM   75  O13 UNL     1      12.239   0.023   1.080  1.00  0.00    -0.268 OA
HETATM   76  O14 UNL     1       9.547  -5.267   3.754  1.00  0.00    -0.254 OA
HETATM   77  O15 UNL     1      14.275  -0.006   4.578  1.00  0.00    -0.648 OA
HETATM   78  O16 UNL     1      15.720  -1.032   3.226  1.00  0.00    -0.775 OA
HETATM   79  N1  UNL     1     -12.639  -1.159   1.206  1.00  0.00    -0.325 N 
HETATM   80  N2  UNL     1     -13.965  -6.276   5.838  1.00  0.00     0.078 N 
HETATM   81  N3  UNL     1     -15.634  -3.071   0.129  1.00  0.00     0.092 N 
HETATM   82  N4  UNL     1      -6.951  -1.525  -1.167  1.00  0.00    -0.344 N 
HETATM   83  N5  UNL     1      -5.985  -2.232   2.875  1.00  0.00     0.078 N 
HETATM   84  N6  UNL     1      -4.302  -1.721  -3.697  1.00  0.00    -0.325 N 
HETATM   85  N7  UNL     1      -1.056   2.396  -3.173  1.00  0.00    -0.344 N 
HETATM   86  N8  UNL     1      -2.094   0.938  -0.942  1.00  0.00     0.078 N 
HETATM   87  N9  UNL     1       1.420   3.625  -4.033  1.00  0.00    -0.325 N 
HETATM   88  N10 UNL     1       6.233   3.808  -1.965  1.00  0.00    -0.343 N 
HETATM   89  N11 UNL     1       2.913   4.810   2.748  1.00  0.00     0.078 N 
HETATM   90  N12 UNL     1      12.119  -1.041   3.093  1.00  0.00    -0.342 N 
HETATM   91  N13 UNL     1      11.465  -6.291   2.980  1.00  0.00    -0.348 N 
HETATM   92  N14 UNL     1       9.433  -7.154   2.524  1.00  0.00    -0.254 NA
HETATM   93  H68 UNL     1      16.265  -0.390   3.729  1.00  0.00     0.167 HD
HETATM   94  H69 UNL     1     -13.141  -0.599   1.884  1.00  0.00     0.169 HD
HETATM   95  H70 UNL     1     -14.948  -6.326   6.101  1.00  0.00     0.312 HD
HETATM   96  H71 UNL     1     -13.587  -7.213   5.975  1.00  0.00     0.312 HD
HETATM   97  H72 UNL     1     -15.136  -3.961   0.029  1.00  0.00     0.313 HD
HETATM   98  H73 UNL     1     -15.560  -2.672  -0.811  1.00  0.00     0.313 HD
HETATM   99  H74 UNL     1      -6.623  -0.658  -0.746  1.00  0.00     0.163 HD
HETATM  100  H75 UNL     1      -6.373  -1.352   2.536  1.00  0.00     0.312 HD
HETATM  101  H76 UNL     1      -5.125  -1.995   3.367  1.00  0.00     0.312 HD
HETATM  102  H77 UNL     1      -4.568  -2.642  -4.027  1.00  0.00     0.169 HD
HETATM  103  H78 UNL     1      -1.287   1.693  -2.463  1.00  0.00     0.163 HD
HETATM  104  H79 UNL     1      -2.657   0.081  -0.896  1.00  0.00     0.312 HD
HETATM  105  H80 UNL     1      -2.787   1.668  -0.760  1.00  0.00     0.312 HD
HETATM  106  H81 UNL     1       0.747   3.307  -4.733  1.00  0.00     0.169 HD
HETATM  107  H82 UNL     1       5.615   3.013  -1.831  1.00  0.00     0.163 HD
HETATM  108  H83 UNL     1       3.165   3.930   2.300  1.00  0.00     0.312 HD
HETATM  109  H84 UNL     1       3.592   4.960   3.493  1.00  0.00     0.312 HD
HETATM  110  H85 UNL     1      11.693  -0.981   4.015  1.00  0.00     0.163 HD
HETATM  111  H86 UNL     1      11.768  -7.250   2.880  1.00  0.00     0.163 HD
HETATM  112  H87 UNL     1       9.797  -7.433   1.624  1.00  0.00     0.128 HD
HETATM  113  H88 UNL     1       8.432  -6.995   2.528  1.00  0.00     0.128 HD
ENDROOT
TORSDOF 48
