REMARK  15 active torsions:
REMARK  status: ('A' for Active; 'I' for Inactive)
REMARK    1  A    between atoms: C3_3  and  N9_40 
REMARK    2  A    between atoms: C5_5  and  C6_6 
REMARK       I    between atoms: C6_6  and  N2_33 
REMARK    3  A    between atoms: C7_7  and  N2_33 
REMARK    4  A    between atoms: C9_9  and  C11_11 
REMARK       I    between atoms: C11_11  and  N4_35 
REMARK    5  A    between atoms: C12_12  and  N4_35 
REMARK    6  A    between atoms: C14_14  and  C16_16 
REMARK    7  A    between atoms: C16_16  and  C17_17 
REMARK       I    between atoms: C17_17  and  N6_37 
REMARK    8  A    between atoms: C18_18  and  C19_19 
REMARK    9  A    between atoms: C18_18  and  N6_37 
REMARK   10  A    between atoms: C19_19  and  C20_20 
REMARK   11  A    between atoms: C20_20  and  N7_38 
REMARK       I    between atoms: C21_21  and  N7_38 
REMARK       I    between atoms: C21_21  and  N8_39 
REMARK   12  A    between atoms: C23_23  and  C24_24 
REMARK       I    between atoms: C23_23  and  N9_40 
REMARK   13  A    between atoms: C26_26  and  C28_28 
REMARK   14  A    between atoms: C28_28  and  N11_42 
REMARK   15  A    between atoms: C29_29  and  C30_30 
REMARK       I    between atoms: C29_29  and  N11_42 
ROOT
HETATM    1  C7  UNL     1      -0.843   2.128  -1.111  1.00  0.00     0.053 A 
HETATM    2  C8  UNL     1       0.006   3.149  -1.465  1.00  0.00     0.120 A 
HETATM    3  C9  UNL     1       1.299   1.478  -0.681  1.00  0.00     0.105 A 
HETATM    4  C10 UNL     1      -0.027   1.069  -0.644  1.00  0.00     0.066 A 
HETATM    5  C22 UNL     1       2.459   3.501  -1.651  1.00  0.00     0.156 C 
HETATM    6  N3  UNL     1       1.296   2.737  -1.247  1.00  0.00    -0.354 N 
ENDROOT
BRANCH   1   7
HETATM    7  N2  UNL     1      -2.222   2.088  -1.188  1.00  0.00    -0.320 N 
HETATM    8  C6  UNL     1      -3.046   3.112  -1.620  1.00  0.00     0.273 C 
HETATM    9  O1  UNL     1      -2.645   4.219  -1.972  1.00  0.00    -0.266 OA
HETATM   10  H27 UNL     1      -2.648   1.227  -0.878  1.00  0.00     0.169 HD
BRANCH   8  11
HETATM   11  C5  UNL     1      -4.471   2.779  -1.612  1.00  0.00     0.105 A 
HETATM   12  C4  UNL     1      -5.105   1.557  -1.403  1.00  0.00     0.066 A 
HETATM   13  C3  UNL     1      -6.504   1.740  -1.489  1.00  0.00     0.053 A 
HETATM   14  C2  UNL     1      -6.713   3.069  -1.766  1.00  0.00     0.120 A 
HETATM   15  N1  UNL     1      -5.490   3.690  -1.842  1.00  0.00    -0.354 N 
HETATM   16  C1  UNL     1      -5.322   5.103  -2.114  1.00  0.00     0.156 C 
BRANCH  13  17
HETATM   17  N9  UNL     1      -7.536   0.831  -1.353  1.00  0.00    -0.320 N 
HETATM   18  C23 UNL     1      -7.381  -0.496  -0.989  1.00  0.00     0.272 C 
HETATM   19  O5  UNL     1      -6.314  -1.010  -0.667  1.00  0.00    -0.266 OA
HETATM   20  H34 UNL     1      -8.466   1.210  -1.432  1.00  0.00     0.169 HD
BRANCH  18  21
HETATM   21  C24 UNL     1      -8.623  -1.253  -0.981  1.00  0.00     0.101 A 
HETATM   22  C25 UNL     1      -8.891  -2.421  -0.284  1.00  0.00     0.045 A 
HETATM   23  C26 UNL     1     -10.225  -2.830  -0.564  1.00  0.00    -0.023 A 
HETATM   24  C27 UNL     1     -10.729  -1.902  -1.454  1.00  0.00     0.097 A 
HETATM   25  N10 UNL     1      -9.756  -0.976  -1.716  1.00  0.00    -0.361 N 
HETATM   26  H35 UNL     1      -9.849  -0.225  -2.387  1.00  0.00     0.165 HD
BRANCH  23  27
HETATM   27  C28 UNL     1     -10.933  -4.020  -0.012  1.00  0.00     0.162 C 
BRANCH  27  28
HETATM   28  N11 UNL     1     -11.692  -3.587   1.136  1.00  0.00    -0.352 N 
HETATM   29  C29 UNL     1     -13.045  -3.371   1.084  1.00  0.00     0.258 C 
HETATM   30  O6  UNL     1     -13.736  -3.648   0.107  1.00  0.00    -0.267 OA
HETATM   31  H36 UNL     1     -11.176  -3.241   1.934  1.00  0.00     0.163 HD
BRANCH  29  32
HETATM   32  C30 UNL     1     -13.636  -2.754   2.325  1.00  0.00     0.069 C 
HETATM   33  C31 UNL     1     -14.960  -2.542   2.368  1.00  0.00     0.037 C 
HETATM   34 BR1  UNL     1     -12.538  -2.291   3.767  1.00  0.00    -0.046 Br
ENDBRANCH  29  32
ENDBRANCH  27  28
ENDBRANCH  23  27
ENDBRANCH  18  21
ENDBRANCH  13  17
ENDBRANCH   8  11
ENDBRANCH   1   7
BRANCH   3  35
HETATM   35  C11 UNL     1       2.456   0.704  -0.267  1.00  0.00     0.273 C 
HETATM   36  N4  UNL     1       3.334   1.428   0.517  1.00  0.00    -0.320 N 
HETATM   37  H28 UNL     1       3.051   2.347   0.823  1.00  0.00     0.169 HD
HETATM   38  O2  UNL     1       2.581  -0.478  -0.566  1.00  0.00    -0.266 OA
BRANCH  36  39
HETATM   39  C12 UNL     1       4.534   0.960   1.011  1.00  0.00     0.052 A 
HETATM   40  C13 UNL     1       5.347   1.714   1.828  1.00  0.00     0.117 A 
HETATM   41  N5  UNL     1       6.455   0.968   2.139  1.00  0.00    -0.367 N 
HETATM   42  C14 UNL     1       6.370  -0.259   1.521  1.00  0.00     0.020 A 
HETATM   43  H29 UNL     1       7.236   1.275   2.710  1.00  0.00     0.165 HD
HETATM   44  C15 UNL     1       5.181  -0.284   0.818  1.00  0.00     0.056 A 
BRANCH  42  45
HETATM   45  C16 UNL     1       7.432  -1.297   1.678  1.00  0.00     0.159 C 
BRANCH  45  46
HETATM   46  C17 UNL     1       8.802  -0.694   1.402  1.00  0.00     0.223 C 
HETATM   47  N6  UNL     1       9.355  -1.056   0.193  1.00  0.00    -0.361 N 
HETATM   48  H30 UNL     1       8.784  -1.574  -0.465  1.00  0.00     0.162 HD
HETATM   49  O3  UNL     1       9.350   0.068   2.196  1.00  0.00    -0.273 OA
BRANCH  47  50
HETATM   50  C18 UNL     1      10.611  -0.509  -0.283  1.00  0.00     0.124 C 
BRANCH  50  51
HETATM   51  C19 UNL     1      11.797  -1.423   0.009  1.00  0.00     0.039 C 
BRANCH  51  52
HETATM   52  C20 UNL     1      12.208  -1.404   1.481  1.00  0.00     0.125 C 
BRANCH  52  53
HETATM   53  N7  UNL     1      13.373  -2.233   1.729  1.00  0.00    -0.348 N 
HETATM   54  C21 UNL     1      14.625  -1.817   1.387  1.00  0.00     0.291 C 
HETATM   55  N8  UNL     1      15.564  -2.762   1.648  1.00  0.00    -0.254 NA
HETATM   56  O4  UNL     1      14.916  -0.735   0.903  1.00  0.00    -0.254 OA
HETATM   57  H32 UNL     1      15.440  -3.265   2.514  1.00  0.00     0.128 HD
HETATM   58  H33 UNL     1      16.504  -2.411   1.511  1.00  0.00     0.128 HD
HETATM   59  H31 UNL     1      13.239  -3.234   1.743  1.00  0.00     0.163 HD
ENDBRANCH  52  53
ENDBRANCH  51  52
ENDBRANCH  50  51
ENDBRANCH  47  50
ENDBRANCH  45  46
ENDBRANCH  42  45
ENDBRANCH  36  39
ENDBRANCH   3  35
TORSDOF 15
