REMARK  17 active torsions:
REMARK  status: ('A' for Active; 'I' for Inactive)
REMARK    1  A    between atoms: C4_4  and  N5_56 
REMARK    2  A    between atoms: C7_7  and  N1_50 
REMARK    3  A    between atoms: C8_8  and  N2_52 
REMARK    4  A    between atoms: C9_9  and  S1_68 
REMARK    5  A    between atoms: C13_13  and  N3_54 
REMARK    6  A    between atoms: C17_17  and  O1_62 
REMARK    7  A    between atoms: C18_18  and  N3_54 
REMARK    8  A    between atoms: C21_21  and  N4_55 
REMARK    9  A    between atoms: C26_26  and  N6_58 
REMARK   10  A    between atoms: C29_29  and  N7_60 
REMARK   11  A    between atoms: C32_32  and  N7_60 
REMARK   12  A    between atoms: C35_35  and  C38_38 
REMARK       I    between atoms: C38_38  and  N8_61 
REMARK   13  A    between atoms: C39_39  and  N8_61 
REMARK   14  A    between atoms: C43_43  and  S3_70 
REMARK   15  A    between atoms: C45_45  and  O3_64 
REMARK   16  A    between atoms: O3_64  and  S2_69 
REMARK   17  A    between atoms: O6_67  and  S2_69 
ROOT
HETATM    1  N5  UNL     1       0.437   2.069  -0.798  1.00  0.00    -0.300 N 
ATOM      2  H5  UNL     1       0.894   2.015  -1.708  1.00  0.00     0.187 HD
HETATM    3  N6  UNL     1       1.029   2.033   0.304  1.00  0.00    -0.300 N 
ATOM      4  H6  UNL     1       0.568   2.068   1.213  1.00  0.00     0.187 HD
ENDROOT
BRANCH   1   5
HETATM    5  C4  UNL     1      -0.951   2.195  -0.599  1.00  0.00     0.054 A 
HETATM    6  C3  UNL     1      -1.703   1.089  -0.176  1.00  0.00     0.040 A 
HETATM    7  C2  UNL     1      -3.093   1.177   0.009  1.00  0.00    -0.032 A 
HETATM    8  C1  UNL     1      -3.860  -0.027   0.481  1.00  0.00     0.050 C 
HETATM    9  C7  UNL     1      -3.751   2.391  -0.255  1.00  0.00     0.054 A 
HETATM   10  C6  UNL     1      -2.994   3.497  -0.678  1.00  0.00     0.040 A 
HETATM   11  C5  UNL     1      -1.605   3.410  -0.863  1.00  0.00    -0.032 A 
HETATM   12  C25 UNL     1      -0.830   4.612  -1.325  1.00  0.00     0.050 C 
BRANCH   9  13
HETATM   13  N1  UNL     1      -5.144   2.484  -0.047  1.00  0.00    -0.300 N 
HETATM   14  N2  UNL     1      -5.724   2.975  -1.040  1.00  0.00    -0.296 N 
ATOM     15  H2  UNL     1      -5.259   3.317  -1.881  1.00  0.00     0.187 HD
ATOM     16  H1  UNL     1      -5.618   2.188   0.806  1.00  0.00     0.187 HD
BRANCH  14  17
HETATM   17  C8  UNL     1      -7.121   2.985  -0.823  1.00  0.00     0.098 A 
HETATM   18  C9  UNL     1      -7.783   4.098  -0.282  1.00  0.00     0.029 A 
HETATM   19  C10 UNL     1      -9.176   4.069  -0.125  1.00  0.00     0.033 A 
HETATM   20  C11 UNL     1      -9.934   2.945  -0.500  1.00  0.00    -0.020 A 
HETATM   21  C12 UNL     1     -11.337   2.925  -0.336  1.00  0.00     0.041 A 
HETATM   22  C16 UNL     1      -9.281   1.823  -1.047  1.00  0.00     0.010 A 
HETATM   23  C13 UNL     1     -12.121   1.834  -0.719  1.00  0.00     0.029 A 
HETATM   24  C14 UNL     1     -11.446   0.719  -1.234  1.00  0.00     0.030 A 
HETATM   25  C15 UNL     1     -10.058   0.712  -1.407  1.00  0.00     0.017 A 
HETATM   26  C17 UNL     1      -7.881   1.864  -1.203  1.00  0.00     0.106 A 
BRANCH  18  27
HETATM   27  S1  UNL     1      -6.911   5.581   0.212  1.00  0.00    -0.141 SA
HETATM   28  H45 UNL     1      -5.704   5.001   0.305  1.00  0.00     0.107 HD
ENDBRANCH  18  27
BRANCH  23  29
HETATM   29  N3  UNL     1     -13.492   1.723  -0.533  1.00  0.00    -0.377 N 
HETATM   30  H38 UNL     1     -13.902   1.125  -1.249  1.00  0.00     0.160 HD
BRANCH  29  31
HETATM   31  C18 UNL     1     -14.439   2.762  -0.096  1.00  0.00     0.048 C 
HETATM   32  C19 UNL     1     -14.378   4.021  -1.014  1.00  0.00     0.063 C 
HETATM   33  C20 UNL     1     -15.703   4.622  -1.407  1.00  0.00    -0.001 C 
HETATM   34  C21 UNL     1     -16.873   3.984  -1.262  1.00  0.00     0.002 C 
HETATM   35  C22 UNL     1     -16.889   2.650  -0.702  1.00  0.00     0.021 C 
HETATM   36  C23 UNL     1     -15.799   2.082  -0.166  1.00  0.00     0.005 C 
HETATM   37  C24 UNL     1     -14.231   3.114   1.388  1.00  0.00     0.043 C 
BRANCH  34  38
HETATM   38  N4  UNL     1     -18.072   4.532  -1.643  1.00  0.00    -0.303 NA
HETATM   39  H39 UNL     1     -17.974   5.305  -2.294  1.00  0.00     0.124 HD
HETATM   40  H40 UNL     1     -18.745   3.845  -1.970  1.00  0.00     0.124 HD
ENDBRANCH  34  38
ENDBRANCH  29  31
ENDBRANCH  23  29
BRANCH  26  41
HETATM   41  O1  UNL     1      -7.237   0.772  -1.745  1.00  0.00    -0.357 OA
HETATM   42  H43 UNL     1      -6.284   0.986  -1.743  1.00  0.00     0.217 HD
ENDBRANCH  26  41
ENDBRANCH  14  17
ENDBRANCH   9  13
ENDBRANCH   1   5
BRANCH   3  43
HETATM   43  C26 UNL     1       2.419   1.937   0.114  1.00  0.00     0.048 A 
HETATM   44  C27 UNL     1       3.246   2.967   0.569  1.00  0.00     0.039 A 
HETATM   45  C28 UNL     1       4.645   2.900   0.428  1.00  0.00    -0.033 A 
HETATM   46  C29 UNL     1       5.233   1.776  -0.192  1.00  0.00     0.038 A 
HETATM   47  C49 UNL     1       5.480   4.039   0.950  1.00  0.00     0.050 C 
HETATM   48  C30 UNL     1       4.394   0.739  -0.625  1.00  0.00     0.032 A 
HETATM   49  C31 UNL     1       3.006   0.816  -0.475  1.00  0.00     0.033 A 
BRANCH  46  50
HETATM   50  N7  UNL     1       6.635   1.690  -0.314  1.00  0.00    -0.356 N 
HETATM   51  H41 UNL     1       7.083   2.582  -0.490  1.00  0.00     0.166 HD
BRANCH  50  52
HETATM   52  C32 UNL     1       7.503   0.586  -0.377  1.00  0.00     0.032 A 
HETATM   53  C33 UNL     1       8.700   0.700  -1.096  1.00  0.00     0.030 A 
HETATM   54  C34 UNL     1       9.580  -0.381  -1.209  1.00  0.00     0.019 A 
HETATM   55  C35 UNL     1       9.277  -1.599  -0.593  1.00  0.00     0.032 A 
HETATM   56  C36 UNL     1       8.075  -1.735   0.109  1.00  0.00     0.019 A 
HETATM   57  C37 UNL     1       7.201  -0.647   0.214  1.00  0.00     0.030 A 
BRANCH  55  58
HETATM   58  C38 UNL     1      10.239  -2.728  -0.733  1.00  0.00     0.256 C 
HETATM   59  N8  UNL     1      10.351  -3.541   0.384  1.00  0.00    -0.323 N 
HETATM   60  H42 UNL     1       9.863  -3.219   1.210  1.00  0.00     0.169 HD
HETATM   61  O2  UNL     1      10.865  -2.828  -1.782  1.00  0.00    -0.267 OA
BRANCH  59  62
HETATM   62  C39 UNL     1      11.119  -4.672   0.560  1.00  0.00     0.032 C 
HETATM   63  C40 UNL     1      11.139  -5.258   1.771  1.00  0.00     0.012 C 
HETATM   64  C41 UNL     1      11.923  -6.519   2.070  1.00  0.00     0.051 C 
HETATM   65  C42 UNL     1      12.607  -6.451   3.455  1.00  0.00     0.059 C 
HETATM   66  C46 UNL     1      12.920  -6.895   0.978  1.00  0.00    -0.015 C 
HETATM   67  C43 UNL     1      13.569  -7.601   3.669  1.00  0.00    -0.021 C 
HETATM   68  C44 UNL     1      14.159  -8.204   2.621  1.00  0.00     0.052 C 
HETATM   69  C45 UNL     1      13.930  -7.741   1.264  1.00  0.00     0.099 C 
HETATM   70  C47 UNL     1      12.727  -6.295  -0.329  1.00  0.00     0.013 C 
HETATM   71  C48 UNL     1      11.881  -5.270  -0.519  1.00  0.00     0.030 C 
BRANCH  67  72
HETATM   72  S3  UNL     1      13.881  -8.113   5.301  1.00  0.00    -0.147 SA
HETATM   73  H46 UNL     1      14.739  -9.117   5.062  1.00  0.00     0.107 HD
ENDBRANCH  67  72
BRANCH  69  74
HETATM   74  O3  UNL     1      14.854  -8.141   0.320  1.00  0.00    -0.220 OA
BRANCH  74  75
HETATM   75  S2  UNL     1      14.846  -9.660  -0.279  1.00  0.00     0.245 S 
HETATM   76  O4  UNL     1      15.359  -9.602  -1.631  1.00  0.00    -0.579 OA
HETATM   77  O5  UNL     1      15.402 -10.562   0.705  1.00  0.00    -0.579 OA
BRANCH  75  78
HETATM   78  O6  UNL     1      13.279 -10.013  -0.443  1.00  0.00    -0.273 OA
HETATM   79  H44 UNL     1      12.975  -9.632  -1.292  1.00  0.00     0.234 HD
ENDBRANCH  75  78
ENDBRANCH  74  75
ENDBRANCH  69  74
ENDBRANCH  59  62
ENDBRANCH  55  58
ENDBRANCH  50  52
ENDBRANCH  46  50
ENDBRANCH   3  43
TORSDOF 17
