REMARK  18 active torsions:
REMARK  status: ('A' for Active; 'I' for Inactive)
REMARK    1  A    between atoms: C2_2  and  C4_4 
REMARK    2  A    between atoms: C7_7  and  C30_30 
REMARK    3  A    between atoms: C16_16  and  O1_45 
REMARK       I    between atoms: C30_30  and  N1_51 
REMARK    4  A    between atoms: C31_31  and  C32_32 
REMARK    5  A    between atoms: C31_31  and  N1_51 
REMARK    6  A    between atoms: C32_32  and  C33_33 
REMARK    7  A    between atoms: C33_33  and  C34_34 
REMARK    8  A    between atoms: C34_34  and  C35_35 
REMARK    9  A    between atoms: C35_35  and  C36_36 
REMARK   10  A    between atoms: C36_36  and  C37_37 
REMARK   11  A    between atoms: C37_37  and  C38_38 
REMARK   12  A    between atoms: C38_38  and  C39_39 
REMARK       I    between atoms: C39_39  and  N2_52 
REMARK   13  A    between atoms: C40_40  and  C41_41 
REMARK   14  A    between atoms: C40_40  and  C44_44 
REMARK   15  A    between atoms: C40_40  and  N2_52 
REMARK   16  A    between atoms: C41_41  and  C42_42 
REMARK   17  A    between atoms: C42_42  and  C43_43 
REMARK       I    between atoms: C43_43  and  N3_53 
REMARK   18  A    between atoms: C44_44  and  O6_50 
ROOT
HETATM    1  C4  UNL     1      -0.930  -3.637   0.179  1.00  0.00     0.019 C 
HETATM    2  C5  UNL     1      -0.101  -4.450   1.206  1.00  0.00     0.010 C 
HETATM    3  C6  UNL     1      -0.822  -4.344   2.558  1.00  0.00     0.020 C 
HETATM    4  C7  UNL     1      -1.646  -3.055   2.465  1.00  0.00     0.045 C 
HETATM    5  C8  UNL     1      -2.144  -3.143   1.003  1.00  0.00     0.016 C 
HETATM    6  C9  UNL     1      -2.917  -1.865   0.616  1.00  0.00     0.000 C 
HETATM    7  C10 UNL     1      -3.261  -1.757  -0.873  1.00  0.00     0.006 C 
HETATM    8  C11 UNL     1      -3.948  -0.431  -1.212  1.00  0.00     0.006 C 
HETATM    9  C12 UNL     1      -5.203  -0.167  -0.347  1.00  0.00     0.003 C 
HETATM   10  C13 UNL     1      -6.109   1.041  -0.857  1.00  0.00    -0.035 C 
HETATM   11  C14 UNL     1      -6.609   0.702  -2.308  1.00  0.00     0.012 C 
HETATM   12  C15 UNL     1      -8.092   0.979  -2.580  1.00  0.00     0.033 C 
HETATM   13  C16 UNL     1      -8.606   2.250  -1.915  1.00  0.00     0.126 C 
HETATM   14  C17 UNL     1      -8.459   2.200  -0.359  1.00  0.00    -0.017 C 
HETATM   15  C18 UNL     1      -7.360   1.151   0.083  1.00  0.00     0.004 C 
HETATM   16  C19 UNL     1      -6.961   1.246   1.569  1.00  0.00     0.007 C 
HETATM   17  C20 UNL     1      -6.154   0.021   2.011  1.00  0.00     0.011 C 
HETATM   18  C21 UNL     1      -4.854  -0.217   1.196  1.00  0.00    -0.032 C 
HETATM   19  C22 UNL     1      -4.196  -1.671   1.533  1.00  0.00    -0.032 C 
HETATM   20  C23 UNL     1      -3.785  -1.814   3.043  1.00  0.00     0.011 C 
HETATM   21  C24 UNL     1      -2.899  -3.041   3.366  1.00  0.00     0.020 C 
HETATM   22  C25 UNL     1      -5.227  -2.824   1.278  1.00  0.00     0.016 C 
HETATM   23  C26 UNL     1      -3.862   0.918   1.595  1.00  0.00     0.016 C 
HETATM   24  C27 UNL     1      -8.234   3.607   0.234  1.00  0.00     0.018 C 
HETATM   25  C28 UNL     1      -9.826   1.709   0.202  1.00  0.00     0.018 C 
HETATM   26  C29 UNL     1      -5.312   2.363  -0.942  1.00  0.00     0.016 C 
ENDROOT
BRANCH   4  27
HETATM   27  C30 UNL     1      -0.727  -1.883   2.934  1.00  0.00     0.226 C 
HETATM   28  O2  UNL     1      -0.697  -1.530   4.115  1.00  0.00    -0.273 OA
HETATM   29  N1  UNL     1       0.137  -1.329   2.019  1.00  0.00    -0.360 N 
HETATM   30  H70 UNL     1      -0.170  -1.307   1.061  1.00  0.00     0.162 HD
BRANCH  29  31
HETATM   31  C31 UNL     1       1.008  -0.236   2.410  1.00  0.00     0.122 C 
BRANCH  31  32
HETATM   32  C32 UNL     1       2.053   0.042   1.334  1.00  0.00     0.020 C 
BRANCH  32  33
HETATM   33  C33 UNL     1       2.979   1.189   1.743  1.00  0.00     0.002 C 
BRANCH  33  34
HETATM   34  C34 UNL     1       3.968   1.593   0.647  1.00  0.00     0.000 C 
BRANCH  34  35
HETATM   35  C35 UNL     1       4.988   0.502   0.314  1.00  0.00     0.000 C 
BRANCH  35  36
HETATM   36  C36 UNL     1       6.021   1.000  -0.700  1.00  0.00     0.000 C 
BRANCH  36  37
HETATM   37  C37 UNL     1       7.038  -0.094  -1.040  1.00  0.00     0.009 C 
BRANCH  37  38
HETATM   38  C38 UNL     1       8.074   0.372  -2.062  1.00  0.00     0.103 C 
BRANCH  38  39
HETATM   39  C39 UNL     1       9.110   1.320  -1.487  1.00  0.00     0.218 C 
HETATM   40  O3  UNL     1       9.209   1.592  -0.296  1.00  0.00    -0.274 OA
HETATM   41  N2  UNL     1       9.953   1.835  -2.442  1.00  0.00    -0.347 N 
HETATM   42  H71 UNL     1       9.783   1.663  -3.428  1.00  0.00     0.163 HD
BRANCH  41  43
HETATM   43  C40 UNL     1      11.010   2.792  -2.110  1.00  0.00     0.182 C 
BRANCH  43  44
HETATM   44  C41 UNL     1      12.256   2.055  -1.607  1.00  0.00     0.045 C 
BRANCH  44  45
HETATM   45  C42 UNL     1      13.165   2.953  -0.766  1.00  0.00     0.105 C 
BRANCH  45  46
HETATM   46  C43 UNL     1      14.397   2.215  -0.289  1.00  0.00     0.215 C 
HETATM   47  O4  UNL     1      14.718   1.088  -0.645  1.00  0.00    -0.274 OA
HETATM   48  N3  UNL     1      15.176   2.928   0.575  1.00  0.00    -0.370 N 
HETATM   49  H72 UNL     1      15.975   2.451   0.971  1.00  0.00     0.159 HD
HETATM   50  H73 UNL     1      14.853   3.775   1.021  1.00  0.00     0.159 HD
ENDBRANCH  45  46
ENDBRANCH  44  45
ENDBRANCH  43  44
BRANCH  43  51
HETATM   51  C44 UNL     1      11.349   3.633  -3.348  1.00  0.00     0.163 C 
HETATM   52  O5  UNL     1      12.137   4.564  -3.398  1.00  0.00    -0.648 OA
BRANCH  51  53
HETATM   53  O6  UNL     1      10.699   3.242  -4.470  1.00  0.00    -0.775 OA
HETATM   54  H69 UNL     1      11.031   3.861  -5.155  1.00  0.00     0.167 HD
ENDBRANCH  51  53
ENDBRANCH  43  51
ENDBRANCH  41  43
ENDBRANCH  38  39
ENDBRANCH  37  38
ENDBRANCH  36  37
ENDBRANCH  35  36
ENDBRANCH  34  35
ENDBRANCH  33  34
ENDBRANCH  32  33
ENDBRANCH  31  32
ENDBRANCH  29  31
ENDBRANCH   4  27
BRANCH   1  55
HETATM   55  C2  UNL     1      -1.161  -4.451  -1.090  1.00  0.00    -0.089 C 
HETATM   56  C1  UNL     1       0.033  -4.534  -2.011  1.00  0.00     0.043 C 
HETATM   57  C3  UNL     1      -2.304  -5.074  -1.425  1.00  0.00     0.014 C 
ENDBRANCH   1  55
BRANCH  13  58
HETATM   58  O1  UNL     1      -7.931   3.355  -2.510  1.00  0.00    -0.395 OA
HETATM   59  H68 UNL     1      -8.426   4.161  -2.287  1.00  0.00     0.210 HD
ENDBRANCH  13  58
TORSDOF 18
