REMARK  13 active torsions:
REMARK  status: ('A' for Active; 'I' for Inactive)
REMARK    1  A    between atoms: C3_3  and  N8_36 
REMARK    2  A    between atoms: C5_5  and  C6_6 
REMARK       I    between atoms: C6_6  and  N2_28 
REMARK    3  A    between atoms: C7_7  and  N2_28 
REMARK    4  A    between atoms: C8_8  and  C10_10 
REMARK       I    between atoms: C10_10  and  N5_32 
REMARK    5  A    between atoms: C11_11  and  C12_12 
REMARK    6  A    between atoms: C11_11  and  N5_32 
REMARK    7  A    between atoms: C12_12  and  C13_13 
REMARK    8  A    between atoms: C13_13  and  N7_35 
REMARK    9  A    between atoms: C15_15  and  C16_16 
REMARK       I    between atoms: C15_15  and  N8_36 
REMARK   10  A    between atoms: C18_18  and  N10_38 
REMARK   11  A    between atoms: C21_21  and  C22_22 
REMARK       I    between atoms: C21_21  and  N10_38 
REMARK   12  A    between atoms: C23_23  and  N14_44 
REMARK   13  A    between atoms: C24_24  and  C25_25 
REMARK       I    between atoms: C24_24  and  N14_44 
ROOT
HETATM    1  C1  UNL     1      -1.864   1.790  -4.820  1.00  0.00     0.156 C 
HETATM    2  C2  UNL     1       0.164   1.010  -3.607  1.00  0.00     0.120 A 
HETATM    3  C3  UNL     1       0.449   0.377  -2.422  1.00  0.00     0.053 A 
HETATM    4  C4  UNL     1      -0.788   0.129  -1.784  1.00  0.00     0.066 A 
HETATM    5  C5  UNL     1      -1.818   0.621  -2.582  1.00  0.00     0.105 A 
HETATM    6  N1  UNL     1      -1.198   1.155  -3.700  1.00  0.00    -0.354 N 
ENDROOT
BRANCH   3   7
HETATM    7  N8  UNL     1       1.735   0.074  -2.025  1.00  0.00    -0.320 N 
HETATM    8  C15 UNL     1       2.083  -0.503  -0.819  1.00  0.00     0.273 C 
HETATM    9  O3  UNL     1       1.306  -0.758   0.095  1.00  0.00    -0.266 OA
HETATM   10  H26 UNL     1       2.480   0.376  -2.637  1.00  0.00     0.169 HD
BRANCH   8  11
HETATM   11  C16 UNL     1       3.508  -0.755  -0.711  1.00  0.00     0.105 A 
HETATM   12  C17 UNL     1       4.341  -0.393   0.339  1.00  0.00     0.066 A 
HETATM   13  C18 UNL     1       5.655  -0.810   0.031  1.00  0.00     0.053 A 
HETATM   14  C19 UNL     1       5.597  -1.455  -1.182  1.00  0.00     0.120 A 
HETATM   15  N9  UNL     1       4.292  -1.453  -1.607  1.00  0.00    -0.354 N 
HETATM   16  C20 UNL     1       3.824  -2.161  -2.781  1.00  0.00     0.156 C 
BRANCH  13  17
HETATM   17  N10 UNL     1       6.828  -0.662   0.738  1.00  0.00    -0.319 N 
HETATM   18  C21 UNL     1       6.962  -0.031   1.958  1.00  0.00     0.292 C 
HETATM   19  O4  UNL     1       6.069   0.509   2.602  1.00  0.00    -0.264 OA
HETATM   20  H27 UNL     1       7.678  -1.056   0.341  1.00  0.00     0.169 HD
BRANCH  18  21
HETATM   21  C22 UNL     1       8.322  -0.062   2.433  1.00  0.00     0.204 A 
HETATM   22  N11 UNL     1       9.349  -0.594   1.800  1.00  0.00    -0.168 N 
HETATM   23  C23 UNL     1      10.392  -0.377   2.648  1.00  0.00     0.701 A 
ATOM     24  H11 UNL     1       9.360  -1.058   0.892  1.00  0.00     0.186 HD
HETATM   25  N12 UNL     1      10.075   0.271   3.773  1.00  0.00    -0.130 N 
HETATM   26  N13 UNL     1       8.752   0.458   3.614  1.00  0.00    -0.266 N 
ATOM     27  H12 UNL     1      10.677   0.550   4.548  1.00  0.00     0.205 HD
HETATM   28  H28 UNL     1       8.206   0.933   4.326  1.00  0.00     0.189 HD
BRANCH  23  29
HETATM   29  N14 UNL     1      11.675  -0.765   2.403  1.00  0.00    -0.153 N 
HETATM   30  C24 UNL     1      12.083  -1.452   1.286  1.00  0.00     0.276 C 
HETATM   31  O5  UNL     1      11.379  -1.846   0.362  1.00  0.00    -0.266 OA
HETATM   32  H29 UNL     1      12.316  -0.537   3.146  1.00  0.00     0.187 HD
BRANCH  30  33
HETATM   33  C25 UNL     1      13.557  -1.740   1.287  1.00  0.00     0.070 C 
HETATM   34  C26 UNL     1      14.448  -0.772   1.554  1.00  0.00     0.037 C 
HETATM   35 BR1  UNL     1      14.092  -3.469   0.827  1.00  0.00    -0.046 Br
ENDBRANCH  30  33
ENDBRANCH  23  29
ENDBRANCH  18  21
ENDBRANCH  13  17
ENDBRANCH   8  11
ENDBRANCH   3   7
BRANCH   5  36
HETATM   36  C6  UNL     1      -3.264   0.608  -2.364  1.00  0.00     0.274 C 
HETATM   37  N2  UNL     1      -3.647   0.153  -1.124  1.00  0.00    -0.306 N 
HETATM   38  H21 UNL     1      -2.963  -0.108  -0.433  1.00  0.00     0.170 HD
HETATM   39  O1  UNL     1      -4.053   0.985  -3.227  1.00  0.00    -0.266 OA
BRANCH  37  40
HETATM   40  C7  UNL     1      -4.938   0.029  -0.677  1.00  0.00     0.125 A 
HETATM   41  C9  UNL     1      -6.158   0.290  -1.328  1.00  0.00     0.086 A 
HETATM   42  C8  UNL     1      -7.155   0.024  -0.404  1.00  0.00     0.121 A 
HETATM   43  N4  UNL     1      -6.482  -0.448   0.694  1.00  0.00    -0.290 N 
HETATM   44  C14 UNL     1      -7.035  -1.020   1.900  1.00  0.00     0.178 C 
HETATM   45  N3  UNL     1      -5.142  -0.406   0.567  1.00  0.00    -0.283 N 
ATOM     46  H3  UNL     1      -4.441  -0.652   1.266  1.00  0.00     0.189 HD
BRANCH  42  47
HETATM   47  C10 UNL     1      -8.578   0.158  -0.594  1.00  0.00     0.269 C 
HETATM   48  N5  UNL     1      -9.284   0.546   0.528  1.00  0.00    -0.355 N 
HETATM   49  H22 UNL     1      -8.745   1.027   1.241  1.00  0.00     0.162 HD
HETATM   50  O2  UNL     1      -9.124  -0.009  -1.680  1.00  0.00    -0.266 OA
BRANCH  48  51
HETATM   51  C11 UNL     1     -10.675   0.954   0.416  1.00  0.00     0.130 C 
BRANCH  51  52
HETATM   52  C12 UNL     1     -11.437   0.799   1.726  1.00  0.00     0.089 C 
BRANCH  52  53
HETATM   53  C13 UNL     1     -10.827   1.668   2.802  1.00  0.00     0.049 C 
HETATM   54  N6  UNL     1      -9.971   1.190   3.645  1.00  0.00    -0.393 N 
HETATM   55  H23 UNL     1      -9.833   0.187   3.486  1.00  0.00     0.157 HD
ATOM     56  H6  UNL     1      -9.499   1.735   4.367  1.00  0.00     0.157 HD
BRANCH  53  57
HETATM   57  N7  UNL     1     -11.152   2.985   2.877  1.00  0.00    -0.293 NA
HETATM   58  H24 UNL     1     -10.858   3.404   3.755  1.00  0.00     0.125 HD
HETATM   59  H25 UNL     1     -12.088   3.254   2.600  1.00  0.00     0.125 HD
ENDBRANCH  53  57
ENDBRANCH  52  53
ENDBRANCH  51  52
ENDBRANCH  48  51
ENDBRANCH  42  47
ENDBRANCH  37  40
ENDBRANCH   5  36
TORSDOF 13
