REMARK  0 active torsions:
REMARK  status: ('A' for Active; 'I' for Inactive)
REMARK       I    between atoms: C4_4  and  C5_5 
REMARK       I    between atoms: C5_5  and  C6_6 
REMARK       I    between atoms: C6_6  and  C7_7 
REMARK       I    between atoms: C7_7  and  C8_8 
REMARK       I    between atoms: C8_8  and  C9_9 
REMARK       I    between atoms: C9_9  and  N1_62 
REMARK       I    between atoms: C10_10  and  C11_11 
REMARK       I    between atoms: C10_10  and  N1_62 
REMARK       I    between atoms: C11_11  and  C12_12 
REMARK       I    between atoms: C12_12  and  O2_51 
REMARK       I    between atoms: C13_13  and  C14_14 
REMARK       I    between atoms: C13_13  and  O2_51 
REMARK       I    between atoms: C14_14  and  O3_52 
REMARK       I    between atoms: C15_15  and  C16_16 
REMARK       I    between atoms: C15_15  and  O3_52 
REMARK       I    between atoms: C16_16  and  O4_53 
REMARK       I    between atoms: C17_17  and  C18_18 
REMARK       I    between atoms: C17_17  and  O4_53 
REMARK       I    between atoms: C18_18  and  C19_19 
REMARK       I    between atoms: C19_19  and  N2_63 
REMARK       I    between atoms: C20_20  and  C21_21 
REMARK       I    between atoms: C20_20  and  N2_63 
REMARK       I    between atoms: C21_21  and  C22_22 
REMARK       I    between atoms: C21_21  and  N6_67 
REMARK       I    between atoms: C22_22  and  C23_23 
REMARK       I    between atoms: C23_23  and  C24_24 
REMARK       I    between atoms: C24_24  and  C25_25 
REMARK       I    between atoms: C25_25  and  N3_64 
REMARK       I    between atoms: C26_26  and  C27_27 
REMARK       I    between atoms: C26_26  and  N3_64 
REMARK       I    between atoms: C27_27  and  C28_28 
REMARK       I    between atoms: C28_28  and  C29_29 
REMARK       I    between atoms: C29_29  and  C30_30 
REMARK       I    between atoms: C30_30  and  C31_31 
REMARK       I    between atoms: C31_31  and  N4_65 
REMARK       I    between atoms: C32_32  and  C33_33 
REMARK       I    between atoms: C32_32  and  N4_65 
REMARK       I    between atoms: C33_33  and  C34_34 
REMARK       I    between atoms: C34_34  and  C35_35 
REMARK       I    between atoms: C35_35  and  C36_36 
REMARK       I    between atoms: C36_36  and  C37_37 
REMARK       I    between atoms: C37_37  and  N5_66 
REMARK       I    between atoms: C38_38  and  C39_39 
REMARK       I    between atoms: C38_38  and  N6_67 
REMARK       I    between atoms: C39_39  and  C40_40 
REMARK       I    between atoms: C40_40  and  C41_41 
REMARK       I    between atoms: C41_41  and  N7_68 
REMARK       I    between atoms: C42_42  and  C43_43 
REMARK       I    between atoms: C42_42  and  N7_68 
REMARK       I    between atoms: C43_43  and  C44_44 
REMARK       I    between atoms: C44_44  and  C45_45 
REMARK       I    between atoms: C45_45  and  C46_46 
REMARK       I    between atoms: C46_46  and  C47_47 
REMARK       I    between atoms: C47_47  and  O11_60 
ROOT
HETATM    1  C1  UNL     1       5.005  -0.985  -3.041  1.00  0.00     0.101 C 
HETATM    2  C2  UNL     1       4.306  -2.032  -2.163  1.00  0.00     0.119 C 
HETATM    3  C3  UNL     1       3.953  -1.417  -0.799  1.00  0.00     0.123 C 
HETATM    4  C4  UNL     1       4.930  -0.294  -0.462  1.00  0.00     0.072 C 
HETATM    5  C5  UNL     1       4.447   0.702   0.599  1.00  0.00     0.017 C 
HETATM    6  C6  UNL     1       4.085   0.010   1.919  1.00  0.00     0.002 C 
HETATM    7  C7  UNL     1       3.716   1.022   3.008  1.00  0.00     0.009 C 
HETATM    8  C8  UNL     1       3.201   0.342   4.278  1.00  0.00     0.103 C 
HETATM    9  C9  UNL     1       4.271  -0.432   5.028  1.00  0.00     0.217 C 
HETATM   10  C10 UNL     1       4.590  -2.069   6.854  1.00  0.00     0.124 C 
HETATM   11  C11 UNL     1       4.979  -3.372   6.153  1.00  0.00     0.046 C 
HETATM   12  C12 UNL     1       3.782  -4.174   5.651  1.00  0.00     0.169 C 
HETATM   13  C13 UNL     1       1.714  -5.139   6.388  1.00  0.00     0.193 C 
HETATM   14  C14 UNL     1       0.819  -4.592   5.270  1.00  0.00     0.193 C 
HETATM   15  C15 UNL     1      -0.770  -2.845   4.906  1.00  0.00     0.193 C 
HETATM   16  C16 UNL     1      -0.635  -2.717   3.388  1.00  0.00     0.193 C 
HETATM   17  C17 UNL     1      -1.882  -2.105   1.439  1.00  0.00     0.169 C 
HETATM   18  C18 UNL     1      -1.015  -0.944   0.959  1.00  0.00     0.046 C 
HETATM   19  C19 UNL     1      -1.490  -0.373  -0.377  1.00  0.00     0.125 C 
HETATM   20  C20 UNL     1      -2.729   1.645   0.358  1.00  0.00     0.240 C 
HETATM   21  C21 UNL     1      -4.151   2.149   0.687  1.00  0.00     0.176 C 
HETATM   22  C22 UNL     1      -4.228   3.674   0.852  1.00  0.00     0.035 C 
HETATM   23  C23 UNL     1      -4.483   4.436  -0.456  1.00  0.00     0.004 C 
HETATM   24  C24 UNL     1      -3.321   4.494  -1.452  1.00  0.00     0.020 C 
HETATM   25  C25 UNL     1      -2.111   5.283  -0.940  1.00  0.00     0.122 C 
HETATM   26  C26 UNL     1      -0.082   4.174  -1.794  1.00  0.00     0.217 C 
HETATM   27  C27 UNL     1       0.956   3.124  -1.442  1.00  0.00     0.103 C 
HETATM   28  C28 UNL     1       1.712   2.576  -2.652  1.00  0.00     0.009 C 
HETATM   29  C29 UNL     1       0.816   1.768  -3.593  1.00  0.00     0.002 C 
HETATM   30  C30 UNL     1       1.571   0.981  -4.671  1.00  0.00     0.020 C 
HETATM   31  C31 UNL     1       2.421   1.831  -5.611  1.00  0.00     0.122 C 
HETATM   32  C32 UNL     1       4.745   2.570  -5.930  1.00  0.00     0.217 C 
HETATM   33  C33 UNL     1       6.042   2.846  -5.190  1.00  0.00     0.103 C 
HETATM   34  C34 UNL     1       7.063   3.625  -6.018  1.00  0.00     0.009 C 
HETATM   35  C35 UNL     1       6.679   5.100  -6.182  1.00  0.00     0.002 C 
HETATM   36  C36 UNL     1       7.730   5.855  -7.001  1.00  0.00     0.030 C 
HETATM   37  C37 UNL     1       7.355   7.312  -7.283  1.00  0.00     0.267 C 
HETATM   38  C38 UNL     1      -4.965   0.208   1.999  1.00  0.00     0.218 C 
HETATM   39  C39 UNL     1      -5.110  -0.338   3.406  1.00  0.00     0.112 C 
HETATM   40  C40 UNL     1      -5.476  -1.817   3.425  1.00  0.00     0.112 C 
HETATM   41  C41 UNL     1      -6.970  -2.024   3.297  1.00  0.00     0.217 C 
HETATM   42  C42 UNL     1      -8.863  -1.952   1.709  1.00  0.00     0.122 C 
HETATM   43  C43 UNL     1      -9.164  -3.407   1.347  1.00  0.00     0.020 C 
HETATM   44  C44 UNL     1      -8.461  -3.846   0.057  1.00  0.00     0.002 C 
HETATM   45  C45 UNL     1      -8.674  -5.325  -0.277  1.00  0.00     0.010 C 
HETATM   46  C46 UNL     1     -10.128  -5.677  -0.587  1.00  0.00     0.110 C 
HETATM   47  C47 UNL     1     -10.265  -7.103  -1.052  1.00  0.00     0.139 C 
HETATM   48  C48 UNL     1       1.990  -1.753  -1.994  1.00  0.00     0.316 C 
HETATM   49  S1  UNL     1       5.241   0.523  -2.056  1.00  0.00    -0.160 SA
HETATM   50  O1  UNL     1       5.466  -0.366   4.767  1.00  0.00    -0.274 OA
HETATM   51  O2  UNL     1       2.842  -4.323   6.707  1.00  0.00    -0.389 OA
HETATM   52  O3  UNL     1       0.437  -3.244   5.556  1.00  0.00    -0.387 OA
HETATM   53  O4  UNL     1      -1.865  -2.219   2.864  1.00  0.00    -0.389 OA
HETATM   54  O5  UNL     1      -1.709   2.242   0.701  1.00  0.00    -0.271 OA
HETATM   55  O6  UNL     1      -0.117   4.758  -2.871  1.00  0.00    -0.274 OA
HETATM   56  O7  UNL     1       4.591   2.768  -7.130  1.00  0.00    -0.274 OA
HETATM   57  O8  UNL     1      -5.238  -0.430   0.985  1.00  0.00    -0.274 OA
HETATM   58  O9  UNL     1      -7.655  -2.409   4.239  1.00  0.00    -0.274 OA
HETATM   59  O10 UNL     1      -9.388  -7.944  -1.143  1.00  0.00    -0.650 OA
HETATM   60  O11 UNL     1     -11.538  -7.401  -1.381  1.00  0.00    -0.776 OA
HETATM   61  O12 UNL     1       0.799  -1.815  -2.232  1.00  0.00    -0.247 OA
HETATM   62  N1  UNL     1       3.756  -1.209   6.040  1.00  0.00    -0.361 N 
HETATM   63  N2  UNL     1      -2.711   0.396  -0.233  1.00  0.00    -0.359 N 
HETATM   64  N3  UNL     1      -0.957   4.429  -0.759  1.00  0.00    -0.361 N 
HETATM   65  N4  UNL     1       3.768   2.034  -5.115  1.00  0.00    -0.361 N 
HETATM   66  N5  UNL     1       7.276   8.126  -6.074  1.00  0.00     0.078 N 
HETATM   67  N6  UNL     1      -4.495   1.502   1.960  1.00  0.00    -0.348 N 
HETATM   68  N7  UNL     1      -7.473  -1.742   2.051  1.00  0.00    -0.361 N 
HETATM   69  N8  UNL     1       2.566  -1.031  -0.969  1.00  0.00    -0.335 N 
HETATM   70  N9  UNL     1       3.000  -2.402  -2.673  1.00  0.00    -0.336 N 
HETATM   71  H77 UNL     1     -11.497  -8.341  -1.656  1.00  0.00     0.167 HD
HETATM   72  H78 UNL     1       2.753  -1.339   6.116  1.00  0.00     0.162 HD
HETATM   73  H79 UNL     1      -3.596  -0.112  -0.254  1.00  0.00     0.162 HD
HETATM   74  H80 UNL     1      -0.999   3.740  -0.006  1.00  0.00     0.162 HD
HETATM   75  H81 UNL     1       3.920   2.072  -4.114  1.00  0.00     0.162 HD
HETATM   76  H82 UNL     1       6.505   7.802  -5.493  1.00  0.00     0.312 HD
HETATM   77  H83 UNL     1       8.122   8.000  -5.521  1.00  0.00     0.312 HD
HETATM   78  H84 UNL     1      -4.026   1.851   2.789  1.00  0.00     0.163 HD
HETATM   79  H85 UNL     1      -6.823  -1.480   1.310  1.00  0.00     0.162 HD
HETATM   80  H86 UNL     1       1.971  -0.646  -0.249  1.00  0.00     0.164 HD
HETATM   81  H87 UNL     1       2.805  -2.916  -3.523  1.00  0.00     0.164 HD
ENDROOT
TORSDOF 48
