REMARK  20 active torsions:
REMARK  status: ('A' for Active; 'I' for Inactive)
REMARK    1  A    between atoms: C2_2  and  C10_10 
REMARK    2  A    between atoms: C3_3  and  C4_4 
REMARK    3  A    between atoms: C7_7  and  O1_45 
REMARK       I    between atoms: C10_10  and  N1_57 
REMARK    4  A    between atoms: C11_11  and  N1_57 
REMARK    5  A    between atoms: C13_13  and  C16_16 
REMARK       I    between atoms: C16_16  and  N3_60 
REMARK    6  A    between atoms: C17_17  and  C18_18 
REMARK    7  A    between atoms: C17_17  and  C21_21 
REMARK    8  A    between atoms: C17_17  and  N3_60 
REMARK    9  A    between atoms: C18_18  and  C19_19 
REMARK       I    between atoms: C21_21  and  N7_66 
REMARK   10  A    between atoms: C22_22  and  N7_66 
REMARK   11  A    between atoms: C25_25  and  C28_28 
REMARK       I    between atoms: C28_28  and  N8_67 
REMARK   12  A    between atoms: C29_29  and  N8_67 
REMARK   13  A    between atoms: C30_30  and  O12_56 
REMARK   14  A    between atoms: C31_31  and  O11_55 
REMARK   15  A    between atoms: C32_32  and  C35_35 
REMARK       I    between atoms: C35_35  and  N9_68 
REMARK   16  A    between atoms: C36_36  and  N9_68 
REMARK   17  A    between atoms: C37_37  and  O10_54 
REMARK   18  A    between atoms: C38_38  and  O9_53 
REMARK   19  A    between atoms: C39_39  and  C42_42 
REMARK   20  A    between atoms: C42_42  and  O8_52 
ROOT
HETATM    1  C21 UNL     1       1.883  -5.033   1.128  1.00  0.00     0.245 C 
HETATM    2  O4  UNL     1       1.112  -4.991   2.083  1.00  0.00    -0.271 OA
HETATM    3  N7  UNL     1       1.607  -4.600  -0.162  1.00  0.00    -0.325 N 
HETATM    4  H37 UNL     1       2.394  -4.634  -0.813  1.00  0.00     0.169 HD
ENDROOT
BRANCH   3   5
HETATM    5  C22 UNL     1       0.411  -4.054  -0.657  1.00  0.00     0.034 A 
HETATM    6  C23 UNL     1       0.415  -3.617  -1.988  1.00  0.00     0.030 A 
HETATM    7  C24 UNL     1      -0.732  -3.056  -2.558  1.00  0.00     0.019 A 
HETATM    8  C25 UNL     1      -1.898  -2.917  -1.799  1.00  0.00     0.032 A 
HETATM    9  C26 UNL     1      -1.915  -3.375  -0.477  1.00  0.00     0.019 A 
HETATM   10  C27 UNL     1      -0.763  -3.935   0.090  1.00  0.00     0.030 A 
BRANCH   8  11
HETATM   11  C28 UNL     1      -3.098  -2.307  -2.442  1.00  0.00     0.256 C 
HETATM   12  O5  UNL     1      -3.258  -2.468  -3.646  1.00  0.00    -0.267 OA
HETATM   13  N8  UNL     1      -3.909  -1.579  -1.594  1.00  0.00    -0.320 N 
HETATM   14  H38 UNL     1      -3.586  -1.424  -0.646  1.00  0.00     0.169 HD
BRANCH  13  15
HETATM   15  C29 UNL     1      -5.100  -0.891  -1.916  1.00  0.00     0.071 A 
HETATM   16  C30 UNL     1      -5.738  -0.179  -0.888  1.00  0.00     0.129 A 
HETATM   17  C31 UNL     1      -6.873   0.608  -1.137  1.00  0.00     0.117 A 
HETATM   18  C32 UNL     1      -7.448   0.637  -2.411  1.00  0.00     0.068 A 
HETATM   19  C33 UNL     1      -6.836  -0.120  -3.426  1.00  0.00     0.022 A 
HETATM   20  C34 UNL     1      -5.673  -0.869  -3.185  1.00  0.00     0.034 A 
BRANCH  16  21
HETATM   21  O12 UNL     1      -5.222  -0.203   0.393  1.00  0.00    -0.351 OA
HETATM   22  C44 UNL     1      -5.824  -1.274   1.132  1.00  0.00     0.210 C 
ENDBRANCH  16  21
BRANCH  17  23
HETATM   23  O11 UNL     1      -7.388   1.347  -0.101  1.00  0.00    -0.357 OA
HETATM   24  H33 UNL     1      -6.719   1.323   0.613  1.00  0.00     0.217 HD
ENDBRANCH  17  23
BRANCH  18  25
HETATM   25  C35 UNL     1      -8.672   1.425  -2.780  1.00  0.00     0.259 C 
HETATM   26  O6  UNL     1      -9.084   1.357  -3.935  1.00  0.00    -0.267 OA
HETATM   27  N9  UNL     1      -9.245   2.170  -1.773  1.00  0.00    -0.320 N 
HETATM   28  H39 UNL     1      -8.796   2.131  -0.857  1.00  0.00     0.169 HD
BRANCH  27  29
HETATM   29  C36 UNL     1     -10.378   3.011  -1.825  1.00  0.00     0.071 A 
HETATM   30  C37 UNL     1     -10.764   3.649  -0.626  1.00  0.00     0.129 A 
HETATM   31  C38 UNL     1     -11.858   4.530  -0.613  1.00  0.00     0.118 A 
HETATM   32  C39 UNL     1     -12.597   4.744  -1.789  1.00  0.00     0.073 A 
HETATM   33  C40 UNL     1     -12.226   4.086  -2.968  1.00  0.00     0.023 A 
HETATM   34  C41 UNL     1     -11.121   3.229  -2.986  1.00  0.00     0.034 A 
BRANCH  30  35
HETATM   35  O10 UNL     1      -9.966   3.391   0.469  1.00  0.00    -0.351 OA
HETATM   36  C43 UNL     1     -10.687   3.098   1.664  1.00  0.00     0.210 C 
ENDBRANCH  30  35
BRANCH  31  37
HETATM   37  O9  UNL     1     -12.164   5.185   0.557  1.00  0.00    -0.357 OA
HETATM   38  H32 UNL     1     -12.923   5.788   0.406  1.00  0.00     0.217 HD
ENDBRANCH  31  37
BRANCH  32  39
HETATM   39  C42 UNL     1     -13.752   5.670  -1.774  1.00  0.00     0.179 C 
HETATM   40  O7  UNL     1     -14.114   6.297  -0.791  1.00  0.00    -0.646 OA
BRANCH  39  41
HETATM   41  O8  UNL     1     -14.389   5.770  -2.951  1.00  0.00    -0.773 OA
HETATM   42  H31 UNL     1     -15.117   6.407  -2.792  1.00  0.00     0.167 HD
ENDBRANCH  39  41
ENDBRANCH  32  39
ENDBRANCH  27  29
ENDBRANCH  18  25
ENDBRANCH  13  15
ENDBRANCH   8  11
ENDBRANCH   3   5
BRANCH   1  43
HETATM   43  C17 UNL     1       3.325  -5.570   1.265  1.00  0.00     0.183 C 
BRANCH  43  44
HETATM   44  C18 UNL     1       3.493  -6.316   2.594  1.00  0.00     0.095 C 
BRANCH  44  45
HETATM   45  C19 UNL     1       4.768  -7.082   2.651  1.00  0.00     0.046 A 
HETATM   46  C20 UNL     1       6.034  -6.674   3.114  1.00  0.00     0.135 A 
HETATM   47  N6  UNL     1       6.910  -7.674   2.984  1.00  0.00    -0.296 N 
HETATM   48  N5  UNL     1       6.137  -8.636   2.452  1.00  0.00    -0.243 N 
ATOM     49  H6  UNL     1       7.901  -7.700   3.224  1.00  0.00     0.187 HD
HETATM   50  N4  UNL     1       4.844  -8.349   2.220  1.00  0.00    -0.289 N 
HETATM   51  H36 UNL     1       6.519  -9.552   2.230  1.00  0.00     0.208 HD
ATOM     52  H4  UNL     1       4.114  -8.939   1.821  1.00  0.00     0.188 HD
ENDBRANCH  44  45
ENDBRANCH  43  44
BRANCH  43  53
HETATM   53  N3  UNL     1       4.258  -4.445   1.155  1.00  0.00    -0.342 N 
HETATM   54  C16 UNL     1       4.662  -3.919  -0.052  1.00  0.00     0.268 C 
HETATM   55  O3  UNL     1       4.274  -4.352  -1.132  1.00  0.00    -0.266 OA
HETATM   56  H35 UNL     1       4.477  -3.876   1.972  1.00  0.00     0.163 HD
BRANCH  54  57
HETATM   57  C13 UNL     1       5.570  -2.735   0.064  1.00  0.00     0.100 A 
HETATM   58  C14 UNL     1       6.083  -2.135  -1.076  1.00  0.00     0.037 A 
HETATM   59  C15 UNL     1       6.919  -1.030  -0.917  1.00  0.00     0.033 A 
HETATM   60  C11 UNL     1       7.218  -0.554   0.363  1.00  0.00     0.050 A 
HETATM   61  C12 UNL     1       6.650  -1.229   1.444  1.00  0.00     0.118 A 
HETATM   62  N2  UNL     1       5.832  -2.308   1.328  1.00  0.00    -0.359 N 
ATOM     63  H2  UNL     1       5.436  -2.773   2.145  1.00  0.00     0.165 HD
BRANCH  60  64
HETATM   64  N1  UNL     1       8.072   0.566   0.460  1.00  0.00    -0.322 N 
HETATM   65  C10 UNL     1       8.452   1.211   1.619  1.00  0.00     0.251 C 
HETATM   66  O2  UNL     1       8.077   0.922   2.750  1.00  0.00    -0.268 OA
HETATM   67  H34 UNL     1       8.399   0.948  -0.416  1.00  0.00     0.169 HD
BRANCH  65  68
HETATM   68  C2  UNL     1       9.400   2.357   1.396  1.00  0.00     0.007 C 
HETATM   69  C1  UNL     1      10.369   2.293   0.252  1.00  0.00     0.054 C 
HETATM   70  C3  UNL     1       9.348   3.342   2.315  1.00  0.00     0.023 C 
BRANCH  70  71
HETATM   71  C4  UNL     1      10.194   4.537   2.306  1.00  0.00    -0.035 A 
HETATM   72  C5  UNL     1       9.960   5.573   1.392  1.00  0.00     0.014 A 
HETATM   73  C6  UNL     1      10.773   6.709   1.391  1.00  0.00     0.037 A 
HETATM   74  C7  UNL     1      11.817   6.802   2.307  1.00  0.00     0.065 A 
HETATM   75  C8  UNL     1      12.058   5.782   3.221  1.00  0.00     0.037 A 
HETATM   76  C9  UNL     1      11.244   4.648   3.223  1.00  0.00     0.014 A 
BRANCH  74  77
HETATM   77  O1  UNL     1      12.636   7.891   2.342  1.00  0.00    -0.361 OA
HETATM   78  H30 UNL     1      12.337   8.528   1.673  1.00  0.00     0.217 HD
ENDBRANCH  74  77
ENDBRANCH  70  71
ENDBRANCH  65  68
ENDBRANCH  60  64
ENDBRANCH  54  57
ENDBRANCH  43  53
ENDBRANCH   1  43
TORSDOF 20
