REMARK  18 active torsions:
REMARK  status: ('A' for Active; 'I' for Inactive)
REMARK    1  A    between atoms: C2_2  and  C4_4 
REMARK    2  A    between atoms: C4_4  and  C5_5 
REMARK    3  A    between atoms: C4_4  and  N12_76 
REMARK       I    between atoms: C5_5  and  N1_61 
REMARK    4  A    between atoms: C6_6  and  C7_7 
REMARK    5  A    between atoms: C6_6  and  N1_61 
REMARK       I    between atoms: C7_7  and  N2_62 
REMARK    6  A    between atoms: C8_8  and  N2_62 
REMARK    7  A    between atoms: C11_11  and  C14_14 
REMARK    8  A    between atoms: C14_14  and  O3_48 
REMARK    9  A    between atoms: C15_15  and  O3_48 
REMARK       I    between atoms: C15_15  and  N3_63 
REMARK   10  A    between atoms: C17_17  and  C18_18 
REMARK   11  A    between atoms: C17_17  and  N3_63 
REMARK   12  A    between atoms: C23_23  and  C24_24 
REMARK       I    between atoms: C24_24  and  N4_64 
REMARK   13  A    between atoms: C25_25  and  N4_64 
REMARK   14  A    between atoms: C30_30  and  N7_69 
REMARK   15  A    between atoms: C36_36  and  O15_60 
REMARK   16  A    between atoms: C39_39  and  N9_72 
REMARK   17  A    between atoms: O12_57  and  P2_78 
REMARK   18  A    between atoms: P1_77  and  S2_80 
ROOT
HETATM    1  C25 UNL     1      -0.730   1.649   1.638  1.00  0.00     0.140 A 
HETATM    2  C26 UNL     1      -2.062   2.006   1.887  1.00  0.00     0.122 A 
HETATM    3  C27 UNL     1      -2.829   1.088   2.582  1.00  0.00     0.142 A 
HETATM    4  C28 UNL     1      -1.145  -0.342   2.755  1.00  0.00     0.183 A 
HETATM    5  C29 UNL     1      -3.998   2.888   2.067  1.00  0.00     0.188 A 
HETATM    6  N5  UNL     1      -2.441  -0.108   3.053  1.00  0.00    -0.336 N 
ATOM      7  H5  UNL     1      -3.043  -0.752   3.566  1.00  0.00     0.168 HD
HETATM    8  N6  UNL     1      -0.285   0.455   2.090  1.00  0.00    -0.337 N 
ATOM      9  H6  UNL     1       0.680   0.164   1.931  1.00  0.00     0.168 HD
HETATM   10  N7  UNL     1      -4.067   1.664   2.678  1.00  0.00    -0.297 N 
HETATM   11  N8  UNL     1      -2.799   3.129   1.574  1.00  0.00    -0.346 N 
ATOM     12  H8  UNL     1      -2.486   3.961   1.073  1.00  0.00     0.167 HD
ENDROOT
BRANCH  10  13
HETATM   13  C30 UNL     1      -5.207   1.048   3.326  1.00  0.00     0.267 C 
HETATM   14  C31 UNL     1      -5.997   0.089   2.446  1.00  0.00     0.251 C 
HETATM   15  C32 UNL     1      -7.137   0.943   1.941  1.00  0.00     0.201 C 
HETATM   16  F2  UNL     1      -5.290  -0.423   1.411  1.00  0.00    -0.242 F 
HETATM   17  C33 UNL     1      -7.387   1.909   3.095  1.00  0.00     0.181 C 
HETATM   18  O11 UNL     1      -6.709   1.688   0.801  1.00  0.00    -0.303 OA
HETATM   19  C34 UNL     1      -8.437   1.434   4.109  1.00  0.00     0.213 C 
HETATM   20  O6  UNL     1      -6.123   2.080   3.773  1.00  0.00    -0.353 OA
HETATM   21  O7  UNL     1      -9.709   1.309   3.487  1.00  0.00    -0.304 OA
HETATM   22  P1  UNL     1     -10.455  -0.129   3.574  1.00  0.00     0.388 P 
HETATM   23  O8  UNL     1      -9.457  -1.226   3.343  1.00  0.00    -0.246 OA
HETATM   24  O9  UNL     1     -11.529   0.035   2.372  1.00  0.00    -0.294 OA
HETATM   25  C35 UNL     1     -10.992   0.024   1.060  1.00  0.00     0.213 C 
HETATM   26  C36 UNL     1     -11.462   1.217   0.249  1.00  0.00     0.183 C 
HETATM   27  C39 UNL     1     -11.427  -1.122   0.157  1.00  0.00     0.261 C 
HETATM   28  C37 UNL     1     -11.085   0.790  -1.172  1.00  0.00     0.180 C 
HETATM   29  C38 UNL     1      -9.676   1.236  -1.612  1.00  0.00     0.213 C 
HETATM   30  O13 UNL     1     -11.142  -0.665  -1.187  1.00  0.00    -0.353 OA
HETATM   31  O10 UNL     1      -8.817   1.434  -0.492  1.00  0.00    -0.311 OA
HETATM   32  P2  UNL     1      -7.222   1.268  -0.671  1.00  0.00     0.327 P 
HETATM   33  S1  UNL     1      -6.360   2.159  -2.134  1.00  0.00    -0.007 SA
BRANCH  22  34
HETATM   34  S2  UNL     1     -11.432  -0.309   5.393  1.00  0.00    -0.058 SA
HETATM   35  H50 UNL     1     -12.262   0.722   5.194  1.00  0.00     0.114 HD
ENDBRANCH  22  34
BRANCH  26  36
HETATM   36  O15 UNL     1     -12.885   1.351   0.359  1.00  0.00    -0.390 OA
HETATM   37  H43 UNL     1     -13.104   1.311   1.309  1.00  0.00     0.210 HD
ENDBRANCH  26  36
BRANCH  32  38
HETATM   38  O12 UNL     1      -7.062  -0.326  -0.623  1.00  0.00    -0.324 OA
HETATM   39  H42 UNL     1      -6.125  -0.611  -0.635  1.00  0.00     0.220 HD
ENDBRANCH  32  38
BRANCH  27  40
HETATM   40  N9  UNL     1     -10.700  -2.356   0.420  1.00  0.00    -0.309 N 
HETATM   41  C40 UNL     1      -9.571  -2.804  -0.231  1.00  0.00     0.139 A 
HETATM   42  C41 UNL     1      -9.188  -3.975   0.376  1.00  0.00     0.151 A 
HETATM   43  C42 UNL     1     -10.083  -4.256   1.412  1.00  0.00     0.116 A 
HETATM   44  F1  UNL     1      -8.125  -4.706   0.029  1.00  0.00    -0.203 F 
HETATM   45  C43 UNL     1     -11.021  -3.242   1.422  1.00  0.00     0.129 A 
HETATM   46  C45 UNL     1     -10.191  -5.300   2.392  1.00  0.00     0.263 A 
HETATM   47  N10 UNL     1     -12.065  -3.096   2.278  1.00  0.00    -0.337 N 
HETATM   48  C44 UNL     1     -12.139  -4.054   3.151  1.00  0.00     0.184 A 
ATOM     49  H10 UNL     1     -12.721  -2.316   2.239  1.00  0.00     0.168 HD
HETATM   50  N11 UNL     1     -11.271  -5.123   3.238  1.00  0.00    -0.319 N 
HETATM   51  H47 UNL     1     -11.388  -5.830   3.948  1.00  0.00     0.169 HD
HETATM   52  O14 UNL     1      -9.430  -6.255   2.497  1.00  0.00    -0.267 OA
ENDBRANCH  27  40
ENDBRANCH  10  13
BRANCH   1  53
HETATM   53  N4  UNL     1       0.075   2.550   0.933  1.00  0.00    -0.307 N 
HETATM   54  C24 UNL     1       1.393   2.352   0.600  1.00  0.00     0.257 C 
HETATM   55  O5  UNL     1       2.094   1.382   0.848  1.00  0.00    -0.267 OA
HETATM   56  H46 UNL     1      -0.399   3.395   0.631  1.00  0.00     0.170 HD
BRANCH  54  57
HETATM   57  C23 UNL     1       1.984   3.482  -0.161  1.00  0.00     0.040 A 
HETATM   58  C18 UNL     1       2.548   3.298  -1.437  1.00  0.00    -0.025 A 
HETATM   59  C19 UNL     1       3.078   4.425  -2.093  1.00  0.00     0.010 A 
HETATM   60  C20 UNL     1       3.058   5.687  -1.494  1.00  0.00     0.001 A 
HETATM   61  C21 UNL     1       2.508   5.851  -0.226  1.00  0.00     0.001 A 
HETATM   62  C22 UNL     1       1.972   4.752   0.442  1.00  0.00     0.017 A 
BRANCH  58  63
HETATM   63  C17 UNL     1       2.586   1.958  -2.140  1.00  0.00     0.167 C 
BRANCH  63  64
HETATM   64  N3  UNL     1       3.934   1.411  -2.250  1.00  0.00    -0.328 N 
HETATM   65  C15 UNL     1       4.633   1.564  -3.432  1.00  0.00     0.362 C 
HETATM   66  O4  UNL     1       4.179   2.109  -4.433  1.00  0.00    -0.238 OA
HETATM   67  C16 UNL     1       4.502   0.798  -1.058  1.00  0.00     0.155 C 
BRANCH  65  68
HETATM   68  O3  UNL     1       5.890   1.053  -3.370  1.00  0.00    -0.299 OA
BRANCH  68  69
HETATM   69  C14 UNL     1       6.641   1.202  -4.578  1.00  0.00     0.219 C 
BRANCH  69  70
HETATM   70  C11 UNL     1       8.026   0.642  -4.365  1.00  0.00    -0.034 A 
HETATM   71  C10 UNL     1       8.800   1.043  -3.269  1.00  0.00     0.011 A 
HETATM   72  C9  UNL     1      10.090   0.538  -3.087  1.00  0.00     0.030 A 
HETATM   73  C8  UNL     1      10.636  -0.373  -3.998  1.00  0.00     0.034 A 
HETATM   74  C13 UNL     1       9.873  -0.766  -5.097  1.00  0.00     0.030 A 
HETATM   75  C12 UNL     1       8.580  -0.262  -5.281  1.00  0.00     0.011 A 
BRANCH  73  76
HETATM   76  N2  UNL     1      11.939  -0.835  -3.738  1.00  0.00    -0.326 N 
HETATM   77  C7  UNL     1      12.664  -1.785  -4.437  1.00  0.00     0.239 C 
HETATM   78  O2  UNL     1      12.299  -2.413  -5.426  1.00  0.00    -0.271 OA
HETATM   79  H45 UNL     1      12.381  -0.477  -2.889  1.00  0.00     0.169 HD
BRANCH  77  80
HETATM   80  C6  UNL     1      14.043  -2.037  -3.815  1.00  0.00     0.225 C 
BRANCH  80  81
HETATM   81  N1  UNL     1      13.924  -2.781  -2.571  1.00  0.00    -0.350 N 
HETATM   82  C5  UNL     1      13.583  -2.141  -1.394  1.00  0.00     0.251 C 
HETATM   83  O1  UNL     1      13.444  -0.922  -1.336  1.00  0.00    -0.271 OA
HETATM   84  H44 UNL     1      13.765  -3.780  -2.637  1.00  0.00     0.163 HD
BRANCH  82  85
HETATM   85  C4  UNL     1      13.444  -3.102  -0.187  1.00  0.00     0.312 C 
BRANCH  85  86
HETATM   86  C2  UNL     1      12.695  -2.451   1.000  1.00  0.00     0.020 C 
HETATM   87  C1  UNL     1      11.235  -2.153   0.629  1.00  0.00     0.012 C 
HETATM   88  C3  UNL     1      12.707  -3.342   2.250  1.00  0.00     0.012 C 
ENDBRANCH  85  86
BRANCH  85  89
HETATM   89  N12 UNL     1      14.810  -3.522   0.197  1.00  0.00     0.092 N 
HETATM   90  H48 UNL     1      15.323  -3.807  -0.637  1.00  0.00     0.313 HD
HETATM   91  H49 UNL     1      15.309  -2.707   0.559  1.00  0.00     0.313 HD
ENDBRANCH  85  89
ENDBRANCH  82  85
ENDBRANCH  80  81
ENDBRANCH  77  80
ENDBRANCH  73  76
ENDBRANCH  69  70
ENDBRANCH  68  69
ENDBRANCH  65  68
ENDBRANCH  63  64
ENDBRANCH  58  63
ENDBRANCH  54  57
ENDBRANCH   1  53
TORSDOF 18
