REMARK  18 active torsions:
REMARK  status: ('A' for Active; 'I' for Inactive)
REMARK    1  A    between atoms: C2_2  and  C4_4 
REMARK    2  A    between atoms: C4_4  and  C5_5 
REMARK    3  A    between atoms: C4_4  and  N10_71 
REMARK       I    between atoms: C5_5  and  N1_60 
REMARK    4  A    between atoms: C9_9  and  C11_11 
REMARK       I    between atoms: C11_11  and  N2_61 
REMARK    5  A    between atoms: C12_12  and  C13_13 
REMARK    6  A    between atoms: C12_12  and  N2_61 
REMARK    7  A    between atoms: C13_13  and  N3_62 
REMARK    8  A    between atoms: C14_14  and  N3_62 
REMARK    9  A    between atoms: C16_16  and  N5_65 
REMARK   10  A    between atoms: C19_19  and  C20_20 
REMARK       I    between atoms: C19_19  and  N5_65 
REMARK   11  A    between atoms: C23_23  and  C26_26 
REMARK   12  A    between atoms: C29_29  and  C32_32 
REMARK   13  A    between atoms: C34_34  and  C35_35 
REMARK   14  A    between atoms: C39_39  and  C40_40 
REMARK       I    between atoms: C39_39  and  N8_69 
REMARK   15  A    between atoms: C40_40  and  C41_41 
REMARK   16  A    between atoms: C40_40  and  N9_70 
REMARK   17  A    between atoms: C44_44  and  O6_55 
REMARK       I    between atoms: C44_44  and  N9_70 
REMARK   18  A    between atoms: C48_48  and  O10_59 
REMARK       I    between atoms: C48_48  and  N10_71 
ROOT
HETATM    1  C20 UNL     1      -0.787  -0.429   1.241  1.00  0.00     0.032 A 
HETATM    2  C21 UNL     1      -1.988  -0.565   1.943  1.00  0.00     0.018 A 
HETATM    3  C22 UNL     1      -3.165  -0.895   1.264  1.00  0.00     0.013 A 
HETATM    4  C23 UNL     1      -3.165  -1.105  -0.125  1.00  0.00    -0.026 A 
HETATM    5  C24 UNL     1      -1.946  -0.982  -0.813  1.00  0.00     0.013 A 
HETATM    6  C25 UNL     1      -0.764  -0.653  -0.140  1.00  0.00     0.018 A 
ENDROOT
BRANCH   1   7
HETATM    7  C19 UNL     1       0.446  -0.077   2.002  1.00  0.00     0.256 C 
HETATM    8  O3  UNL     1       0.565  -0.501   3.144  1.00  0.00    -0.267 OA
HETATM    9  N5  UNL     1       1.329   0.748   1.329  1.00  0.00    -0.322 N 
HETATM   10  H59 UNL     1       1.022   1.125   0.442  1.00  0.00     0.169 HD
BRANCH   9  11
HETATM   11  C16 UNL     1       2.582   1.206   1.791  1.00  0.00     0.050 A 
HETATM   12  C15 UNL     1       3.299   2.107   1.007  1.00  0.00     0.118 A 
HETATM   13  N4  UNL     1       4.513   2.620   1.322  1.00  0.00    -0.355 N 
HETATM   14  C14 UNL     1       5.066   2.223   2.482  1.00  0.00     0.080 A 
ATOM     15  H4  UNL     1       4.988   3.280   0.705  1.00  0.00     0.166 HD
HETATM   16  C18 UNL     1       4.427   1.333   3.335  1.00  0.00     0.044 A 
HETATM   17  C17 UNL     1       3.177   0.816   2.983  1.00  0.00     0.034 A 
BRANCH  14  18
HETATM   18  N3  UNL     1       6.304   2.787   2.769  1.00  0.00    -0.277 NA
HETATM   19  H58 UNL     1       6.515   3.377   1.965  1.00  0.00     0.129 HD
BRANCH  18  20
HETATM   20  C13 UNL     1       7.388   1.853   3.079  1.00  0.00     0.113 C 
BRANCH  20  21
HETATM   21  C12 UNL     1       7.763   0.954   1.887  1.00  0.00     0.137 C 
BRANCH  21  22
HETATM   22  N2  UNL     1       8.995   0.221   2.105  1.00  0.00    -0.358 N 
HETATM   23  C11 UNL     1       9.067  -0.843   2.979  1.00  0.00     0.245 C 
HETATM   24  O2  UNL     1       8.072  -1.269   3.563  1.00  0.00    -0.271 OA
HETATM   25  H57 UNL     1       9.877   0.655   1.825  1.00  0.00     0.162 HD
BRANCH  23  26
HETATM   26  C9  UNL     1      10.499  -1.428   3.191  1.00  0.00     0.112 C 
HETATM   27  C8  UNL     1      10.448  -2.648   4.144  1.00  0.00     0.042 C 
HETATM   28  C7  UNL     1      10.596  -2.035   5.528  1.00  0.00     0.023 C 
HETATM   29  C6  UNL     1      11.606  -0.929   5.289  1.00  0.00     0.127 C 
HETATM   30  N1  UNL     1      11.329  -0.448   3.941  1.00  0.00    -0.332 N 
HETATM   31  C5  UNL     1      11.859   0.694   3.376  1.00  0.00     0.244 C 
HETATM   32  O1  UNL     1      11.603   1.008   2.207  1.00  0.00    -0.271 OA
HETATM   33  C10 UNL     1      11.109  -1.887   1.859  1.00  0.00     0.049 C 
BRANCH  31  34
HETATM   34  C4  UNL     1      12.777   1.600   4.237  1.00  0.00     0.182 C 
BRANCH  34  35
HETATM   35  C2  UNL     1      12.088   2.913   4.685  1.00  0.00     0.009 C 
HETATM   36  C1  UNL     1      11.529   3.762   3.539  1.00  0.00     0.012 C 
HETATM   37  C3  UNL     1      10.983   2.653   5.712  1.00  0.00     0.012 C 
ENDBRANCH  34  35
BRANCH  34  38
HETATM   38  N10 UNL     1      13.957   1.880   3.425  1.00  0.00    -0.323 N 
HETATM   39  C48 UNL     1      15.003   1.008   3.398  1.00  0.00     0.360 C 
HETATM   40  O9  UNL     1      15.169   0.081   4.178  1.00  0.00    -0.239 OA
HETATM   41  H62 UNL     1      13.830   2.373   2.550  1.00  0.00     0.165 HD
BRANCH  39  42
HETATM   42  O10 UNL     1      15.810   1.316   2.356  1.00  0.00    -0.309 OA
HETATM   43  C49 UNL     1      16.939   0.452   2.222  1.00  0.00     0.215 C 
ENDBRANCH  39  42
ENDBRANCH  34  38
ENDBRANCH  31  34
ENDBRANCH  23  26
ENDBRANCH  21  22
ENDBRANCH  20  21
ENDBRANCH  18  20
ENDBRANCH  14  18
ENDBRANCH   9  11
ENDBRANCH   1   7
BRANCH   4  44
HETATM   44  C26 UNL     1      -4.404  -1.456  -0.838  1.00  0.00    -0.026 A 
HETATM   45  C27 UNL     1      -5.178  -2.557  -0.444  1.00  0.00     0.013 A 
HETATM   46  C28 UNL     1      -6.355  -2.893  -1.124  1.00  0.00     0.014 A 
HETATM   47  C29 UNL     1      -6.793  -2.131  -2.212  1.00  0.00    -0.008 A 
HETATM   48  C30 UNL     1      -6.025  -1.036  -2.614  1.00  0.00     0.014 A 
HETATM   49  C31 UNL     1      -4.846  -0.702  -1.936  1.00  0.00     0.013 A 
BRANCH  47  50
HETATM   50  C32 UNL     1      -8.019  -2.492  -2.910  1.00  0.00     0.059 A 
HETATM   51  C33 UNL     1      -8.486  -3.709  -3.358  1.00  0.00     0.119 A 
HETATM   52  N6  UNL     1      -9.720  -3.588  -3.936  1.00  0.00    -0.352 N 
HETATM   53  C34 UNL     1     -10.054  -2.316  -3.810  1.00  0.00     0.105 A 
ATOM     54  H6  UNL     1     -10.269  -4.328  -4.374  1.00  0.00     0.166 HD
HETATM   55  N7  UNL     1      -9.019  -1.606  -3.249  1.00  0.00    -0.342 N 
HETATM   56  H60 UNL     1      -8.994  -0.603  -3.101  1.00  0.00     0.167 HD
BRANCH  53  57
HETATM   57  C35 UNL     1     -11.378  -1.738  -4.226  1.00  0.00     0.160 C 
HETATM   58  C36 UNL     1     -12.540  -2.572  -3.673  1.00  0.00     0.103 C 
HETATM   59  C37 UNL     1     -12.793  -1.966  -2.292  1.00  0.00     0.182 C 
HETATM   60  C38 UNL     1     -12.516  -0.475  -2.523  1.00  0.00     0.195 C 
HETATM   61  O7  UNL     1     -14.147  -2.200  -1.888  1.00  0.00    -0.351 OA
HETATM   62  O8  UNL     1     -11.893  -2.515  -1.321  1.00  0.00    -0.351 OA
HETATM   63  N8  UNL     1     -11.637  -0.398  -3.691  1.00  0.00    -0.333 N 
HETATM   64  C39 UNL     1     -11.443   0.826  -4.295  1.00  0.00     0.243 C 
HETATM   65  O4  UNL     1     -11.907   1.858  -3.797  1.00  0.00    -0.271 OA
HETATM   66  C46 UNL     1     -14.044  -3.215  -0.889  1.00  0.00     0.198 C 
HETATM   67  C47 UNL     1     -12.725  -2.912  -0.233  1.00  0.00     0.198 C 
BRANCH  64  68
HETATM   68  C40 UNL     1     -10.623   0.905  -5.605  1.00  0.00     0.182 C 
BRANCH  68  69
HETATM   69  C41 UNL     1     -11.534   1.148  -6.833  1.00  0.00     0.009 C 
HETATM   70  C42 UNL     1     -12.574   0.046  -7.049  1.00  0.00     0.012 C 
HETATM   71  C43 UNL     1     -10.703   1.299  -8.114  1.00  0.00     0.012 C 
ENDBRANCH  68  69
BRANCH  68  72
HETATM   72  N9  UNL     1      -9.735   2.056  -5.421  1.00  0.00    -0.323 N 
HETATM   73  C44 UNL     1      -8.671   1.989  -4.578  1.00  0.00     0.360 C 
HETATM   74  O5  UNL     1      -8.261   0.963  -4.058  1.00  0.00    -0.239 OA
HETATM   75  H61 UNL     1     -10.148   2.981  -5.452  1.00  0.00     0.165 HD
BRANCH  73  76
HETATM   76  O6  UNL     1      -8.178   3.232  -4.372  1.00  0.00    -0.309 OA
HETATM   77  C45 UNL     1      -7.082   3.278  -3.458  1.00  0.00     0.215 C 
ENDBRANCH  73  76
ENDBRANCH  68  72
ENDBRANCH  64  68
ENDBRANCH  53  57
ENDBRANCH  47  50
ENDBRANCH   4  44
TORSDOF 18
