REMARK  0 active torsions:
REMARK  status: ('A' for Active; 'I' for Inactive)
REMARK       I    between atoms: C2_2  and  C4_4 
REMARK       I    between atoms: C4_4  and  C5_5 
REMARK       I    between atoms: C4_4  and  N10_95 
REMARK       I    between atoms: C5_5  and  N1_86 
REMARK       I    between atoms: C6_6  and  C7_7 
REMARK       I    between atoms: C6_6  and  C11_11 
REMARK       I    between atoms: C6_6  and  N1_86 
REMARK       I    between atoms: C7_7  and  C8_8 
REMARK       I    between atoms: C8_8  and  C9_9 
REMARK       I    between atoms: C9_9  and  N2_87 
REMARK       I    between atoms: C10_10  and  N2_87 
REMARK       I    between atoms: C10_10  and  N3_88 
REMARK       I    between atoms: C11_11  and  N4_89 
REMARK       I    between atoms: C12_12  and  N4_89 
REMARK       I    between atoms: C15_15  and  C18_18 
REMARK       I    between atoms: C18_18  and  O4_72 
REMARK       I    between atoms: C19_19  and  O4_72 
REMARK       I    between atoms: C19_19  and  N5_90 
REMARK       I    between atoms: C21_21  and  C24_24 
REMARK       I    between atoms: C21_21  and  N5_90 
REMARK       I    between atoms: C24_24  and  N6_91 
REMARK       I    between atoms: C25_25  and  C26_26 
REMARK       I    between atoms: C25_25  and  C29_29 
REMARK       I    between atoms: C25_25  and  N6_91 
REMARK       I    between atoms: C29_29  and  N7_92 
REMARK       I    between atoms: C31_31  and  C32_32 
REMARK       I    between atoms: C31_31  and  C38_38 
REMARK       I    between atoms: C31_31  and  N7_92 
REMARK       I    between atoms: C38_38  and  C39_39 
REMARK       I    between atoms: C38_38  and  O12_80 
REMARK       I    between atoms: C39_39  and  C40_40 
REMARK       I    between atoms: C40_40  and  N8_93 
REMARK       I    between atoms: C44_44  and  C45_45 
REMARK       I    between atoms: C45_45  and  C46_46 
REMARK       I    between atoms: C45_45  and  O11_79 
REMARK       I    between atoms: C46_46  and  C48_48 
REMARK       I    between atoms: C48_48  and  N9_94 
REMARK       I    between atoms: C49_49  and  C51_51 
REMARK       I    between atoms: C49_49  and  N9_94 
REMARK       I    between atoms: C51_51  and  C52_52 
REMARK       I    between atoms: C51_51  and  O10_78 
REMARK       I    between atoms: C60_60  and  O14_82 
REMARK       I    between atoms: C60_60  and  N10_95 
REMARK       I    between atoms: C61_61  and  C62_62 
REMARK       I    between atoms: C61_61  and  O14_82 
REMARK       I    between atoms: C62_62  and  O15_83 
REMARK       I    between atoms: C63_63  and  C64_64 
REMARK       I    between atoms: C63_63  and  O15_83 
REMARK       I    between atoms: C64_64  and  N11_96 
ROOT
HETATM    1  C1  UNL     1       6.067   0.212  -0.337  1.00  0.00     0.012 C 
HETATM    2  C2  UNL     1       5.930  -0.430   1.046  1.00  0.00     0.009 C 
HETATM    3  C3  UNL     1       5.127   0.494   1.968  1.00  0.00     0.012 C 
HETATM    4  C4  UNL     1       5.354  -1.866   1.036  1.00  0.00     0.182 C 
HETATM    5  C5  UNL     1       3.904  -1.941   0.501  1.00  0.00     0.241 C 
HETATM    6  C6  UNL     1       2.441  -2.474  -1.417  1.00  0.00     0.177 C 
HETATM    7  C7  UNL     1       2.565  -3.159  -2.795  1.00  0.00     0.036 C 
HETATM    8  C8  UNL     1       2.750  -2.246  -4.019  1.00  0.00     0.022 C 
HETATM    9  C9  UNL     1       4.098  -1.541  -4.145  1.00  0.00     0.124 C 
HETATM   10  C10 UNL     1       6.030  -2.965  -3.563  1.00  0.00     0.313 C 
HETATM   11  C11 UNL     1       1.403  -1.319  -1.498  1.00  0.00     0.245 C 
HETATM   12  C12 UNL     1       1.365   1.189  -1.376  1.00  0.00     0.034 A 
HETATM   13  C13 UNL     1       0.092   1.411  -1.898  1.00  0.00     0.030 A 
HETATM   14  C14 UNL     1      -0.417   2.712  -1.996  1.00  0.00     0.011 A 
HETATM   15  C15 UNL     1       0.347   3.810  -1.581  1.00  0.00    -0.034 A 
HETATM   16  C16 UNL     1       1.621   3.583  -1.051  1.00  0.00     0.011 A 
HETATM   17  C17 UNL     1       2.126   2.285  -0.954  1.00  0.00     0.030 A 
HETATM   18  C18 UNL     1      -0.203   5.209  -1.668  1.00  0.00     0.219 C 
HETATM   19  C19 UNL     1      -0.775   5.877   0.530  1.00  0.00     0.363 C 
HETATM   20  C20 UNL     1      -3.077   5.382   1.223  1.00  0.00     0.156 C 
HETATM   21  C21 UNL     1      -1.584   6.718   2.779  1.00  0.00     0.110 C 
HETATM   22  C22 UNL     1      -0.554   7.869   2.754  1.00  0.00     0.049 C 
HETATM   23  C23 UNL     1      -2.896   7.348   3.314  1.00  0.00     0.049 C 
HETATM   24  C24 UNL     1      -1.117   5.619   3.785  1.00  0.00     0.246 C 
HETATM   25  C25 UNL     1       0.389   3.697   4.074  1.00  0.00     0.180 C 
HETATM   26  C26 UNL     1       1.909   3.461   4.222  1.00  0.00     0.009 C 
HETATM   27  C27 UNL     1       2.686   3.586   2.906  1.00  0.00     0.012 C 
HETATM   28  C28 UNL     1       2.504   4.411   5.265  1.00  0.00     0.012 C 
HETATM   29  C29 UNL     1      -0.262   2.610   3.177  1.00  0.00     0.243 C 
HETATM   30  C30 UNL     1      -0.706   1.221   5.201  1.00  0.00     0.153 C 
HETATM   31  C31 UNL     1      -1.446   0.468   2.905  1.00  0.00     0.120 C 
HETATM   32  C32 UNL     1      -0.971  -1.022   3.064  1.00  0.00     0.011 C 
HETATM   33  C33 UNL     1      -1.925  -1.938   3.854  1.00  0.00     0.007 C 
HETATM   34  C34 UNL     1      -1.372  -3.356   3.986  1.00  0.00     0.000 C 
HETATM   35  C35 UNL     1      -1.066  -3.962   2.622  1.00  0.00     0.000 C 
HETATM   36  C36 UNL     1      -0.110  -3.080   1.829  1.00  0.00     0.000 C 
HETATM   37  C37 UNL     1      -0.631  -1.650   1.695  1.00  0.00     0.007 C 
HETATM   38  C38 UNL     1      -2.987   0.743   3.076  1.00  0.00     0.152 C 
HETATM   39  C39 UNL     1      -3.755   0.240   1.845  1.00  0.00     0.137 C 
HETATM   40  C40 UNL     1      -5.225   0.011   2.128  1.00  0.00     0.222 C 
HETATM   41  C41 UNL     1      -7.540   0.237   1.372  1.00  0.00     0.126 C 
HETATM   42  C42 UNL     1      -8.086   1.189   0.325  1.00  0.00     0.022 C 
HETATM   43  C43 UNL     1      -7.236   0.862  -0.892  1.00  0.00     0.029 C 
HETATM   44  C44 UNL     1      -5.835   0.605  -0.308  1.00  0.00     0.117 C 
HETATM   45  C45 UNL     1      -4.971  -0.400  -1.140  1.00  0.00     0.156 C 
HETATM   46  C46 UNL     1      -4.187   0.310  -2.267  1.00  0.00     0.105 C 
HETATM   47  C47 UNL     1      -3.245  -0.652  -2.998  1.00  0.00     0.022 C 
HETATM   48  C48 UNL     1      -5.096   1.000  -3.273  1.00  0.00     0.224 C 
HETATM   49  C49 UNL     1      -6.957   0.679  -4.889  1.00  0.00     0.113 C 
HETATM   50  C50 UNL     1      -6.305   1.259  -6.152  1.00  0.00     0.035 C 
HETATM   51  C51 UNL     1      -7.966  -0.440  -5.285  1.00  0.00     0.173 C 
HETATM   52  C52 UNL     1      -8.895  -0.830  -4.147  1.00  0.00    -0.028 A 
HETATM   53  C53 UNL     1      -9.891   0.068  -3.725  1.00  0.00     0.010 A 
HETATM   54  C54 UNL     1     -10.747  -0.256  -2.671  1.00  0.00     0.001 A 
HETATM   55  C55 UNL     1     -10.624  -1.483  -2.024  1.00  0.00     0.000 A 
HETATM   56  C56 UNL     1      -9.648  -2.388  -2.433  1.00  0.00     0.001 A 
HETATM   57  C57 UNL     1      -8.791  -2.064  -3.487  1.00  0.00     0.010 A 
HETATM   58  C58 UNL     1      -5.969  -2.552  -0.823  1.00  0.00     0.202 C 
HETATM   59  C59 UNL     1      -4.201   2.558   4.078  1.00  0.00     0.202 C 
HETATM   60  C60 UNL     1       6.357  -4.084   0.642  1.00  0.00     0.361 C 
HETATM   61  C61 UNL     1       7.268  -6.117  -0.158  1.00  0.00     0.207 C 
HETATM   62  C62 UNL     1       8.461  -6.362   0.765  1.00  0.00     0.194 C 
HETATM   63  C63 UNL     1      10.034  -4.553   0.570  1.00  0.00     0.188 C 
HETATM   64  C64 UNL     1      10.111  -3.617  -0.641  1.00  0.00     0.162 C 
HETATM   65  C65 UNL     1      12.323  -4.213  -1.598  1.00  0.00     0.250 A 
HETATM   66  C66 UNL     1      12.793  -4.881  -2.816  1.00  0.00     0.080 A 
HETATM   67  C67 UNL     1      11.724  -5.176  -3.557  1.00  0.00     0.080 A 
HETATM   68  C68 UNL     1      10.536  -4.699  -2.837  1.00  0.00     0.250 A 
HETATM   69  O1  UNL     1       2.936  -1.702   1.220  1.00  0.00    -0.271 OA
HETATM   70  O2  UNL     1       6.047  -2.651  -2.381  1.00  0.00    -0.248 OA
HETATM   71  O3  UNL     1       0.242  -1.542  -1.836  1.00  0.00    -0.271 OA
HETATM   72  O4  UNL     1      -1.210   5.424  -0.675  1.00  0.00    -0.299 OA
HETATM   73  O5  UNL     1       0.404   6.103   0.783  1.00  0.00    -0.238 OA
HETATM   74  O6  UNL     1      -1.748   5.344   4.807  1.00  0.00    -0.271 OA
HETATM   75  O7  UNL     1      -0.396   2.833   1.967  1.00  0.00    -0.271 OA
HETATM   76  O8  UNL     1      -5.603  -0.350   3.245  1.00  0.00    -0.273 OA
HETATM   77  O9  UNL     1      -5.076   2.218  -3.423  1.00  0.00    -0.273 OA
HETATM   78  O10 UNL     1      -7.274  -1.593  -5.786  1.00  0.00    -0.389 OA
HETATM   79  O11 UNL     1      -5.730  -1.476  -1.724  1.00  0.00    -0.388 OA
HETATM   80  O12 UNL     1      -3.198   2.173   3.148  1.00  0.00    -0.388 OA
HETATM   81  O13 UNL     1       5.949  -4.606   1.665  1.00  0.00    -0.238 OA
HETATM   82  O14 UNL     1       7.024  -4.716  -0.347  1.00  0.00    -0.302 OA
HETATM   83  O15 UNL     1       9.674  -5.881   0.175  1.00  0.00    -0.387 OA
HETATM   84  O16 UNL     1      13.056  -3.819  -0.711  1.00  0.00    -0.268 OA
HETATM   85  O17 UNL     1       9.400  -4.795  -3.269  1.00  0.00    -0.268 OA
HETATM   86  N1  UNL     1       3.754  -2.108  -0.866  1.00  0.00    -0.346 N 
HETATM   87  N2  UNL     1       5.163  -2.463  -4.481  1.00  0.00    -0.343 N 
HETATM   88  N3  UNL     1       6.865  -3.889  -4.091  1.00  0.00    -0.352 N 
HETATM   89  N4  UNL     1       1.959  -0.078  -1.261  1.00  0.00    -0.325 N 
HETATM   90  N5  UNL     1      -1.814   6.091   1.430  1.00  0.00    -0.315 N 
HETATM   91  N6  UNL     1       0.076   4.993   3.472  1.00  0.00    -0.345 N 
HETATM   92  N7  UNL     1      -0.622   1.382   3.756  1.00  0.00    -0.347 N 
HETATM   93  N8  UNL     1      -6.115   0.171   1.082  1.00  0.00    -0.345 N 
HETATM   94  N9  UNL     1      -5.928   0.158  -3.979  1.00  0.00    -0.354 N 
HETATM   95  N10 UNL     1       6.227  -2.774   0.303  1.00  0.00    -0.323 N 
HETATM   96  N11 UNL     1      10.973  -4.136  -1.685  1.00  0.00    -0.279 N 
HETATM   97  H95 UNL     1      -6.322  -1.432  -5.662  1.00  0.00     0.210 HD
HETATM   98  H96 UNL     1       4.573  -2.477  -1.351  1.00  0.00     0.163 HD
HETATM   99  H97 UNL     1       5.093  -2.968  -5.354  1.00  0.00     0.164 HD
HETATM  100  H98 UNL     1       7.612  -4.221  -3.477  1.00  0.00     0.160 HD
HETATM  101  H99 UNL     1       7.198  -3.735  -5.031  1.00  0.00     0.160 HD
HETATM  102  HA0 UNL     1       2.884  -0.109  -0.854  1.00  0.00     0.169 HD
HETATM  103  HA1 UNL     1       0.366   5.090   2.500  1.00  0.00     0.163 HD
HETATM  104  HA2 UNL     1      -6.142  -0.712  -3.486  1.00  0.00     0.163 HD
HETATM  105  HA3 UNL     1       6.446  -2.592  -0.677  1.00  0.00     0.165 HD
ENDROOT
TORSDOF 39
