REMARK  0 active torsions:
REMARK  status: ('A' for Active; 'I' for Inactive)
REMARK       I    between atoms: C2_2  and  C3_3 
REMARK       I    between atoms: C2_2  and  O15_54 
REMARK       I    between atoms: C3_3  and  C4_4 
REMARK       I    between atoms: C3_3  and  N18_74 
REMARK       I    between atoms: C4_4  and  N1_55 
REMARK       I    between atoms: C5_5  and  C6_6 
REMARK       I    between atoms: C5_5  and  N1_55 
REMARK       I    between atoms: C6_6  and  N2_56 
REMARK       I    between atoms: C7_7  and  C9_9 
REMARK       I    between atoms: C7_7  and  N2_56 
REMARK       I    between atoms: C9_9  and  N3_57 
REMARK       I    between atoms: C10_10  and  C11_11 
REMARK       I    between atoms: C10_10  and  N3_57 
REMARK       I    between atoms: C11_11  and  N4_58 
REMARK       I    between atoms: C12_12  and  C14_14 
REMARK       I    between atoms: C12_12  and  N4_58 
REMARK       I    between atoms: C14_14  and  N5_59 
REMARK       I    between atoms: C15_15  and  C16_16 
REMARK       I    between atoms: C15_15  and  N5_59 
REMARK       I    between atoms: C16_16  and  N6_60 
REMARK       I    between atoms: C17_17  and  C19_19 
REMARK       I    between atoms: C17_17  and  N6_60 
REMARK       I    between atoms: C19_19  and  N7_61 
REMARK       I    between atoms: C20_20  and  C21_21 
REMARK       I    between atoms: C20_20  and  C25_25 
REMARK       I    between atoms: C20_20  and  N7_61 
REMARK       I    between atoms: C21_21  and  C22_22 
REMARK       I    between atoms: C22_22  and  C23_23 
REMARK       I    between atoms: C23_23  and  N8_62 
REMARK       I    between atoms: C24_24  and  N9_64 
REMARK       I    between atoms: C24_24  and  N10_65 
REMARK       I    between atoms: C25_25  and  N11_66 
REMARK       I    between atoms: C26_26  and  C27_27 
REMARK       I    between atoms: C26_26  and  N11_66 
REMARK       I    between atoms: C27_27  and  N12_67 
REMARK       I    between atoms: C28_28  and  C29_29 
REMARK       I    between atoms: C28_28  and  C33_33 
REMARK       I    between atoms: C28_28  and  N12_67 
REMARK       I    between atoms: C29_29  and  C30_30 
REMARK       I    between atoms: C30_30  and  C31_31 
REMARK       I    between atoms: C31_31  and  N13_68 
REMARK       I    between atoms: C32_32  and  N14_70 
REMARK       I    between atoms: C32_32  and  N15_71 
REMARK       I    between atoms: C33_33  and  N16_72 
REMARK       I    between atoms: C34_34  and  C35_35 
REMARK       I    between atoms: C34_34  and  N16_72 
REMARK       I    between atoms: C35_35  and  N17_73 
REMARK       I    between atoms: C36_36  and  C37_37 
REMARK       I    between atoms: C36_36  and  N17_73 
REMARK       I    between atoms: C37_37  and  O13_52 
REMARK       I    between atoms: C38_38  and  C39_39 
REMARK       I    between atoms: C38_38  and  N18_74 
REMARK       I    between atoms: C39_39  and  N19_75 
ROOT
HETATM    1  C1  UNL     1      12.072   4.669   0.535  1.00  0.00     0.042 C 
HETATM    2  C2  UNL     1      10.987   3.740   0.001  1.00  0.00     0.146 C 
HETATM    3  C3  UNL     1      11.514   2.829  -1.131  1.00  0.00     0.205 C 
HETATM    4  C4  UNL     1      10.382   1.910  -1.640  1.00  0.00     0.243 C 
HETATM    5  C5  UNL     1       8.594   0.431  -0.907  1.00  0.00     0.225 C 
HETATM    6  C6  UNL     1       7.561   1.461  -0.419  1.00  0.00     0.236 C 
HETATM    7  C7  UNL     1       5.169   1.808   0.045  1.00  0.00     0.172 C 
HETATM    8  C8  UNL     1       3.895   1.699  -0.783  1.00  0.00     0.042 C 
HETATM    9  C9  UNL     1       4.934   1.217   1.450  1.00  0.00     0.240 C 
HETATM   10  C10 UNL     1       3.716   1.495   3.557  1.00  0.00     0.225 C 
HETATM   11  C11 UNL     1       2.358   0.833   3.307  1.00  0.00     0.236 C 
HETATM   12  C12 UNL     1       0.792  -0.934   4.053  1.00  0.00     0.172 C 
HETATM   13  C13 UNL     1       0.374  -1.514   5.397  1.00  0.00     0.042 C 
HETATM   14  C14 UNL     1       1.011  -2.048   3.003  1.00  0.00     0.240 C 
HETATM   15  C15 UNL     1       1.485  -2.424   0.582  1.00  0.00     0.225 C 
HETATM   16  C16 UNL     1       0.253  -2.700  -0.285  1.00  0.00     0.236 C 
HETATM   17  C17 UNL     1      -2.193  -2.885  -0.273  1.00  0.00     0.172 C 
HETATM   18  C18 UNL     1      -3.250  -3.625   0.532  1.00  0.00     0.042 C 
HETATM   19  C19 UNL     1      -2.604  -1.417  -0.504  1.00  0.00     0.240 C 
HETATM   20  C20 UNL     1      -4.098   0.086  -1.782  1.00  0.00     0.176 C 
HETATM   21  C21 UNL     1      -3.168   0.743  -2.816  1.00  0.00     0.036 C 
HETATM   22  C22 UNL     1      -2.888  -0.063  -4.092  1.00  0.00     0.022 C 
HETATM   23  C23 UNL     1      -1.863  -1.186  -3.902  1.00  0.00     0.121 C 
HETATM   24  C24 UNL     1      -0.678  -2.684  -5.255  1.00  0.00     0.121 C 
HETATM   25  C25 UNL     1      -5.561  -0.014  -2.251  1.00  0.00     0.240 C 
HETATM   26  C26 UNL     1      -7.610   1.246  -2.770  1.00  0.00     0.225 C 
HETATM   27  C27 UNL     1      -8.387   1.241  -1.452  1.00  0.00     0.236 C 
HETATM   28  C28 UNL     1      -9.190  -0.242   0.403  1.00  0.00     0.176 C 
HETATM   29  C29 UNL     1      -9.586  -1.728   0.516  1.00  0.00     0.036 C 
HETATM   30  C30 UNL     1      -8.532  -2.795   0.158  1.00  0.00     0.022 C 
HETATM   31  C31 UNL     1      -7.127  -2.649   0.743  1.00  0.00     0.121 C 
HETATM   32  C32 UNL     1      -7.463  -3.038   3.059  1.00  0.00     0.121 C 
HETATM   33  C33 UNL     1      -8.604   0.305   1.743  1.00  0.00     0.240 C 
HETATM   34  C34 UNL     1      -7.254   2.097   2.770  1.00  0.00     0.225 C 
HETATM   35  C35 UNL     1      -6.055   1.529   3.543  1.00  0.00     0.235 C 
HETATM   36  C36 UNL     1      -4.642  -0.454   3.944  1.00  0.00     0.232 C 
HETATM   37  C37 UNL     1      -3.462  -0.429   2.979  1.00  0.00     0.158 C 
HETATM   38  C38 UNL     1      12.972   3.131  -3.097  1.00  0.00     0.246 C 
HETATM   39  C39 UNL     1      13.163   3.885  -4.419  1.00  0.00     0.368 C 
HETATM   40  O1  UNL     1       9.872   2.034  -2.755  1.00  0.00    -0.271 OA
HETATM   41  O2  UNL     1       7.879   2.542   0.079  1.00  0.00    -0.272 OA
HETATM   42  O3  UNL     1       5.318   0.091   1.765  1.00  0.00    -0.271 OA
HETATM   43  O4  UNL     1       1.613   1.176   2.387  1.00  0.00    -0.272 OA
HETATM   44  O5  UNL     1       1.037  -3.245   3.272  1.00  0.00    -0.271 OA
HETATM   45  O6  UNL     1       0.324  -2.846  -1.506  1.00  0.00    -0.272 OA
HETATM   46  O7  UNL     1      -2.055  -0.465   0.058  1.00  0.00    -0.271 OA
HETATM   47  O8  UNL     1      -6.154  -1.090  -2.348  1.00  0.00    -0.271 OA
HETATM   48  O9  UNL     1      -8.832   2.263  -0.937  1.00  0.00    -0.272 OA
HETATM   49  O10 UNL     1      -9.004  -0.055   2.850  1.00  0.00    -0.271 OA
HETATM   50  O11 UNL     1      -5.387   2.237   4.297  1.00  0.00    -0.272 OA
HETATM   51  O12 UNL     1      -2.414  -1.046   3.131  1.00  0.00    -0.649 OA
HETATM   52  O13 UNL     1      -3.642   0.360   1.899  1.00  0.00    -0.775 OA
HETATM   53  O14 UNL     1      13.693   2.187  -2.778  1.00  0.00    -0.272 OA
HETATM   54  O15 UNL     1       9.898   4.556  -0.449  1.00  0.00    -0.393 OA
HETATM   55  N1  UNL     1       9.926   0.979  -0.723  1.00  0.00    -0.350 N 
HETATM   56  N2  UNL     1       6.252   1.059  -0.587  1.00  0.00    -0.347 N 
HETATM   57  N3  UNL     1       4.217   2.028   2.304  1.00  0.00    -0.351 N 
HETATM   58  N4  UNL     1       2.029  -0.160   4.202  1.00  0.00    -0.347 N 
HETATM   59  N5  UNL     1       1.187  -1.573   1.721  1.00  0.00    -0.351 N 
HETATM   60  N6  UNL     1      -0.918  -2.882   0.422  1.00  0.00    -0.347 N 
HETATM   61  N7  UNL     1      -3.653  -1.235  -1.368  1.00  0.00    -0.346 N 
HETATM   62  N8  UNL     1      -1.449  -1.662  -5.218  1.00  0.00    -0.372 N 
ATOM     63  H8  UNL     1      -1.761  -1.200  -6.072  1.00  0.00     0.161 HD
HETATM   64  N9  UNL     1      -0.284  -3.175  -6.451  1.00  0.00    -0.279 NA
HETATM   65  N10 UNL     1      -0.161  -3.436  -4.259  1.00  0.00    -0.279 NA
HETATM   66  N11 UNL     1      -6.186   1.190  -2.490  1.00  0.00    -0.351 N 
HETATM   67  N12 UNL     1      -8.437   0.017  -0.828  1.00  0.00    -0.346 N 
HETATM   68  N13 UNL     1      -7.161  -2.219   2.127  1.00  0.00    -0.372 N 
ATOM     69  H13 UNL     1      -6.941  -1.250   2.359  1.00  0.00     0.161 HD
HETATM   70  N14 UNL     1      -7.718  -4.362   3.011  1.00  0.00    -0.279 NA
HETATM   71  N15 UNL     1      -7.607  -2.579   4.321  1.00  0.00    -0.279 NA
HETATM   72  N16 UNL     1      -7.688   1.330   1.609  1.00  0.00    -0.351 N 
HETATM   73  N17 UNL     1      -5.836   0.180   3.415  1.00  0.00    -0.350 N 
HETATM   74  N18 UNL     1      11.979   3.613  -2.274  1.00  0.00    -0.344 N 
HETATM   75  N19 UNL     1      12.013   4.731  -4.781  1.00  0.00     0.087 N 
HETATM   76  H46 UNL     1      -2.821   0.256   1.355  1.00  0.00     0.167 HD
HETATM   77  H47 UNL     1       9.080   4.019  -0.357  1.00  0.00     0.210 HD
HETATM   78  H48 UNL     1      10.245   1.058   0.233  1.00  0.00     0.163 HD
HETATM   79  H49 UNL     1       6.096   0.060  -0.666  1.00  0.00     0.163 HD
HETATM   80  H50 UNL     1       3.680   2.785   1.896  1.00  0.00     0.163 HD
HETATM   81  H51 UNL     1       2.791  -0.622   4.685  1.00  0.00     0.163 HD
HETATM   82  H52 UNL     1       1.099  -0.567   1.570  1.00  0.00     0.163 HD
HETATM   83  H53 UNL     1      -0.916  -2.495   1.363  1.00  0.00     0.163 HD
HETATM   84  H54 UNL     1      -4.102  -2.030  -1.814  1.00  0.00     0.163 HD
HETATM   85  H55 UNL     1      -0.391  -4.181  -6.501  1.00  0.00     0.126 HD
HETATM   86  H56 UNL     1      -0.808  -2.721  -7.193  1.00  0.00     0.126 HD
HETATM   87  H57 UNL     1      -0.169  -3.018  -3.325  1.00  0.00     0.126 HD
HETATM   88  H58 UNL     1       0.780  -3.752  -4.461  1.00  0.00     0.126 HD
HETATM   89  H59 UNL     1      -5.743   2.044  -2.169  1.00  0.00     0.163 HD
HETATM   90  H60 UNL     1      -7.844  -0.715  -1.213  1.00  0.00     0.163 HD
HETATM   91  H61 UNL     1      -7.402  -4.825   2.169  1.00  0.00     0.126 HD
HETATM   92  H62 UNL     1      -7.393  -4.849   3.839  1.00  0.00     0.126 HD
HETATM   93  H63 UNL     1      -8.454  -2.930   4.752  1.00  0.00     0.126 HD
HETATM   94  H64 UNL     1      -7.667  -1.559   4.295  1.00  0.00     0.126 HD
HETATM   95  H65 UNL     1      -7.801   1.864   0.753  1.00  0.00     0.163 HD
HETATM   96  H66 UNL     1      -6.357  -0.331   2.703  1.00  0.00     0.163 HD
HETATM   97  H67 UNL     1      11.253   4.165  -2.714  1.00  0.00     0.163 HD
HETATM   98  H68 UNL     1      11.167   4.161  -4.804  1.00  0.00     0.313 HD
HETATM   99  H69 UNL     1      11.892   5.465  -4.087  1.00  0.00     0.313 HD
ENDROOT
TORSDOF 37
