REMARK  0 active torsions:
REMARK  status: ('A' for Active; 'I' for Inactive)
REMARK       I    between atoms: C2_2  and  N1_66 
REMARK       I    between atoms: C3_3  and  C4_4 
REMARK       I    between atoms: C3_3  and  N1_66 
REMARK       I    between atoms: C4_4  and  C5_5 
REMARK       I    between atoms: C4_4  and  N12_77 
REMARK       I    between atoms: C5_5  and  C6_6 
REMARK       I    between atoms: C5_5  and  N11_76 
REMARK       I    between atoms: C6_6  and  N2_67 
REMARK       I    between atoms: C7_7  and  C8_8 
REMARK       I    between atoms: C7_7  and  N2_67 
REMARK       I    between atoms: C8_8  and  O3_80 
REMARK       I    between atoms: C9_9  and  C10_10 
REMARK       I    between atoms: C9_9  and  O3_80 
REMARK       I    between atoms: C10_10  and  C11_11 
REMARK       I    between atoms: C11_11  and  N3_68 
REMARK       I    between atoms: C12_12  and  C14_14 
REMARK       I    between atoms: C12_12  and  N3_68 
REMARK       I    between atoms: C14_14  and  N4_69 
REMARK       I    between atoms: C15_15  and  C17_17 
REMARK       I    between atoms: C15_15  and  N4_69 
REMARK       I    between atoms: C17_17  and  N5_70 
REMARK       I    between atoms: C18_18  and  N5_70 
REMARK       I    between atoms: C22_22  and  C51_51 
REMARK       I    between atoms: C24_24  and  C25_25 
REMARK       I    between atoms: C24_24  and  N6_71 
REMARK       I    between atoms: C25_25  and  C26_26 
REMARK       I    between atoms: C26_26  and  C27_27 
REMARK       I    between atoms: C27_27  and  C28_28 
REMARK       I    between atoms: C28_28  and  N7_72 
REMARK       I    between atoms: C30_30  and  C50_50 
REMARK       I    between atoms: C34_34  and  N8_73 
REMARK       I    between atoms: C41_41  and  C42_42 
REMARK       I    between atoms: C41_41  and  N8_73 
REMARK       I    between atoms: C42_42  and  N9_74 
REMARK       I    between atoms: C44_44  and  C45_45 
REMARK       I    between atoms: C44_44  and  N9_74 
REMARK       I    between atoms: C45_45  and  N10_75 
REMARK       I    between atoms: C47_47  and  C48_48 
REMARK       I    between atoms: C47_47  and  N10_75 
REMARK       I    between atoms: C48_48  and  C49_49 
REMARK       I    between atoms: C49_49  and  O12_89 
REMARK       I    between atoms: C58_58  and  C59_59 
REMARK       I    between atoms: C58_58  and  N11_76 
REMARK       I    between atoms: C60_60  and  C61_61 
REMARK       I    between atoms: C61_61  and  O15_92 
REMARK       I    between atoms: C62_62  and  C63_63 
REMARK       I    between atoms: C62_62  and  N12_77 
REMARK       I    between atoms: C64_64  and  C65_65 
REMARK       I    between atoms: C65_65  and  O18_95 
ROOT
HETATM    1  C1  UNL     1      -3.532   5.310   3.568  1.00  0.00     0.026 C 
HETATM    2  C2  UNL     1      -4.842   4.633   3.218  1.00  0.00     0.118 C 
HETATM    3  C3  UNL     1      -5.842   2.408   3.116  1.00  0.00     0.243 C 
HETATM    4  C4  UNL     1      -5.682   0.901   2.788  1.00  0.00     0.208 C 
HETATM    5  C5  UNL     1      -5.143   0.553   1.379  1.00  0.00     0.208 C 
HETATM    6  C6  UNL     1      -3.863  -0.316   1.454  1.00  0.00     0.243 C 
HETATM    7  C7  UNL     1      -3.069  -2.636   1.781  1.00  0.00     0.148 C 
HETATM    8  C8  UNL     1      -1.677  -2.422   2.381  1.00  0.00     0.187 C 
HETATM    9  C9  UNL     1      -0.531  -3.944   0.936  1.00  0.00     0.176 C 
HETATM   10  C10 UNL     1       0.750  -4.759   0.902  1.00  0.00     0.129 C 
HETATM   11  C11 UNL     1       0.656  -6.115   1.565  1.00  0.00     0.220 C 
HETATM   12  C12 UNL     1       0.068  -7.295   3.666  1.00  0.00     0.172 C 
HETATM   13  C13 UNL     1      -1.163  -7.368   4.556  1.00  0.00     0.042 C 
HETATM   14  C14 UNL     1       1.355  -7.097   4.497  1.00  0.00     0.240 C 
HETATM   15  C15 UNL     1       3.768  -6.621   4.218  1.00  0.00     0.172 C 
HETATM   16  C16 UNL     1       4.948  -7.242   3.484  1.00  0.00     0.042 C 
HETATM   17  C17 UNL     1       3.684  -5.089   3.972  1.00  0.00     0.244 C 
HETATM   18  C18 UNL     1       2.305  -3.144   4.817  1.00  0.00     0.048 A 
HETATM   19  C19 UNL     1       2.389  -2.380   3.645  1.00  0.00     0.060 A 
HETATM   20  C20 UNL     1       1.818  -1.120   3.612  1.00  0.00     0.047 A 
HETATM   21  C21 UNL     1       1.210  -0.579   4.746  1.00  0.00    -0.013 A 
HETATM   22  C22 UNL     1       0.646   0.788   4.436  1.00  0.00     0.054 C 
HETATM   23  C23 UNL     1       1.264   1.073   3.054  1.00  0.00     0.142 C 
HETATM   24  C24 UNL     1       2.087  -0.491   1.222  1.00  0.00     0.224 C 
HETATM   25  C25 UNL     1       2.022   0.662   0.235  1.00  0.00     0.104 C 
HETATM   26  C26 UNL     1       0.669   0.685  -0.478  1.00  0.00     0.019 C 
HETATM   27  C27 UNL     1       0.705   1.538  -1.748  1.00  0.00     0.104 C 
HETATM   28  C28 UNL     1       0.767   3.030  -1.482  1.00  0.00     0.224 C 
HETATM   29  C29 UNL     1       1.400   5.307  -2.184  1.00  0.00     0.142 C 
HETATM   30  C30 UNL     1       2.226   5.884  -3.341  1.00  0.00     0.054 C 
HETATM   31  C31 UNL     1       1.965   4.855  -4.421  1.00  0.00    -0.013 A 
HETATM   32  C32 UNL     1       1.411   3.698  -3.863  1.00  0.00     0.047 A 
HETATM   33  C33 UNL     1       1.129   2.612  -4.668  1.00  0.00     0.060 A 
HETATM   34  C34 UNL     1       1.424   2.651  -6.041  1.00  0.00     0.048 A 
HETATM   35  C35 UNL     1       1.969   3.844  -6.629  1.00  0.00     0.002 A 
HETATM   36  C36 UNL     1       2.259   3.993  -8.012  1.00  0.00     0.014 A 
HETATM   37  C37 UNL     1       2.795   5.169  -8.543  1.00  0.00     0.001 A 
HETATM   38  C38 UNL     1       3.051   6.246  -7.713  1.00  0.00     0.001 A 
HETATM   39  C39 UNL     1       2.771   6.145  -6.353  1.00  0.00     0.013 A 
HETATM   40  C40 UNL     1       2.240   4.962  -5.794  1.00  0.00    -0.015 A 
HETATM   41  C41 UNL     1       0.759   0.248  -6.482  1.00  0.00     0.244 C 
HETATM   42  C42 UNL     1       1.037  -0.834  -7.560  1.00  0.00     0.172 C 
HETATM   43  C43 UNL     1       0.488  -2.192  -7.143  1.00  0.00     0.042 C 
HETATM   44  C44 UNL     1       3.139  -0.093  -8.664  1.00  0.00     0.240 C 
HETATM   45  C45 UNL     1       4.673  -0.137  -8.541  1.00  0.00     0.172 C 
HETATM   46  C46 UNL     1       5.334   0.193  -9.871  1.00  0.00     0.042 C 
HETATM   47  C47 UNL     1       4.868   0.581  -6.186  1.00  0.00     0.220 C 
HETATM   48  C48 UNL     1       5.192   1.754  -5.287  1.00  0.00     0.128 C 
HETATM   49  C49 UNL     1       4.723   1.510  -3.862  1.00  0.00     0.173 C 
HETATM   50  C50 UNL     1       3.714   5.966  -2.992  1.00  0.00     0.125 C 
HETATM   51  C51 UNL     1      -0.880   0.778   4.369  1.00  0.00     0.125 C 
HETATM   52  C52 UNL     1       1.135  -1.294   5.951  1.00  0.00    -0.015 A 
HETATM   53  C53 UNL     1       0.552  -0.738   7.111  1.00  0.00     0.013 A 
HETATM   54  C54 UNL     1       0.456  -1.462   8.297  1.00  0.00     0.001 A 
HETATM   55  C55 UNL     1       0.951  -2.754   8.349  1.00  0.00     0.001 A 
HETATM   56  C56 UNL     1       1.549  -3.315   7.219  1.00  0.00     0.014 A 
HETATM   57  C57 UNL     1       1.665  -2.613   5.990  1.00  0.00     0.002 A 
HETATM   58  C58 UNL     1      -5.744   2.442  -0.114  1.00  0.00     0.242 C 
HETATM   59  C59 UNL     1      -5.271   3.597  -0.921  1.00  0.00     0.080 C 
HETATM   60  C60 UNL     1      -4.103   4.255  -0.976  1.00  0.00     0.086 C 
HETATM   61  C61 UNL     1      -2.887   3.997  -0.195  1.00  0.00     0.165 C 
HETATM   62  C62 UNL     1      -7.325  -0.970   3.100  1.00  0.00     0.242 C 
HETATM   63  C63 UNL     1      -8.717  -1.257   3.494  1.00  0.00     0.080 C 
HETATM   64  C64 UNL     1      -9.251  -0.933   4.679  1.00  0.00     0.086 C 
HETATM   65  C65 UNL     1      -8.511  -0.297   5.779  1.00  0.00     0.165 C 
HETATM   66  N1  UNL     1      -4.709   3.195   3.081  1.00  0.00    -0.360 N 
HETATM   67  N2  UNL     1      -4.017  -1.563   2.016  1.00  0.00    -0.357 N 
HETATM   68  N3  UNL     1      -0.036  -6.158   2.750  1.00  0.00    -0.348 N 
HETATM   69  N4  UNL     1       2.518  -7.222   3.759  1.00  0.00    -0.346 N 
HETATM   70  N5  UNL     1       2.800  -4.473   4.848  1.00  0.00    -0.325 N 
HETATM   71  N6  UNL     1       1.745  -0.215   2.532  1.00  0.00    -0.317 N 
HETATM   72  N7  UNL     1       1.201   3.881  -2.481  1.00  0.00    -0.317 N 
HETATM   73  N8  UNL     1       1.251   1.496  -6.848  1.00  0.00    -0.325 N 
HETATM   74  N9  UNL     1       2.481  -0.931  -7.787  1.00  0.00    -0.346 N 
HETATM   75  N10 UNL     1       5.044   0.850  -7.527  1.00  0.00    -0.348 N 
HETATM   76  N11 UNL     1      -4.812   1.690   0.522  1.00  0.00    -0.342 N 
HETATM   77  N12 UNL     1      -7.037   0.355   3.006  1.00  0.00    -0.342 N 
HETATM   78  O1  UNL     1      -6.939   2.870   3.454  1.00  0.00    -0.271 OA
HETATM   79  O2  UNL     1      -2.782   0.070   1.007  1.00  0.00    -0.271 OA
HETATM   80  O3  UNL     1      -0.846  -3.586   2.289  1.00  0.00    -0.389 OA
HETATM   81  O4  UNL     1       1.278  -7.091   1.144  1.00  0.00    -0.274 OA
HETATM   82  O5  UNL     1       1.368  -6.754   5.679  1.00  0.00    -0.271 OA
HETATM   83  O6  UNL     1       4.335  -4.530   3.096  1.00  0.00    -0.271 OA
HETATM   84  O7  UNL     1       2.384  -1.610   0.797  1.00  0.00    -0.273 OA
HETATM   85  O8  UNL     1       0.429   3.487  -0.381  1.00  0.00    -0.273 OA
HETATM   86  O9  UNL     1       0.142  -0.005  -5.452  1.00  0.00    -0.271 OA
HETATM   87  O10 UNL     1       2.538   0.737  -9.345  1.00  0.00    -0.271 OA
HETATM   88  O11 UNL     1       4.485  -0.512  -5.778  1.00  0.00    -0.274 OA
HETATM   89  O12 UNL     1       5.595   0.608  -3.196  1.00  0.00    -0.400 OA
HETATM   90  O13 UNL     1      -6.945   2.194  -0.073  1.00  0.00    -0.269 OA
HETATM   91  O14 UNL     1      -2.767   3.245   0.751  1.00  0.00    -0.647 OA
HETATM   92  O15 UNL     1      -1.866   4.704  -0.699  1.00  0.00    -0.773 OA
HETATM   93  O16 UNL     1      -6.552  -1.874   2.806  1.00  0.00    -0.269 OA
HETATM   94  O17 UNL     1      -7.311  -0.166   5.903  1.00  0.00    -0.647 OA
HETATM   95  O18 UNL     1      -9.377   0.146   6.704  1.00  0.00    -0.773 OA
HETATM   96 CL1  UNL     1       4.024   7.275  -1.823  1.00  0.00    -0.130 Cl
HETATM   97 CL2  UNL     1      -1.508   2.436   4.221  1.00  0.00    -0.130 Cl
HETATM   98  H66 UNL     1      -3.915   2.865   2.536  1.00  0.00     0.162 HD
HETATM   99  H67 UNL     1      -4.970  -1.851   2.263  1.00  0.00     0.162 HD
HETATM  100  H68 UNL     1      -0.298  -5.249   3.139  1.00  0.00     0.163 HD
HETATM  101  H69 UNL     1       2.395  -7.297   2.747  1.00  0.00     0.163 HD
HETATM  102  H70 UNL     1       2.431  -5.075   5.580  1.00  0.00     0.169 HD
HETATM  103  H71 UNL     1       1.571   1.548  -7.811  1.00  0.00     0.169 HD
HETATM  104  H72 UNL     1       3.040  -1.247  -6.990  1.00  0.00     0.163 HD
HETATM  105  H73 UNL     1       5.073   1.823  -7.812  1.00  0.00     0.163 HD
HETATM  106  H74 UNL     1      -3.819   1.910   0.449  1.00  0.00     0.163 HD
HETATM  107  H75 UNL     1      -7.736   1.050   3.262  1.00  0.00     0.163 HD
HETATM  108  H76 UNL     1       5.427  -0.277  -3.575  1.00  0.00     0.209 HD
HETATM  109  H77 UNL     1      -1.059   4.364  -0.231  1.00  0.00     0.167 HD
HETATM  110  H78 UNL     1      -8.803   0.568   7.378  1.00  0.00     0.167 HD
ENDROOT
TORSDOF 37
