REMARK  32 active torsions:
REMARK  status: ('A' for Active; 'I' for Inactive)
REMARK    1  A    between atoms: C4_4  and  C5_5 
REMARK       I    between atoms: C5_5  and  N3_66 
REMARK    2  A    between atoms: C6_6  and  N3_66 
REMARK    3  A    between atoms: C8_8  and  C9_9 
REMARK       I    between atoms: C9_9  and  N6_70 
REMARK    4  A    between atoms: C10_10  and  C11_11 
REMARK    5  A    between atoms: C10_10  and  N6_70 
REMARK    6  A    between atoms: C11_11  and  C12_12 
REMARK       I    between atoms: C12_12  and  N7_71 
REMARK    7  A    between atoms: C13_13  and  N7_71 
REMARK    8  A    between atoms: C15_15  and  C16_16 
REMARK       I    between atoms: C16_16  and  N10_75 
REMARK    9  A    between atoms: C17_17  and  N10_75 
REMARK   10  A    between atoms: C19_19  and  C20_20 
REMARK       I    between atoms: C20_20  and  N13_79 
REMARK   11  A    between atoms: C21_21  and  C22_22 
REMARK   12  A    between atoms: C21_21  and  N13_79 
REMARK   13  A    between atoms: C22_22  and  C23_23 
REMARK   14  A    between atoms: C23_23  and  C24_24 
REMARK       I    between atoms: C24_24  and  N14_80 
REMARK   15  A    between atoms: C25_25  and  N14_80 
REMARK   16  A    between atoms: C27_27  and  C29_29 
REMARK       I    between atoms: C29_29  and  N16_82 
REMARK   17  A    between atoms: C30_30  and  N16_82 
REMARK   18  A    between atoms: C32_32  and  C34_34 
REMARK       I    between atoms: C34_34  and  N18_84 
REMARK   19  A    between atoms: C35_35  and  C36_36 
REMARK   20  A    between atoms: C35_35  and  N18_84 
REMARK   21  A    between atoms: C36_36  and  C37_37 
REMARK       I    between atoms: C37_37  and  N19_85 
REMARK   22  A    between atoms: C38_38  and  N19_85 
REMARK   23  A    between atoms: C40_40  and  C42_42 
REMARK       I    between atoms: C42_42  and  N21_87 
REMARK   24  A    between atoms: C43_43  and  N21_87 
REMARK   25  A    between atoms: C45_45  and  C47_47 
REMARK       I    between atoms: C47_47  and  N23_89 
REMARK   26  A    between atoms: C48_48  and  C49_49 
REMARK   27  A    between atoms: C48_48  and  N23_89 
REMARK   28  A    between atoms: C49_49  and  C50_50 
REMARK       I    between atoms: C50_50  and  N24_90 
REMARK   29  A    between atoms: C51_51  and  C52_52 
REMARK   30  A    between atoms: C51_51  and  N24_90 
REMARK   31  A    between atoms: C52_52  and  C53_53 
REMARK   32  A    between atoms: C53_53  and  N25_91 
ROOT
HETATM    1  C25 UNL     1       0.210   5.149  -5.161  1.00  0.00     0.052 A 
HETATM    2  C26 UNL     1       0.686   6.295  -5.749  1.00  0.00     0.120 A 
HETATM    3  C27 UNL     1      -0.743   5.349  -7.231  1.00  0.00     0.105 A 
HETATM    4  C28 UNL     1      -0.689   4.565  -6.081  1.00  0.00     0.066 A 
HETATM    5  C59 UNL     1       0.379   7.507  -7.904  1.00  0.00     0.156 C 
HETATM    6  N15 UNL     1       0.108   6.415  -6.990  1.00  0.00    -0.354 N 
ENDROOT
BRANCH   1   7
HETATM    7  N14 UNL     1       0.597   4.723  -3.906  1.00  0.00    -0.326 N 
HETATM    8  C24 UNL     1       0.152   3.562  -3.295  1.00  0.00     0.222 C 
HETATM    9  O6  UNL     1      -0.680   2.782  -3.746  1.00  0.00    -0.273 OA
HETATM   10  H73 UNL     1       1.270   5.305  -3.424  1.00  0.00     0.169 HD
BRANCH   8  11
HETATM   11  C23 UNL     1       0.811   3.351  -1.942  1.00  0.00     0.105 C 
BRANCH  11  12
HETATM   12  C22 UNL     1       0.587   1.957  -1.355  1.00  0.00     0.029 C 
BRANCH  12  13
HETATM   13  C21 UNL     1       1.281   0.864  -2.169  1.00  0.00     0.123 C 
BRANCH  13  14
HETATM   14  N13 UNL     1       1.380  -0.370  -1.426  1.00  0.00    -0.354 N 
HETATM   15  C20 UNL     1       0.403  -1.341  -1.402  1.00  0.00     0.285 C 
HETATM   16  O5  UNL     1      -0.660  -1.239  -2.007  1.00  0.00    -0.264 OA
HETATM   17  H72 UNL     1       2.197  -0.561  -0.849  1.00  0.00     0.162 HD
BRANCH  15  18
HETATM   18  C19 UNL     1       0.781  -2.485  -0.584  1.00  0.00     0.178 A 
HETATM   19  N11 UNL     1       0.094  -3.667  -0.444  1.00  0.00    -0.339 N 
HETATM   20  C18 UNL     1       0.794  -4.461   0.422  1.00  0.00     0.140 A 
HETATM   21  C60 UNL     1      -1.138  -4.026  -1.102  1.00  0.00     0.157 C 
HETATM   22  C17 UNL     1       1.897  -3.725   0.770  1.00  0.00     0.125 A 
HETATM   23  N12 UNL     1       1.891  -2.510   0.145  1.00  0.00    -0.323 N 
ATOM     24  H12 UNL     1       2.593  -1.774   0.222  1.00  0.00     0.169 HD
BRANCH  22  25
HETATM   25  N10 UNL     1       2.931  -4.034   1.606  1.00  0.00    -0.305 N 
HETATM   26  C16 UNL     1       3.093  -5.204   2.311  1.00  0.00     0.291 C 
HETATM   27  O4  UNL     1       2.324  -6.163   2.295  1.00  0.00    -0.264 OA
HETATM   28  H71 UNL     1       3.651  -3.325   1.717  1.00  0.00     0.170 HD
BRANCH  26  29
HETATM   29  C15 UNL     1       4.314  -5.185   3.104  1.00  0.00     0.178 A 
HETATM   30  N8  UNL     1       4.796  -6.183   3.918  1.00  0.00    -0.339 N 
HETATM   31  C14 UNL     1       5.971  -5.746   4.469  1.00  0.00     0.140 A 
HETATM   32  C61 UNL     1       4.178  -7.466   4.152  1.00  0.00     0.157 C 
HETATM   33  C13 UNL     1       6.155  -4.483   3.960  1.00  0.00     0.125 A 
HETATM   34  N9  UNL     1       5.135  -4.146   3.126  1.00  0.00    -0.323 N 
ATOM     35  H9  UNL     1       5.024  -3.268   2.619  1.00  0.00     0.169 HD
BRANCH  33  36
HETATM   36  N7  UNL     1       7.220  -3.670   4.252  1.00  0.00    -0.312 N 
HETATM   37  C12 UNL     1       7.401  -2.401   3.729  1.00  0.00     0.224 C 
HETATM   38  O3  UNL     1       6.661  -1.810   2.950  1.00  0.00    -0.273 OA
HETATM   39  H70 UNL     1       7.912  -4.045   4.883  1.00  0.00     0.170 HD
BRANCH  37  40
HETATM   40  C11 UNL     1       8.670  -1.768   4.265  1.00  0.00     0.123 C 
BRANCH  40  41
HETATM   41  C10 UNL     1       8.948  -0.426   3.602  1.00  0.00     0.132 C 
BRANCH  41  42
HETATM   42  N6  UNL     1      10.124   0.215   4.151  1.00  0.00    -0.354 N 
HETATM   43  C9  UNL     1      11.412  -0.156   3.836  1.00  0.00     0.285 C 
HETATM   44  O2  UNL     1      11.672  -1.099   3.093  1.00  0.00    -0.264 OA
HETATM   45  H69 UNL     1      10.036   1.018   4.774  1.00  0.00     0.162 HD
BRANCH  43  46
HETATM   46  C8  UNL     1      12.410   0.677   4.485  1.00  0.00     0.178 A 
HETATM   47  N4  UNL     1      13.775   0.596   4.350  1.00  0.00    -0.339 N 
HETATM   48  C7  UNL     1      14.334   1.567   5.137  1.00  0.00     0.140 A 
HETATM   49  C62 UNL     1      14.496  -0.339   3.523  1.00  0.00     0.157 C 
HETATM   50  C6  UNL     1      13.268   2.206   5.724  1.00  0.00     0.125 A 
HETATM   51  N5  UNL     1      12.091   1.656   5.320  1.00  0.00    -0.323 N 
ATOM     52  H5  UNL     1      11.153   1.940   5.602  1.00  0.00     0.169 HD
BRANCH  50  53
HETATM   53  N3  UNL     1      13.371   3.253   6.596  1.00  0.00    -0.305 N 
HETATM   54  C5  UNL     1      12.313   3.903   7.194  1.00  0.00     0.291 C 
HETATM   55  O1  UNL     1      11.122   3.649   7.048  1.00  0.00    -0.264 OA
HETATM   56  H68 UNL     1      14.293   3.598   6.835  1.00  0.00     0.170 HD
BRANCH  54  57
HETATM   57  C4  UNL     1      12.788   4.976   8.063  1.00  0.00     0.176 A 
HETATM   58  N1  UNL     1      12.019   5.835   8.813  1.00  0.00    -0.342 N 
HETATM   59  C1  UNL     1      10.578   5.846   8.889  1.00  0.00     0.157 C 
HETATM   60  C2  UNL     1      12.859   6.685   9.478  1.00  0.00     0.109 A 
HETATM   61  C3  UNL     1      14.125   6.306   9.103  1.00  0.00     0.107 A 
HETATM   62  N2  UNL     1      14.078   5.251   8.229  1.00  0.00    -0.346 N 
ATOM     63  H2  UNL     1      14.869   4.775   7.796  1.00  0.00     0.167 HD
ENDBRANCH  54  57
ENDBRANCH  50  53
ENDBRANCH  43  46
ENDBRANCH  41  42
ENDBRANCH  40  41
ENDBRANCH  37  40
ENDBRANCH  33  36
ENDBRANCH  26  29
ENDBRANCH  22  25
ENDBRANCH  15  18
ENDBRANCH  13  14
ENDBRANCH  12  13
ENDBRANCH  11  12
ENDBRANCH   8  11
ENDBRANCH   1   7
BRANCH   3  64
HETATM   64  C29 UNL     1      -1.515   5.158  -8.462  1.00  0.00     0.273 C 
HETATM   65  N16 UNL     1      -2.170   3.943  -8.522  1.00  0.00    -0.320 N 
HETATM   66  H74 UNL     1      -2.048   3.297  -7.757  1.00  0.00     0.169 HD
HETATM   67  O7  UNL     1      -1.554   6.012  -9.343  1.00  0.00    -0.266 OA
BRANCH  65  68
HETATM   68  C30 UNL     1      -3.003   3.500  -9.530  1.00  0.00     0.053 A 
HETATM   69  C31 UNL     1      -3.370   4.127 -10.693  1.00  0.00     0.120 A 
HETATM   70  N17 UNL     1      -4.229   3.300 -11.376  1.00  0.00    -0.354 N 
HETATM   71  C32 UNL     1      -4.452   2.138 -10.658  1.00  0.00     0.104 A 
HETATM   72  C58 UNL     1      -4.826   3.631 -12.654  1.00  0.00     0.156 C 
HETATM   73  C33 UNL     1      -3.662   2.249  -9.518  1.00  0.00     0.066 A 
BRANCH  71  74
HETATM   74  C34 UNL     1      -5.338   1.055 -11.063  1.00  0.00     0.268 C 
HETATM   75  N18 UNL     1      -5.544   0.110 -10.084  1.00  0.00    -0.355 N 
HETATM   76  H75 UNL     1      -5.332   0.403  -9.135  1.00  0.00     0.162 HD
HETATM   77  O8  UNL     1      -5.878   0.984 -12.163  1.00  0.00    -0.266 OA
BRANCH  75  78
HETATM   78  C35 UNL     1      -6.575  -0.904 -10.165  1.00  0.00     0.132 C 
BRANCH  78  79
HETATM   79  C36 UNL     1      -6.263  -2.104  -9.273  1.00  0.00     0.123 C 
BRANCH  79  80
HETATM   80  C37 UNL     1      -6.008  -1.712  -7.825  1.00  0.00     0.223 C 
HETATM   81  N19 UNL     1      -5.785  -2.813  -7.017  1.00  0.00    -0.326 N 
HETATM   82  H76 UNL     1      -5.913  -3.739  -7.403  1.00  0.00     0.169 HD
HETATM   83  O9  UNL     1      -5.976  -0.535  -7.470  1.00  0.00    -0.273 OA
BRANCH  81  84
HETATM   84  C38 UNL     1      -5.364  -2.759  -5.700  1.00  0.00     0.052 A 
HETATM   85  C39 UNL     1      -5.019  -1.650  -4.966  1.00  0.00     0.120 A 
HETATM   86  N20 UNL     1      -4.593  -2.062  -3.728  1.00  0.00    -0.354 N 
HETATM   87  C40 UNL     1      -4.761  -3.427  -3.607  1.00  0.00     0.105 A 
HETATM   88  C57 UNL     1      -3.978  -1.173  -2.762  1.00  0.00     0.156 C 
HETATM   89  C41 UNL     1      -5.175  -3.878  -4.854  1.00  0.00     0.066 A 
BRANCH  87  90
HETATM   90  C42 UNL     1      -4.494  -4.244  -2.436  1.00  0.00     0.273 C 
HETATM   91  N21 UNL     1      -5.046  -3.722  -1.281  1.00  0.00    -0.320 N 
HETATM   92  H77 UNL     1      -5.632  -2.904  -1.368  1.00  0.00     0.169 HD
HETATM   93  O10 UNL     1      -3.868  -5.295  -2.515  1.00  0.00    -0.266 OA
BRANCH  91  94
HETATM   94  C43 UNL     1      -4.938  -4.258  -0.012  1.00  0.00     0.053 A 
HETATM   95  C44 UNL     1      -4.268  -5.387   0.384  1.00  0.00     0.120 A 
HETATM   96  N22 UNL     1      -4.414  -5.524   1.742  1.00  0.00    -0.354 N 
HETATM   97  C45 UNL     1      -5.195  -4.500   2.248  1.00  0.00     0.104 A 
HETATM   98  C56 UNL     1      -3.826  -6.604   2.509  1.00  0.00     0.156 C 
HETATM   99  C46 UNL     1      -5.520  -3.702   1.154  1.00  0.00     0.066 A 
BRANCH  97 100
HETATM  100  C47 UNL     1      -5.550  -4.348   3.652  1.00  0.00     0.268 C 
HETATM  101  N23 UNL     1      -6.439  -3.330   3.917  1.00  0.00    -0.355 N 
HETATM  102  H78 UNL     1      -6.979  -2.969   3.138  1.00  0.00     0.162 HD
HETATM  103  O11 UNL     1      -5.109  -5.067   4.545  1.00  0.00    -0.266 OA
BRANCH 101 104
HETATM  104  C48 UNL     1      -7.065  -3.172   5.216  1.00  0.00     0.132 C 
BRANCH 104 105
HETATM  105  C49 UNL     1      -7.441  -1.724   5.505  1.00  0.00     0.122 C 
BRANCH 105 106
HETATM  106  C50 UNL     1      -8.464  -1.182   4.526  1.00  0.00     0.219 C 
HETATM  107  N24 UNL     1      -9.043  -0.009   4.950  1.00  0.00    -0.361 N 
HETATM  108  H79 UNL     1      -8.566   0.529   5.675  1.00  0.00     0.162 HD
HETATM  109  O12 UNL     1      -8.722  -1.716   3.451  1.00  0.00    -0.274 OA
BRANCH 107 110
HETATM  110  C51 UNL     1      -9.903   0.766   4.083  1.00  0.00     0.124 C 
BRANCH 110 111
HETATM  111  C52 UNL     1     -10.614   1.890   4.835  1.00  0.00     0.050 C 
BRANCH 111 112
HETATM  112  C53 UNL     1      -9.655   2.950   5.404  1.00  0.00     0.273 C 
BRANCH 112 113
HETATM  113  N25 UNL     1      -8.730   2.433   6.436  1.00  0.00     0.080 N 
HETATM  114  C54 UNL     1      -9.430   2.200   7.707  1.00  0.00     0.309 C 
HETATM  115  C55 UNL     1      -7.645   3.398   6.656  1.00  0.00     0.309 C 
ENDBRANCH 112 113
ENDBRANCH 111 112
ENDBRANCH 110 111
ENDBRANCH 107 110
ENDBRANCH 105 106
ENDBRANCH 104 105
ENDBRANCH 101 104
ENDBRANCH  97 100
ENDBRANCH  91  94
ENDBRANCH  87  90
ENDBRANCH  81  84
ENDBRANCH  79  80
ENDBRANCH  78  79
ENDBRANCH  75  78
ENDBRANCH  71  74
ENDBRANCH  65  68
ENDBRANCH   3  64
TORSDOF 32
