REMARK  0 active torsions:
REMARK  status: ('A' for Active; 'I' for Inactive)
REMARK       I    between atoms: C2_2  and  C3_3 
REMARK       I    between atoms: C3_3  and  C5_5 
REMARK       I    between atoms: C5_5  and  C6_6 
REMARK       I    between atoms: C5_5  and  N3_84 
REMARK       I    between atoms: C6_6  and  C7_7 
REMARK       I    between atoms: C6_6  and  O5_71 
REMARK       I    between atoms: C7_7  and  C8_8 
REMARK       I    between atoms: C8_8  and  N1_82 
REMARK       I    between atoms: C12_12  and  C13_13 
REMARK       I    between atoms: C13_13  and  C14_14 
REMARK       I    between atoms: C13_13  and  O4_70 
REMARK       I    between atoms: C14_14  and  C16_16 
REMARK       I    between atoms: C16_16  and  N2_83 
REMARK       I    between atoms: C17_17  and  C19_19 
REMARK       I    between atoms: C17_17  and  N2_83 
REMARK       I    between atoms: C19_19  and  C20_20 
REMARK       I    between atoms: C19_19  and  O3_69 
REMARK       I    between atoms: C29_29  and  C30_30 
REMARK       I    between atoms: C29_29  and  N3_84 
REMARK       I    between atoms: C30_30  and  C31_31 
REMARK       I    between atoms: C30_30  and  N6_87 
REMARK       I    between atoms: C31_31  and  C32_32 
REMARK       I    between atoms: C32_32  and  C33_33 
REMARK       I    between atoms: C33_33  and  N4_85 
REMARK       I    between atoms: C34_34  and  N4_85 
REMARK       I    between atoms: C34_34  and  N5_86 
REMARK       I    between atoms: C35_35  and  C36_36 
REMARK       I    between atoms: C35_35  and  N6_87 
REMARK       I    between atoms: C36_36  and  C37_37 
REMARK       I    between atoms: C36_36  and  N7_88 
REMARK       I    between atoms: C41_41  and  O10_76 
REMARK       I    between atoms: C41_41  and  N7_88 
REMARK       I    between atoms: C42_42  and  C43_43 
REMARK       I    between atoms: C42_42  and  O10_76 
REMARK       I    between atoms: C46_46  and  N8_89 
REMARK       I    between atoms: C49_49  and  C50_50 
REMARK       I    between atoms: C49_49  and  N8_89 
REMARK       I    between atoms: C50_50  and  N9_90 
REMARK       I    between atoms: C52_52  and  C53_53 
REMARK       I    between atoms: C52_52  and  N9_90 
REMARK       I    between atoms: C53_53  and  C54_54 
REMARK       I    between atoms: C53_53  and  N10_91 
REMARK       I    between atoms: C57_57  and  C58_58 
REMARK       I    between atoms: C57_57  and  N10_91 
REMARK       I    between atoms: C58_58  and  C59_59 
REMARK       I    between atoms: C59_59  and  C60_60 
REMARK       I    between atoms: C60_60  and  C61_61 
REMARK       I    between atoms: C61_61  and  C62_62 
REMARK       I    between atoms: C62_62  and  N11_92 
REMARK       I    between atoms: C63_63  and  O15_81 
ROOT
HETATM    1  C1  UNL     1      -5.417   9.419  -0.807  1.00  0.00     0.005 C 
HETATM    2  C2  UNL     1      -4.818   8.170  -0.171  1.00  0.00     0.002 C 
HETATM    3  C3  UNL     1      -5.285   6.856  -0.833  1.00  0.00     0.006 C 
HETATM    4  C4  UNL     1      -6.802   6.673  -0.678  1.00  0.00     0.012 C 
HETATM    5  C5  UNL     1      -4.507   5.580  -0.336  1.00  0.00     0.119 C 
HETATM    6  C6  UNL     1      -3.028   5.562  -0.864  1.00  0.00     0.152 C 
HETATM    7  C7  UNL     1      -2.132   4.413  -0.385  1.00  0.00     0.137 C 
HETATM    8  C8  UNL     1      -2.717   3.021  -0.515  1.00  0.00     0.222 C 
HETATM    9  C9  UNL     1      -1.327   2.490  -2.544  1.00  0.00     0.126 C 
HETATM   10  C10 UNL     1      -1.542   1.318  -3.487  1.00  0.00     0.022 C 
HETATM   11  C11 UNL     1      -1.640   0.132  -2.537  1.00  0.00     0.029 C 
HETATM   12  C12 UNL     1      -2.427   0.697  -1.344  1.00  0.00     0.117 C 
HETATM   13  C13 UNL     1      -2.137   0.008   0.032  1.00  0.00     0.156 C 
HETATM   14  C14 UNL     1      -3.049  -1.194   0.365  1.00  0.00     0.105 C 
HETATM   15  C15 UNL     1      -4.521  -0.804   0.504  1.00  0.00     0.022 C 
HETATM   16  C16 UNL     1      -2.888  -2.312  -0.649  1.00  0.00     0.224 C 
HETATM   17  C17 UNL     1      -1.496  -4.256  -1.300  1.00  0.00     0.113 C 
HETATM   18  C18 UNL     1      -0.961  -5.459  -0.526  1.00  0.00     0.035 C 
HETATM   19  C19 UNL     1      -0.474  -3.683  -2.329  1.00  0.00     0.173 C 
HETATM   20  C20 UNL     1      -0.092  -4.585  -3.492  1.00  0.00    -0.028 A 
HETATM   21  C21 UNL     1       1.187  -4.497  -4.070  1.00  0.00     0.010 A 
HETATM   22  C22 UNL     1       1.551  -5.296  -5.156  1.00  0.00     0.001 A 
HETATM   23  C23 UNL     1       0.633  -6.182  -5.707  1.00  0.00     0.000 A 
HETATM   24  C24 UNL     1      -0.652  -6.259  -5.179  1.00  0.00     0.001 A 
HETATM   25  C25 UNL     1      -1.014  -5.461  -4.088  1.00  0.00     0.010 A 
HETATM   26  C26 UNL     1       0.120   0.599   0.560  1.00  0.00     0.202 C 
HETATM   27  C27 UNL     1      -2.109   6.391  -2.910  1.00  0.00     0.202 C 
HETATM   28  C28 UNL     1      -5.760   4.397   1.486  1.00  0.00     0.153 C 
HETATM   29  C29 UNL     1      -3.849   5.891   2.075  1.00  0.00     0.242 C 
HETATM   30  C30 UNL     1      -4.117   5.569   3.568  1.00  0.00     0.176 C 
HETATM   31  C31 UNL     1      -5.185   6.494   4.188  1.00  0.00     0.036 C 
HETATM   32  C32 UNL     1      -4.674   7.716   4.962  1.00  0.00     0.022 C 
HETATM   33  C33 UNL     1      -4.028   8.789   4.088  1.00  0.00     0.124 C 
HETATM   34  C34 UNL     1      -1.956   9.283   5.261  1.00  0.00     0.291 C 
HETATM   35  C35 UNL     1      -2.637   4.696   5.350  1.00  0.00     0.241 C 
HETATM   36  C36 UNL     1      -1.219   4.786   5.971  1.00  0.00     0.184 C 
HETATM   37  C37 UNL     1      -0.039   4.322   5.061  1.00  0.00     0.010 C 
HETATM   38  C38 UNL     1      -0.442   3.542   3.803  1.00  0.00     0.012 C 
HETATM   39  C39 UNL     1       0.822   5.521   4.639  1.00  0.00     0.012 C 
HETATM   40  C40 UNL     1      -1.480   5.079   8.437  1.00  0.00     0.156 C 
HETATM   41  C41 UNL     1      -1.326   2.820   7.560  1.00  0.00     0.363 C 
HETATM   42  C42 UNL     1      -1.379   0.669   6.593  1.00  0.00     0.219 C 
HETATM   43  C43 UNL     1      -0.505  -0.031   5.581  1.00  0.00    -0.034 A 
HETATM   44  C44 UNL     1       0.888   0.018   5.713  1.00  0.00     0.011 A 
HETATM   45  C45 UNL     1       1.710  -0.628   4.787  1.00  0.00     0.030 A 
HETATM   46  C46 UNL     1       1.160  -1.334   3.710  1.00  0.00     0.034 A 
HETATM   47  C47 UNL     1      -0.227  -1.385   3.579  1.00  0.00     0.030 A 
HETATM   48  C48 UNL     1      -1.054  -0.735   4.504  1.00  0.00     0.011 A 
HETATM   49  C49 UNL     1       1.792  -2.666   1.666  1.00  0.00     0.244 C 
HETATM   50  C50 UNL     1       3.092  -3.112   0.953  1.00  0.00     0.172 C 
HETATM   51  C51 UNL     1       3.726  -1.920   0.239  1.00  0.00     0.042 C 
HETATM   52  C52 UNL     1       3.855  -5.073  -0.327  1.00  0.00     0.241 C 
HETATM   53  C53 UNL     1       3.485  -6.103  -1.414  1.00  0.00     0.180 C 
HETATM   54  C54 UNL     1       2.598  -7.227  -0.835  1.00  0.00     0.009 C 
HETATM   55  C55 UNL     1       2.030  -8.105  -1.954  1.00  0.00     0.012 C 
HETATM   56  C56 UNL     1       3.316  -8.103   0.197  1.00  0.00     0.012 C 
HETATM   57  C57 UNL     1       5.290  -5.978  -3.088  1.00  0.00     0.218 C 
HETATM   58  C58 UNL     1       6.674  -6.509  -3.415  1.00  0.00     0.103 C 
HETATM   59  C59 UNL     1       7.205  -6.045  -4.770  1.00  0.00     0.009 C 
HETATM   60  C60 UNL     1       6.429  -6.558  -5.991  1.00  0.00     0.002 C 
HETATM   61  C61 UNL     1       6.268  -8.079  -6.101  1.00  0.00     0.020 C 
HETATM   62  C62 UNL     1       7.580  -8.862  -6.134  1.00  0.00     0.129 C 
HETATM   63  C63 UNL     1       8.176  -9.020  -8.586  1.00  0.00     0.266 A 
HETATM   64  C64 UNL     1       9.481  -8.783  -9.268  1.00  0.00     0.060 A 
HETATM   65  C65 UNL     1      10.415  -8.302  -8.445  1.00  0.00     0.096 A 
HETATM   66  C66 UNL     1       9.774  -8.200  -7.115  1.00  0.00     0.264 A 
HETATM   67  O1  UNL     1      -3.666   2.659   0.182  1.00  0.00    -0.273 OA
HETATM   68  O2  UNL     1      -3.580  -2.400  -1.659  1.00  0.00    -0.273 OA
HETATM   69  O3  UNL     1       0.711  -3.283  -1.609  1.00  0.00    -0.389 OA
HETATM   70  O4  UNL     1      -0.768  -0.435   0.151  1.00  0.00    -0.388 OA
HETATM   71  O5  UNL     1      -3.071   5.531  -2.310  1.00  0.00    -0.388 OA
HETATM   72  O6  UNL     1      -2.911   6.631   1.765  1.00  0.00    -0.271 OA
HETATM   73  O7  UNL     1      -1.487   8.164   5.112  1.00  0.00    -0.254 OA
HETATM   74  O8  UNL     1      -3.504   3.915   5.741  1.00  0.00    -0.271 OA
HETATM   75  O9  UNL     1      -1.514   2.333   8.671  1.00  0.00    -0.238 OA
HETATM   76  O10 UNL     1      -1.199   2.079   6.434  1.00  0.00    -0.299 OA
HETATM   77  O11 UNL     1       0.677  -2.901   1.201  1.00  0.00    -0.271 OA
HETATM   78  O12 UNL     1       4.953  -5.073   0.232  1.00  0.00    -0.271 OA
HETATM   79  O13 UNL     1       4.740  -5.080  -3.714  1.00  0.00    -0.274 OA
HETATM   80  O14 UNL     1      10.337  -7.895  -6.079  1.00  0.00    -0.267 OA
HETATM   81  O15 UNL     1       7.152  -8.237  -9.144  1.00  0.00    -0.372 OA
HETATM   82  N1  UNL     1      -2.070   2.130  -1.347  1.00  0.00    -0.345 N 
HETATM   83  N2  UNL     1      -1.885  -3.209  -0.348  1.00  0.00    -0.354 N 
HETATM   84  N3  UNL     1      -4.704   5.342   1.119  1.00  0.00    -0.347 N 
HETATM   85  N4  UNL     1      -3.201   9.689   4.867  1.00  0.00    -0.348 N 
HETATM   86  N5  UNL     1      -1.265  10.281   5.866  1.00  0.00    -0.254 NA
HETATM   87  N6  UNL     1      -2.859   5.562   4.302  1.00  0.00    -0.346 N 
HETATM   88  N7  UNL     1      -1.204   4.184   7.328  1.00  0.00    -0.319 N 
HETATM   89  N8  UNL     1       2.067  -1.943   2.821  1.00  0.00    -0.325 N 
HETATM   90  N9  UNL     1       2.848  -4.198   0.017  1.00  0.00    -0.346 N 
HETATM   91  N10 UNL     1       4.725  -6.612  -1.999  1.00  0.00    -0.347 N 
HETATM   92  N11 UNL     1       8.438  -8.540  -7.265  1.00  0.00    -0.316 N 
HETATM   93 BR1  UNL     1      12.170  -7.874  -8.751  1.00  0.00    -0.044 Br
HETATM   94 BR2  UNL     1       9.655  -9.203 -11.058  1.00  0.00    -0.049 Br
HETATM   95  H92 UNL     1       0.387  -2.660  -0.924  1.00  0.00     0.210 HD
HETATM   96  H93 UNL     1       7.274  -7.348  -8.773  1.00  0.00     0.212 HD
HETATM   97  H94 UNL     1      -1.213  -2.954   0.379  1.00  0.00     0.163 HD
HETATM   98  H95 UNL     1      -3.240  10.667   4.615  1.00  0.00     0.163 HD
HETATM   99  H96 UNL     1      -0.393   9.969   6.276  1.00  0.00     0.128 HD
HETATM  100  H97 UNL     1      -1.806  10.893   6.460  1.00  0.00     0.128 HD
HETATM  101  H98 UNL     1      -2.202   6.324   4.129  1.00  0.00     0.163 HD
HETATM  102  H99 UNL     1       3.044  -1.841   3.067  1.00  0.00     0.169 HD
HETATM  103  HA0 UNL     1       2.055  -4.088  -0.620  1.00  0.00     0.163 HD
HETATM  104  HA1 UNL     1       5.386  -6.986  -1.328  1.00  0.00     0.163 HD
ENDROOT
TORSDOF 40
