REMARK  0 active torsions:
REMARK  status: ('A' for Active; 'I' for Inactive)
REMARK       I    between atoms: C2_2  and  C3_3 
REMARK       I    between atoms: C3_3  and  C5_5 
REMARK       I    between atoms: C5_5  and  C42_42 
REMARK       I    between atoms: C5_5  and  N1_73 
REMARK       I    between atoms: C6_6  and  C7_7 
REMARK       I    between atoms: C6_6  and  N1_73 
REMARK       I    between atoms: C14_14  and  C15_15 
REMARK       I    between atoms: C14_14  and  N2_74 
REMARK       I    between atoms: C15_15  and  C16_16 
REMARK       I    between atoms: C15_15  and  N3_75 
REMARK       I    between atoms: C16_16  and  C17_17 
REMARK       I    between atoms: C17_17  and  C18_18 
REMARK       I    between atoms: C18_18  and  O4_91 
REMARK       I    between atoms: C19_19  and  C20_20 
REMARK       I    between atoms: C19_19  and  N3_75 
REMARK       I    between atoms: C20_20  and  C21_21 
REMARK       I    between atoms: C20_20  and  N4_76 
REMARK       I    between atoms: C21_21  and  C22_22 
REMARK       I    between atoms: C28_28  and  C29_29 
REMARK       I    between atoms: C28_28  and  N4_76 
REMARK       I    between atoms: C29_29  and  C30_30 
REMARK       I    between atoms: C29_29  and  N5_77 
REMARK       I    between atoms: C30_30  and  C31_31 
REMARK       I    between atoms: C31_31  and  O8_95 
REMARK       I    between atoms: C32_32  and  C33_33 
REMARK       I    between atoms: C32_32  and  N5_77 
REMARK       I    between atoms: C33_33  and  N6_78 
REMARK       I    between atoms: C34_34  and  C35_35 
REMARK       I    between atoms: C34_34  and  N6_78 
REMARK       I    between atoms: C38_38  and  N7_79 
REMARK       I    between atoms: C39_39  and  N7_79 
REMARK       I    between atoms: C39_39  and  N9_82 
REMARK       I    between atoms: C42_42  and  N10_83 
REMARK       I    between atoms: C46_46  and  C47_47 
REMARK       I    between atoms: C47_47  and  N11_84 
REMARK       I    between atoms: C48_48  and  C49_49 
REMARK       I    between atoms: C48_48  and  C52_52 
REMARK       I    between atoms: C48_48  and  N11_84 
REMARK       I    between atoms: C49_49  and  C50_50 
REMARK       I    between atoms: C50_50  and  C51_51 
REMARK       I    between atoms: C51_51  and  O14_101 
REMARK       I    between atoms: C52_52  and  N12_85 
REMARK       I    between atoms: C53_53  and  C54_54 
REMARK       I    between atoms: C53_53  and  C57_57 
REMARK       I    between atoms: C53_53  and  N12_85 
REMARK       I    between atoms: C54_54  and  C55_55 
REMARK       I    between atoms: C55_55  and  C56_56 
REMARK       I    between atoms: C56_56  and  O17_104 
REMARK       I    between atoms: C57_57  and  N13_86 
REMARK       I    between atoms: C58_58  and  C59_59 
REMARK       I    between atoms: C58_58  and  C66_66 
REMARK       I    between atoms: C58_58  and  N13_86 
REMARK       I    between atoms: C59_59  and  C60_60 
REMARK       I    between atoms: C63_63  and  O19_106 
REMARK       I    between atoms: C66_66  and  N14_87 
REMARK       I    between atoms: C67_67  and  C68_68 
REMARK       I    between atoms: C67_67  and  C72_72 
REMARK       I    between atoms: C67_67  and  N14_87 
REMARK       I    between atoms: C68_68  and  C69_69 
REMARK       I    between atoms: C72_72  and  O22_109 
ROOT
HETATM    1  C1  UNL     1      -2.492  -2.097   2.905  1.00  0.00     0.005 C 
HETATM    2  C2  UNL     1      -2.869  -1.209   1.729  1.00  0.00     0.002 C 
HETATM    3  C3  UNL     1      -2.179  -1.495   0.375  1.00  0.00     0.013 C 
HETATM    4  C4  UNL     1      -2.317  -2.962  -0.045  1.00  0.00     0.012 C 
HETATM    5  C5  UNL     1      -0.712  -1.012   0.250  1.00  0.00     0.180 C 
HETATM    6  C6  UNL     1       1.092  -2.577   0.951  1.00  0.00     0.241 C 
HETATM    7  C7  UNL     1       2.052  -2.953   2.114  1.00  0.00     0.183 C 
HETATM    8  C8  UNL     1       1.302  -3.694   3.251  1.00  0.00     0.018 C 
HETATM    9  C9  UNL     1       2.340  -4.123   4.311  1.00  0.00     0.009 C 
HETATM   10  C10 UNL     1       3.369  -5.078   3.677  1.00  0.00     0.026 C 
HETATM   11  C11 UNL     1       3.106  -5.193   2.163  1.00  0.00     0.088 C 
HETATM   12  C12 UNL     1       1.709  -5.797   1.940  1.00  0.00     0.026 C 
HETATM   13  C13 UNL     1       0.655  -4.979   2.698  1.00  0.00     0.009 C 
HETATM   14  C14 UNL     1       4.155  -3.244   0.875  1.00  0.00     0.243 C 
HETATM   15  C15 UNL     1       5.184  -4.174   0.181  1.00  0.00     0.177 C 
HETATM   16  C16 UNL     1       6.323  -4.582   1.133  1.00  0.00     0.045 C 
HETATM   17  C17 UNL     1       7.378  -5.486   0.491  1.00  0.00     0.112 C 
HETATM   18  C18 UNL     1       6.831  -6.845   0.151  1.00  0.00     0.139 C 
HETATM   19  C19 UNL     1       6.561  -2.546  -1.168  1.00  0.00     0.241 C 
HETATM   20  C20 UNL     1       6.564  -1.796  -2.515  1.00  0.00     0.180 C 
HETATM   21  C21 UNL     1       7.956  -1.765  -3.174  1.00  0.00     0.073 C 
HETATM   22  C22 UNL     1       8.866  -0.580  -2.930  1.00  0.00    -0.056 A 
HETATM   23  C23 UNL     1       9.424  -0.320  -1.673  1.00  0.00     0.007 A 
HETATM   24  C24 UNL     1      10.315   0.742  -1.492  1.00  0.00     0.001 A 
HETATM   25  C25 UNL     1      10.676   1.547  -2.569  1.00  0.00     0.000 A 
HETATM   26  C26 UNL     1      10.132   1.301  -3.826  1.00  0.00     0.001 A 
HETATM   27  C27 UNL     1       9.229   0.249  -4.004  1.00  0.00     0.007 A 
HETATM   28  C28 UNL     1       5.169   0.108  -3.272  1.00  0.00     0.241 C 
HETATM   29  C29 UNL     1       4.555   1.473  -2.884  1.00  0.00     0.186 C 
HETATM   30  C30 UNL     1       5.470   2.607  -3.347  1.00  0.00     0.144 C 
HETATM   31  C31 UNL     1       6.747   2.645  -2.558  1.00  0.00     0.141 C 
HETATM   32  C32 UNL     1       3.109   1.068  -0.889  1.00  0.00     0.236 C 
HETATM   33  C33 UNL     1       3.101   1.067   0.645  1.00  0.00     0.225 C 
HETATM   34  C34 UNL     1       5.311   1.659   1.607  1.00  0.00     0.252 C 
HETATM   35  C35 UNL     1       6.683   1.183   1.941  1.00  0.00     0.032 A 
HETATM   36  C36 UNL     1       6.964  -0.139   2.287  1.00  0.00     0.019 A 
HETATM   37  C37 UNL     1       8.288  -0.537   2.515  1.00  0.00     0.030 A 
HETATM   38  C38 UNL     1       9.358   0.370   2.429  1.00  0.00     0.034 A 
HETATM   39  C39 UNL     1      11.858   0.523   2.528  1.00  0.00     0.148 C 
HETATM   40  C40 UNL     1       9.056   1.692   2.094  1.00  0.00     0.030 A 
HETATM   41  C41 UNL     1       7.736   2.099   1.865  1.00  0.00     0.019 A 
HETATM   42  C42 UNL     1      -0.597   0.527   0.381  1.00  0.00     0.243 C 
HETATM   43  C43 UNL     1      -1.188   0.838  -2.052  1.00  0.00     0.127 C 
HETATM   44  C44 UNL     1      -1.417   2.096  -2.873  1.00  0.00     0.022 C 
HETATM   45  C45 UNL     1      -0.504   3.107  -2.192  1.00  0.00     0.037 C 
HETATM   46  C46 UNL     1      -0.651   2.759  -0.709  1.00  0.00     0.179 C 
HETATM   47  C47 UNL     1      -1.775   3.568  -0.022  1.00  0.00     0.241 C 
HETATM   48  C48 UNL     1      -2.991   3.870   2.140  1.00  0.00     0.177 C 
HETATM   49  C49 UNL     1      -2.766   5.384   2.300  1.00  0.00     0.045 C 
HETATM   50  C50 UNL     1      -3.195   5.924   3.671  1.00  0.00     0.112 C 
HETATM   51  C51 UNL     1      -4.561   5.460   4.091  1.00  0.00     0.139 C 
HETATM   52  C52 UNL     1      -4.411   3.520   1.627  1.00  0.00     0.241 C 
HETATM   53  C53 UNL     1      -5.851   1.567   0.990  1.00  0.00     0.177 C 
HETATM   54  C54 UNL     1      -7.169   2.293   1.310  1.00  0.00     0.045 C 
HETATM   55  C55 UNL     1      -7.387   2.566   2.799  1.00  0.00     0.112 C 
HETATM   56  C56 UNL     1      -8.439   3.624   2.973  1.00  0.00     0.139 C 
HETATM   57  C57 UNL     1      -5.566   1.368  -0.522  1.00  0.00     0.241 C 
HETATM   58  C58 UNL     1      -6.527   0.838  -2.751  1.00  0.00     0.180 C 
HETATM   59  C59 UNL     1      -6.145  -0.639  -2.972  1.00  0.00     0.073 C 
HETATM   60  C60 UNL     1      -6.966  -1.614  -2.150  1.00  0.00    -0.056 A 
HETATM   61  C61 UNL     1      -6.455  -2.127  -0.948  1.00  0.00     0.010 A 
HETATM   62  C62 UNL     1      -7.218  -2.992  -0.161  1.00  0.00     0.037 A 
HETATM   63  C63 UNL     1      -8.497  -3.344  -0.578  1.00  0.00     0.065 A 
HETATM   64  C64 UNL     1      -9.017  -2.852  -1.768  1.00  0.00     0.037 A 
HETATM   65  C65 UNL     1      -8.252  -1.992  -2.557  1.00  0.00     0.010 A 
HETATM   66  C66 UNL     1      -7.821   1.220  -3.500  1.00  0.00     0.241 C 
HETATM   67  C67 UNL     1      -9.774   2.770  -3.440  1.00  0.00     0.182 C 
HETATM   68  C68 UNL     1     -10.942   1.803  -3.172  1.00  0.00     0.040 C 
HETATM   69  C69 UNL     1     -11.014   1.165  -1.765  1.00  0.00    -0.020 C 
HETATM   70  C70 UNL     1     -12.174   0.165  -1.718  1.00  0.00     0.009 C 
HETATM   71  C71 UNL     1     -11.172   2.186  -0.640  1.00  0.00     0.009 C 
HETATM   72  C72 UNL     1     -10.017   4.171  -2.881  1.00  0.00     0.163 C 
HETATM   73  N1  UNL     1       0.174  -1.596   1.263  1.00  0.00    -0.346 N 
HETATM   74  N2  UNL     1       3.138  -3.823   1.620  1.00  0.00    -0.332 N 
HETATM   75  N3  UNL     1       5.598  -3.538  -1.081  1.00  0.00    -0.346 N 
HETATM   76  N4  UNL     1       5.941  -0.498  -2.309  1.00  0.00    -0.346 N 
HETATM   77  N5  UNL     1       4.264   1.555  -1.454  1.00  0.00    -0.346 N 
HETATM   78  N6  UNL     1       4.404   0.712   1.189  1.00  0.00    -0.348 N 
HETATM   79  N7  UNL     1      10.667  -0.132   2.572  1.00  0.00    -0.333 N 
HETATM   80  N8  UNL     1      12.074   1.773   2.333  1.00  0.00    -0.376 N 
ATOM     81  H8  UNL     1      11.349   2.467   2.153  1.00  0.00     0.158 HD
HETATM   82  N9  UNL     1      12.894  -0.337   2.706  1.00  0.00    -0.274 NA
HETATM   83  N10 UNL     1      -0.928   1.314  -0.698  1.00  0.00    -0.337 N 
HETATM   84  N11 UNL     1      -2.011   3.201   1.289  1.00  0.00    -0.346 N 
HETATM   85  N12 UNL     1      -4.640   2.155   1.565  1.00  0.00    -0.346 N 
HETATM   86  N13 UNL     1      -6.662   1.186  -1.329  1.00  0.00    -0.346 N 
HETATM   87  N14 UNL     1      -8.508   2.264  -2.920  1.00  0.00    -0.345 N 
HETATM   88  O1  UNL     1       1.110  -3.142  -0.142  1.00  0.00    -0.271 OA
HETATM   89  O2  UNL     1       4.221  -2.016   0.747  1.00  0.00    -0.271 OA
HETATM   90  O3  UNL     1       5.757  -7.309   0.493  1.00  0.00    -0.650 OA
HETATM   91  O4  UNL     1       7.692  -7.567  -0.590  1.00  0.00    -0.776 OA
HETATM   92  O5  UNL     1       7.298  -2.248  -0.234  1.00  0.00    -0.271 OA
HETATM   93  O6  UNL     1       5.064  -0.354  -4.408  1.00  0.00    -0.271 OA
HETATM   94  O7  UNL     1       6.947   2.095  -1.487  1.00  0.00    -0.650 OA
HETATM   95  O8  UNL     1       7.693   3.401  -3.140  1.00  0.00    -0.776 OA
HETATM   96  O9  UNL     1       2.122   0.764  -1.554  1.00  0.00    -0.272 OA
HETATM   97  O10 UNL     1       5.044   2.856   1.630  1.00  0.00    -0.268 OA
HETATM   98  O11 UNL     1      -0.265   1.034   1.462  1.00  0.00    -0.271 OA
HETATM   99  O12 UNL     1      -2.358   4.507  -0.555  1.00  0.00    -0.271 OA
HETATM  100  O13 UNL     1      -4.787   4.424   4.699  1.00  0.00    -0.650 OA
HETATM  101  O14 UNL     1      -5.552   6.252   3.650  1.00  0.00    -0.776 OA
HETATM  102  O15 UNL     1      -5.285   4.355   1.423  1.00  0.00    -0.271 OA
HETATM  103  O16 UNL     1      -9.618   3.508   2.681  1.00  0.00    -0.650 OA
HETATM  104  O17 UNL     1      -7.969   4.784   3.481  1.00  0.00    -0.776 OA
HETATM  105  O18 UNL     1      -4.418   1.265  -0.958  1.00  0.00    -0.271 OA
HETATM  106  O19 UNL     1      -9.280  -4.182   0.159  1.00  0.00    -0.361 OA
HETATM  107  O20 UNL     1      -8.171   0.709  -4.560  1.00  0.00    -0.271 OA
HETATM  108  O21 UNL     1      -9.300   4.757  -2.082  1.00  0.00    -0.648 OA
HETATM  109  O22 UNL     1     -11.118   4.770  -3.374  1.00  0.00    -0.775 OA
HETATM  110  H78 UNL     1       0.353  -1.004   2.069  1.00  0.00     0.163 HD
HETATM  111  H79 UNL     1       4.842  -3.449  -1.753  1.00  0.00     0.163 HD
HETATM  112  H80 UNL     1       6.272   0.063  -1.526  1.00  0.00     0.163 HD
HETATM  113  H81 UNL     1       5.045   1.716  -0.821  1.00  0.00     0.163 HD
HETATM  114  H82 UNL     1       4.684  -0.257   1.034  1.00  0.00     0.163 HD
HETATM  115  H83 UNL     1      10.697  -1.020   3.051  1.00  0.00     0.168 HD
HETATM  116  H84 UNL     1      13.071   1.975   2.383  1.00  0.00     0.158 HD
HETATM  117  H85 UNL     1      12.772  -1.213   2.210  1.00  0.00     0.127 HD
HETATM  118  H86 UNL     1      13.802   0.055   2.490  1.00  0.00     0.127 HD
HETATM  119  H87 UNL     1      -1.367   2.527   1.703  1.00  0.00     0.163 HD
HETATM  120  H88 UNL     1      -3.787   1.644   1.356  1.00  0.00     0.163 HD
HETATM  121  H89 UNL     1      -7.542   0.923  -0.903  1.00  0.00     0.163 HD
HETATM  122  H90 UNL     1      -8.046   2.800  -2.187  1.00  0.00     0.163 HD
HETATM  123  H91 UNL     1       7.238  -8.423  -0.738  1.00  0.00     0.167 HD
HETATM  124  H92 UNL     1       8.476   3.280  -2.559  1.00  0.00     0.167 HD
HETATM  125  H93 UNL     1      -6.362   5.690   3.706  1.00  0.00     0.167 HD
HETATM  126  H94 UNL     1      -8.773   5.351   3.480  1.00  0.00     0.167 HD
HETATM  127  H95 UNL     1      -8.769  -4.495   0.923  1.00  0.00     0.217 HD
HETATM  128  H96 UNL     1     -11.125   5.652  -2.945  1.00  0.00     0.167 HD
ENDROOT
TORSDOF 47
