REMARK  22 active torsions:
REMARK  status: ('A' for Active; 'I' for Inactive)
REMARK    1  A    between atoms: C2_2  and  C3_3 
REMARK    2  A    between atoms: C2_2  and  N10_58 
REMARK       I    between atoms: C3_3  and  N1_45 
REMARK    3  A    between atoms: C4_4  and  N1_45 
REMARK    4  A    between atoms: C6_6  and  C31_31 
REMARK    5  A    between atoms: C7_7  and  C10_10 
REMARK       I    between atoms: C10_10  and  N2_46 
REMARK    6  A    between atoms: C11_11  and  C12_12 
REMARK    7  A    between atoms: C11_11  and  N2_46 
REMARK    8  A    between atoms: C12_12  and  C13_13 
REMARK    9  A    between atoms: C13_13  and  C14_14 
REMARK   10  A    between atoms: C14_14  and  C15_15 
REMARK   11  A    between atoms: C14_14  and  N3_47 
REMARK   12  A    between atoms: C15_15  and  O4_40 
REMARK   13  A    between atoms: C16_16  and  C17_17 
REMARK       I    between atoms: C16_16  and  N3_47 
REMARK   14  A    between atoms: C20_20  and  C23_23 
REMARK   15  A    between atoms: C23_23  and  C24_24 
REMARK   16  A    between atoms: C24_24  and  C25_25 
REMARK   17  A    between atoms: C29_29  and  N9_57 
REMARK   18  A    between atoms: C30_30  and  N8_56 
REMARK   19  A    between atoms: C31_31  and  O7_43 
REMARK   20  A    between atoms: C32_32  and  C33_33 
REMARK       I    between atoms: C32_32  and  N10_58 
REMARK   21  A    between atoms: C33_33  and  C34_34 
REMARK   22  A    between atoms: C33_33  and  N11_59 
ROOT
HETATM    1  C14 UNL     1       2.238   2.123  -1.062  1.00  0.00     0.182 C 
ENDROOT
BRANCH   1   2
HETATM    2  C13 UNL     1       1.396   1.975  -2.335  1.00  0.00     0.038 C 
BRANCH   2   3
HETATM    3  C12 UNL     1       0.650   3.263  -2.719  1.00  0.00     0.022 C 
BRANCH   3   4
HETATM    4  C11 UNL     1      -0.722   2.973  -3.322  1.00  0.00     0.123 C 
BRANCH   4   5
HETATM    5  N2  UNL     1      -1.670   2.545  -2.305  1.00  0.00    -0.357 N 
HETATM    6  C10 UNL     1      -2.648   1.614  -2.592  1.00  0.00     0.252 C 
HETATM    7  O2  UNL     1      -2.704   0.993  -3.648  1.00  0.00    -0.268 OA
HETATM    8  H35 UNL     1      -1.806   3.168  -1.515  1.00  0.00     0.162 HD
BRANCH   6   9
HETATM    9  C7  UNL     1      -3.728   1.431  -1.589  1.00  0.00     0.049 A 
HETATM   10  C6  UNL     1      -3.522   1.376  -0.209  1.00  0.00     0.055 A 
HETATM   11  C5  UNL     1      -4.596   1.221   0.682  1.00  0.00     0.049 A 
HETATM   12  C4  UNL     1      -5.896   1.094   0.192  1.00  0.00     0.035 A 
HETATM   13  C9  UNL     1      -6.106   1.122  -1.193  1.00  0.00     0.030 A 
HETATM   14  C8  UNL     1      -5.033   1.285  -2.076  1.00  0.00     0.020 A 
BRANCH  10  15
HETATM   15  C31 UNL     1      -2.182   1.455   0.369  1.00  0.00     0.177 C 
HETATM   16  O6  UNL     1      -1.664   2.467   0.805  1.00  0.00    -0.646 OA
BRANCH  15  17
HETATM   17  O7  UNL     1      -1.592   0.252   0.325  1.00  0.00    -0.773 OA
HETATM   18  H33 UNL     1      -0.666   0.366   0.658  1.00  0.00     0.167 HD
ENDBRANCH  15  17
ENDBRANCH  10  15
BRANCH  12  19
HETATM   19  N1  UNL     1      -7.032   0.928   1.004  1.00  0.00    -0.325 N 
HETATM   20  C3  UNL     1      -7.090   0.819   2.386  1.00  0.00     0.244 C 
HETATM   21  O1  UNL     1      -6.131   0.862   3.151  1.00  0.00    -0.271 OA
HETATM   22  H34 UNL     1      -7.927   0.831   0.517  1.00  0.00     0.169 HD
BRANCH  20  23
HETATM   23  C2  UNL     1      -8.539   0.611   2.896  1.00  0.00     0.172 C 
HETATM   24  C1  UNL     1      -8.623   0.765   4.410  1.00  0.00     0.042 C 
BRANCH  23  25
HETATM   25  N10 UNL     1      -9.021  -0.715   2.504  1.00  0.00    -0.346 N 
HETATM   26  C32 UNL     1      -9.482  -0.965   1.225  1.00  0.00     0.251 C 
HETATM   27  O8  UNL     1      -9.564  -0.075   0.381  1.00  0.00    -0.271 OA
HETATM   28  H41 UNL     1      -8.696  -1.508   3.046  1.00  0.00     0.163 HD
BRANCH  26  29
HETATM   29  C33 UNL     1      -9.905  -2.439   0.998  1.00  0.00     0.312 C 
BRANCH  29  30
HETATM   30  C34 UNL     1     -10.066  -2.781  -0.502  1.00  0.00     0.020 C 
HETATM   31  C35 UNL     1     -10.651  -4.184  -0.715  1.00  0.00     0.012 C 
HETATM   32  C36 UNL     1      -8.716  -2.701  -1.230  1.00  0.00     0.012 C 
ENDBRANCH  29  30
BRANCH  29  33
HETATM   33  N11 UNL     1     -11.164  -2.652   1.743  1.00  0.00     0.092 N 
HETATM   34  H42 UNL     1     -11.069  -2.276   2.687  1.00  0.00     0.313 HD
HETATM   35  H43 UNL     1     -11.902  -2.101   1.301  1.00  0.00     0.313 HD
ENDBRANCH  29  33
ENDBRANCH  26  29
ENDBRANCH  23  25
ENDBRANCH  20  23
ENDBRANCH  12  19
ENDBRANCH   6   9
ENDBRANCH   4   5
ENDBRANCH   3   4
ENDBRANCH   2   3
ENDBRANCH   1   2
BRANCH   1  36
HETATM   36  C15 UNL     1       1.301   2.048   0.146  1.00  0.00     0.163 C 
HETATM   37  O3  UNL     1       0.892   1.014   0.666  1.00  0.00    -0.648 OA
BRANCH  36  38
HETATM   38  O4  UNL     1       0.818   3.252   0.514  1.00  0.00    -0.775 OA
HETATM   39  H32 UNL     1       0.019   3.067   1.068  1.00  0.00     0.167 HD
ENDBRANCH  36  38
ENDBRANCH   1  36
BRANCH   1  40
HETATM   40  N3  UNL     1       3.182   1.008  -0.960  1.00  0.00    -0.343 N 
HETATM   41  C16 UNL     1       4.359   1.160  -0.256  1.00  0.00     0.252 C 
HETATM   42  O5  UNL     1       4.740   2.234   0.192  1.00  0.00    -0.268 OA
HETATM   43  H36 UNL     1       2.773   0.081  -0.964  1.00  0.00     0.163 HD
BRANCH  41  44
HETATM   44  C17 UNL     1       5.152  -0.079  -0.019  1.00  0.00     0.032 A 
HETATM   45  C18 UNL     1       5.085  -1.177  -0.884  1.00  0.00     0.017 A 
HETATM   46  C19 UNL     1       5.851  -2.318  -0.626  1.00  0.00     0.008 A 
HETATM   47  C20 UNL     1       6.694  -2.373   0.493  1.00  0.00    -0.058 A 
HETATM   48  C21 UNL     1       6.767  -1.264   1.346  1.00  0.00     0.008 A 
HETATM   49  C22 UNL     1       6.005  -0.123   1.089  1.00  0.00     0.017 A 
BRANCH  47  50
HETATM   50  C23 UNL     1       7.541  -3.598   0.752  1.00  0.00     0.044 C 
BRANCH  50  51
HETATM   51  C24 UNL     1       8.800  -3.668  -0.120  1.00  0.00     0.063 C 
BRANCH  51  52
HETATM   52  C25 UNL     1       9.819  -2.620   0.234  1.00  0.00     0.025 A 
HETATM   53  C26 UNL     1      10.686  -2.784   1.299  1.00  0.00     0.114 A 
HETATM   54  N4  UNL     1      11.591  -1.845   1.662  1.00  0.00    -0.348 N 
HETATM   55  C27 UNL     1      11.631  -0.705   0.961  1.00  0.00     0.138 A 
ATOM     56  H4  UNL     1      12.224  -2.001   2.447  1.00  0.00     0.167 HD
HETATM   57  C28 UNL     1      10.751  -0.535  -0.114  1.00  0.00     0.116 A 
HETATM   58  N7  UNL     1      12.517   0.215   1.327  1.00  0.00    -0.317 N 
HETATM   59  C29 UNL     1      10.885   0.686  -0.765  1.00  0.00     0.111 A 
HETATM   60  N5  UNL     1       9.846  -1.486  -0.497  1.00  0.00    -0.353 N 
HETATM   61  N6  UNL     1      11.768   1.627  -0.403  1.00  0.00    -0.322 N 
HETATM   62  C30 UNL     1      12.540   1.353   0.643  1.00  0.00     0.157 A 
ATOM     63  H6  UNL     1      11.844   2.511  -0.906  1.00  0.00     0.169 HD
ATOM     64  H5  UNL     1       9.224  -1.346  -1.293  1.00  0.00     0.166 HD
ATOM     65  H7  UNL     1      13.156   0.053   2.105  1.00  0.00     0.170 HD
BRANCH  59  66
HETATM   66  N9  UNL     1      10.026   0.996  -1.854  1.00  0.00    -0.287 NA
HETATM   67  H39 UNL     1      10.063   0.211  -2.503  1.00  0.00     0.125 HD
HETATM   68  H40 UNL     1       9.071   0.989  -1.495  1.00  0.00     0.125 HD
ENDBRANCH  59  66
BRANCH  62  69
HETATM   69  N8  UNL     1      13.459   2.307   1.020  1.00  0.00    -0.274 NA
HETATM   70  H37 UNL     1      13.660   2.924   0.245  1.00  0.00     0.127 HD
HETATM   71  H38 UNL     1      14.238   1.884   1.503  1.00  0.00     0.127 HD
ENDBRANCH  62  69
ENDBRANCH  51  52
ENDBRANCH  50  51
ENDBRANCH  47  50
ENDBRANCH  41  44
ENDBRANCH   1  40
TORSDOF 22
