REMARK  0 active torsions:
REMARK  status: ('A' for Active; 'I' for Inactive)
REMARK       I    between atoms: C2_2  and  C3_3 
REMARK       I    between atoms: C2_2  and  C5_5 
REMARK       I    between atoms: C3_3  and  C4_4 
REMARK       I    between atoms: C3_3  and  O2_43 
REMARK       I    between atoms: C4_4  and  O1_42 
REMARK       I    between atoms: C5_5  and  C6_6 
REMARK       I    between atoms: C5_5  and  O12_53 
REMARK       I    between atoms: C6_6  and  C7_7 
REMARK       I    between atoms: C6_6  and  O11_52 
REMARK       I    between atoms: C7_7  and  C8_8 
REMARK       I    between atoms: C7_7  and  O10_51 
REMARK       I    between atoms: C8_8  and  N1_54 
REMARK       I    between atoms: C9_9  and  C10_10 
REMARK       I    between atoms: C9_9  and  N1_54 
REMARK       I    between atoms: C10_10  and  C11_11 
REMARK       I    between atoms: C11_11  and  N2_55 
REMARK       I    between atoms: C12_12  and  C13_13 
REMARK       I    between atoms: C12_12  and  C35_35 
REMARK       I    between atoms: C12_12  and  N2_55 
REMARK       I    between atoms: C13_13  and  C14_14 
REMARK       I    between atoms: C14_14  and  C15_15 
REMARK       I    between atoms: C22_22  and  C25_25 
REMARK       I    between atoms: C25_25  and  C26_26 
REMARK       I    between atoms: C26_26  and  C27_27 
REMARK       I    between atoms: C27_27  and  C28_28 
REMARK       I    between atoms: C28_28  and  N3_56 
REMARK       I    between atoms: C29_29  and  N4_58 
REMARK       I    between atoms: C29_29  and  N5_59 
REMARK       I    between atoms: C30_30  and  C31_31 
REMARK       I    between atoms: C30_30  and  N5_59 
REMARK       I    between atoms: C32_32  and  N9_65 
REMARK       I    between atoms: C33_33  and  N8_64 
REMARK       I    between atoms: C35_35  and  N10_66 
REMARK       I    between atoms: C36_36  and  C37_37 
REMARK       I    between atoms: C36_36  and  N1_54 
REMARK       I    between atoms: C37_37  and  C38_38 
REMARK       I    between atoms: C37_37  and  O9_50 
REMARK       I    between atoms: C38_38  and  C39_39 
REMARK       I    between atoms: C38_38  and  O8_49 
REMARK       I    between atoms: C39_39  and  C40_40 
REMARK       I    between atoms: C39_39  and  O7_48 
REMARK       I    between atoms: C40_40  and  C41_41 
REMARK       I    between atoms: C40_40  and  O6_47 
REMARK       I    between atoms: C41_41  and  O5_46 
ROOT
HETATM    1  C1  UNL     1     -10.122   2.202  -2.184  1.00  0.00     0.015 C 
HETATM    2  C2  UNL     1      -9.028   1.364  -2.858  1.00  0.00     0.044 C 
HETATM    3  C3  UNL     1      -9.580   0.689  -4.132  1.00  0.00     0.148 C 
HETATM    4  C4  UNL     1      -9.837   1.599  -5.340  1.00  0.00     0.196 C 
HETATM    5  C5  UNL     1      -7.739   2.175  -3.120  1.00  0.00     0.155 C 
HETATM    6  C6  UNL     1      -6.977   2.634  -1.852  1.00  0.00     0.177 C 
HETATM    7  C7  UNL     1      -6.405   1.491  -0.998  1.00  0.00     0.177 C 
HETATM    8  C8  UNL     1      -5.776   2.023   0.311  1.00  0.00     0.306 C 
HETATM    9  C9  UNL     1      -4.121   1.392   1.982  1.00  0.00     0.274 C 
HETATM   10  C10 UNL     1      -2.803   1.440   1.193  1.00  0.00     0.060 C 
HETATM   11  C11 UNL     1      -1.651   1.907   2.086  1.00  0.00     0.272 C 
HETATM   12  C12 UNL     1       0.294   0.881   0.850  1.00  0.00     0.311 C 
HETATM   13  C13 UNL     1       0.333  -0.305   1.832  1.00  0.00     0.050 C 
HETATM   14  C14 UNL     1       1.274  -1.453   1.428  1.00  0.00     0.042 C 
HETATM   15  C15 UNL     1       2.724  -1.045   1.283  1.00  0.00    -0.051 A 
HETATM   16  C16 UNL     1       3.570  -0.774   2.375  1.00  0.00    -0.045 A 
HETATM   17  C17 UNL     1       3.119  -0.876   3.816  1.00  0.00     0.040 C 
HETATM   18  C18 UNL     1       4.172  -1.572   4.678  1.00  0.00     0.005 C 
HETATM   19  C19 UNL     1       5.598  -1.058   4.459  1.00  0.00     0.005 C 
HETATM   20  C20 UNL     1       5.711   0.022   3.385  1.00  0.00     0.040 C 
HETATM   21  C21 UNL     1       4.907  -0.339   2.154  1.00  0.00    -0.045 A 
HETATM   22  C22 UNL     1       5.404  -0.200   0.843  1.00  0.00    -0.051 A 
HETATM   23  C23 UNL     1       4.551  -0.493  -0.229  1.00  0.00     0.008 A 
HETATM   24  C24 UNL     1       3.237  -0.909  -0.015  1.00  0.00     0.008 A 
HETATM   25  C25 UNL     1       6.818   0.243   0.533  1.00  0.00     0.039 C 
HETATM   26  C26 UNL     1       7.871  -0.857   0.718  1.00  0.00     0.006 C 
HETATM   27  C27 UNL     1       7.779  -2.037  -0.260  1.00  0.00     0.020 C 
HETATM   28  C28 UNL     1       7.921  -1.670  -1.738  1.00  0.00     0.122 C 
HETATM   29  C29 UNL     1       9.585  -0.705  -3.124  1.00  0.00     0.153 C 
HETATM   30  C30 UNL     1      11.710   0.303  -2.321  1.00  0.00     0.277 C 
HETATM   31  C31 UNL     1      13.081   0.532  -2.875  1.00  0.00     0.141 A 
HETATM   32  C32 UNL     1      14.170   0.846  -2.038  1.00  0.00     0.112 A 
HETATM   33  C33 UNL     1      15.531   0.964  -3.914  1.00  0.00     0.118 A 
HETATM   34  C34 UNL     1      14.417   0.655  -4.715  1.00  0.00     0.142 A 
HETATM   35  C35 UNL     1      -0.314   0.530  -0.526  1.00  0.00     0.248 C 
HETATM   36  C36 UNL     1      -6.322   0.332   1.975  1.00  0.00     0.306 C 
HETATM   37  C37 UNL     1      -5.989  -1.093   2.474  1.00  0.00     0.177 C 
HETATM   38  C38 UNL     1      -7.099  -1.764   3.309  1.00  0.00     0.179 C 
HETATM   39  C39 UNL     1      -8.448  -1.918   2.569  1.00  0.00     0.180 C 
HETATM   40  C40 UNL     1      -9.424  -2.913   3.242  1.00  0.00     0.173 C 
HETATM   41  C41 UNL     1      -9.091  -4.383   2.959  1.00  0.00     0.198 C 
HETATM   42  O1  UNL     1     -10.449   0.811  -6.373  1.00  0.00    -0.398 OA
HETATM   43  O2  UNL     1      -8.670  -0.348  -4.532  1.00  0.00    -0.393 OA
HETATM   44  O3  UNL     1      11.477   0.535  -1.141  1.00  0.00    -0.265 OA
HETATM   45  O4  UNL     1      -0.639  -0.592  -0.896  1.00  0.00    -0.271 OA
HETATM   46  O5  UNL     1      -8.046  -4.808   3.833  1.00  0.00    -0.398 OA
HETATM   47  O6  UNL     1      -9.443  -2.694   4.669  1.00  0.00    -0.391 OA
HETATM   48  O7  UNL     1      -9.110  -0.633   2.553  1.00  0.00    -0.390 OA
HETATM   49  O8  UNL     1      -7.298  -1.020   4.526  1.00  0.00    -0.390 OA
HETATM   50  O9  UNL     1      -5.673  -1.920   1.344  1.00  0.00    -0.391 OA
HETATM   51  O10 UNL     1      -5.368   0.844  -1.759  1.00  0.00    -0.391 OA
HETATM   52  O11 UNL     1      -5.878   3.456  -2.315  1.00  0.00    -0.390 OA
HETATM   53  O12 UNL     1      -8.074   3.369  -3.854  1.00  0.00    -0.392 OA
HETATM   54  N1  UNL     1      -5.225   0.899   1.127  1.00  0.00     0.093 N 
HETATM   55  N2  UNL     1      -0.372   2.107   1.392  1.00  0.00     0.097 N 
HETATM   56  N3  UNL     1       9.190  -0.987  -1.944  1.00  0.00    -0.367 N 
ATOM     57  H3  UNL     1       9.766  -0.733  -1.141  1.00  0.00     0.162 HD
HETATM   58  N4  UNL     1       8.935  -0.970  -4.290  1.00  0.00    -0.274 NA
HETATM   59  N5  UNL     1      10.793  -0.079  -3.297  1.00  0.00    -0.298 N 
HETATM   60  N6  UNL     1      15.397   1.049  -2.574  1.00  0.00    -0.334 N 
ATOM     61  H6  UNL     1      16.199   1.261  -1.980  1.00  0.00     0.168 HD
HETATM   62  N7  UNL     1      13.175   0.430  -4.235  1.00  0.00    -0.337 N 
ATOM     63  H7  UNL     1      12.380   0.205  -4.833  1.00  0.00     0.167 HD
HETATM   64  N8  UNL     1      16.813   1.189  -4.443  1.00  0.00    -0.286 NA
HETATM   65  N9  UNL     1      14.098   0.879  -0.636  1.00  0.00    -0.286 NA
HETATM   66  N10 UNL     1      -0.445   1.610  -1.361  1.00  0.00    -0.368 N 
HETATM   67 CL1  UNL     1      14.528   0.529  -6.426  1.00  0.00    -0.061 Cl
HETATM   68  H50 UNL     1     -11.374   0.665  -6.108  1.00  0.00     0.209 HD
HETATM   69  H51 UNL     1      -8.907  -0.563  -5.456  1.00  0.00     0.210 HD
HETATM   70  H52 UNL     1      -7.791  -5.707   3.554  1.00  0.00     0.209 HD
HETATM   71  H53 UNL     1      -8.994  -3.481   5.048  1.00  0.00     0.210 HD
HETATM   72  H54 UNL     1      -9.138  -0.348   3.489  1.00  0.00     0.210 HD
HETATM   73  H55 UNL     1      -8.004  -1.497   5.013  1.00  0.00     0.210 HD
HETATM   74  H56 UNL     1      -5.081  -1.367   0.796  1.00  0.00     0.210 HD
HETATM   75  H57 UNL     1      -4.893   0.286  -1.109  1.00  0.00     0.210 HD
HETATM   76  H58 UNL     1      -5.199   2.807  -2.603  1.00  0.00     0.210 HD
HETATM   77  H59 UNL     1      -7.278   3.938  -3.783  1.00  0.00     0.210 HD
HETATM   78  H60 UNL     1       0.280   2.519   2.064  1.00  0.00     0.317 HD
HETATM   79  H61 UNL     1       9.076  -0.293  -5.030  1.00  0.00     0.127 HD
HETATM   80  H62 UNL     1       7.955  -1.199  -4.181  1.00  0.00     0.127 HD
HETATM   81  H63 UNL     1      11.166  -0.099  -4.238  1.00  0.00     0.171 HD
HETATM   82  H64 UNL     1      16.784   1.962  -5.103  1.00  0.00     0.125 HD
HETATM   83  H65 UNL     1      17.124   0.367  -4.956  1.00  0.00     0.125 HD
HETATM   84  H66 UNL     1      13.259   1.397  -0.358  1.00  0.00     0.125 HD
HETATM   85  H67 UNL     1      13.927  -0.061  -0.285  1.00  0.00     0.125 HD
HETATM   86  H68 UNL     1      -0.988   1.458  -2.199  1.00  0.00     0.159 HD
HETATM   87  H69 UNL     1      -0.536   2.508  -0.895  1.00  0.00     0.159 HD
ENDROOT
TORSDOF 40
