REMARK  14 active torsions:
REMARK  status: ('A' for Active; 'I' for Inactive)
REMARK    1  A    between atoms: C4_4  and  N1_59 
REMARK       I    between atoms: C8_8  and  N1_59 
REMARK       I    between atoms: C8_8  and  N2_60 
REMARK    2  A    between atoms: C9_9  and  N2_60 
REMARK    3  A    between atoms: C10_10  and  C13_13 
REMARK    4  A    between atoms: C15_15  and  C19_19 
REMARK    5  A    between atoms: C18_18  and  N8_69 
REMARK    6  A    between atoms: C22_22  and  N9_70 
REMARK       I    between atoms: C26_26  and  N9_70 
REMARK       I    between atoms: C26_26  and  N10_71 
REMARK    7  A    between atoms: C27_27  and  N10_71 
REMARK    8  A    between atoms: C29_29  and  C31_31 
REMARK    9  A    between atoms: C33_33  and  C37_37 
REMARK   10  A    between atoms: C36_36  and  N16_80 
REMARK   11  A    between atoms: C40_40  and  N17_81 
REMARK       I    between atoms: C44_44  and  N17_81 
REMARK       I    between atoms: C44_44  and  N18_82 
REMARK   12  A    between atoms: C45_45  and  N18_82 
REMARK   13  A    between atoms: C47_47  and  C50_50 
REMARK   14  A    between atoms: C55_55  and  N23_89 
ROOT
HETATM    1  C27 UNL     1       0.252  -0.867   1.906  1.00  0.00     0.685 A 
HETATM    2  C28 UNL     1       1.859  -1.486   3.421  1.00  0.00     0.120 A 
HETATM    3  C29 UNL     1       2.533  -0.289   3.288  1.00  0.00     0.009 A 
HETATM    4  C30 UNL     1       1.955   0.586   2.393  1.00  0.00     0.120 A 
HETATM    5  N11 UNL     1       0.730  -1.800   2.746  1.00  0.00    -0.201 N 
ATOM      6  H11 UNL     1       0.265  -2.700   2.868  1.00  0.00     0.183 HD
HETATM    7  N12 UNL     1       0.833   0.317   1.695  1.00  0.00    -0.201 N 
ATOM      8  H12 UNL     1       0.444   0.989   1.034  1.00  0.00     0.183 HD
ENDROOT
BRANCH   1   9
HETATM    9  N10 UNL     1      -0.898  -1.251   1.235  1.00  0.00    -0.141 N 
HETATM   10  C26 UNL     1      -1.707  -0.431   0.487  1.00  0.00     0.339 C 
HETATM   11  N9  UNL     1      -2.709  -1.184  -0.119  1.00  0.00    -0.305 N 
HETATM   12  O2  UNL     1      -1.566   0.773   0.334  1.00  0.00    -0.246 OA
HETATM   13  H35 UNL     1      -2.410  -2.103  -0.410  1.00  0.00     0.171 HD
HETATM   14  H36 UNL     1      -1.246  -2.146   1.530  1.00  0.00     0.189 HD
BRANCH  11  15
HETATM   15  C22 UNL     1      -3.830  -0.641  -0.786  1.00  0.00     0.075 A 
HETATM   16  C21 UNL     1      -4.449   0.557  -0.417  1.00  0.00     0.143 A 
HETATM   17  C20 UNL     1      -5.554   1.039  -1.115  1.00  0.00     0.057 A 
HETATM   18  F3  UNL     1      -4.063   1.235   0.673  1.00  0.00    -0.204 F 
HETATM   19  C19 UNL     1      -6.078   0.319  -2.196  1.00  0.00    -0.015 A 
HETATM   20  C24 UNL     1      -5.496  -0.912  -2.558  1.00  0.00    -0.049 A 
HETATM   21  C23 UNL     1      -4.379  -1.382  -1.841  1.00  0.00     0.040 A 
HETATM   22  C25 UNL     1      -6.034  -1.734  -3.700  1.00  0.00     0.049 C 
BRANCH  19  23
HETATM   23  C15 UNL     1      -7.251   0.869  -2.897  1.00  0.00    -0.007 A 
HETATM   24  C14 UNL     1      -8.629   0.579  -2.498  1.00  0.00     0.030 A 
HETATM   25  C13 UNL     1      -9.707   1.088  -3.143  1.00  0.00     0.025 A 
HETATM   26  C17 UNL     1      -9.463   1.934  -4.276  1.00  0.00     0.111 A 
HETATM   27  C18 UNL     1     -10.202   2.631  -5.198  1.00  0.00     0.141 A 
HETATM   28  N5  UNL     1      -8.145   2.205  -4.639  1.00  0.00    -0.246 N 
HETATM   29  N6  UNL     1      -9.389   3.287  -6.064  1.00  0.00    -0.267 N 
HETATM   30  N7  UNL     1      -8.133   3.024  -5.722  1.00  0.00    -0.014 NA
ATOM     31  H6  UNL     1      -9.689   3.877  -6.840  1.00  0.00     0.186 HD
HETATM   32  C16 UNL     1      -7.055   1.679  -3.954  1.00  0.00     0.127 A 
BRANCH  25  33
HETATM   33  C10 UNL     1     -11.056   0.717  -2.661  1.00  0.00     0.060 A 
HETATM   34  C11 UNL     1     -11.441   0.840  -1.335  1.00  0.00     0.036 A 
HETATM   35  C12 UNL     1     -12.743   0.494  -0.970  1.00  0.00     0.052 A 
HETATM   36  C9  UNL     1     -13.618   0.044  -1.942  1.00  0.00     0.123 A 
HETATM   37  N3  UNL     1     -13.220  -0.050  -3.229  1.00  0.00    -0.285 N 
HETATM   38  N4  UNL     1     -11.935   0.284  -3.592  1.00  0.00    -0.298 N 
ATOM     39  H3  UNL     1     -13.878  -0.372  -3.939  1.00  0.00     0.188 HD
ATOM     40  H4  UNL     1     -11.645   0.204  -4.567  1.00  0.00     0.187 HD
BRANCH  36  41
HETATM   41  N2  UNL     1     -14.946  -0.328  -1.713  1.00  0.00    -0.293 N 
HETATM   42  C8  UNL     1     -15.605  -0.424  -0.508  1.00  0.00     0.326 C 
HETATM   43  N1  UNL     1     -16.927  -0.783  -0.700  1.00  0.00    -0.306 N 
HETATM   44  O1  UNL     1     -15.086  -0.219   0.581  1.00  0.00    -0.247 OA
HETATM   45  H31 UNL     1     -17.264  -0.830  -1.652  1.00  0.00     0.171 HD
HETATM   46  H32 UNL     1     -15.415  -0.634  -2.551  1.00  0.00     0.172 HD
BRANCH  43  47
HETATM   47  C4  UNL     1     -17.917  -1.017   0.280  1.00  0.00     0.075 A 
HETATM   48  C3  UNL     1     -17.695  -0.991   1.658  1.00  0.00     0.039 A 
HETATM   49  C2  UNL     1     -18.749  -1.233   2.559  1.00  0.00    -0.060 A 
HETATM   50  C1  UNL     1     -18.487  -1.232   4.037  1.00  0.00     0.048 C 
HETATM   51  C7  UNL     1     -20.027  -1.528   2.067  1.00  0.00     0.010 A 
HETATM   52  C6  UNL     1     -20.258  -1.559   0.694  1.00  0.00     0.045 A 
HETATM   53  C5  UNL     1     -19.208  -1.303  -0.181  1.00  0.00     0.143 A 
HETATM   54  F1  UNL     1     -19.442  -1.338  -1.504  1.00  0.00    -0.204 F 
ENDBRANCH  43  47
ENDBRANCH  36  41
ENDBRANCH  25  33
BRANCH  27  55
HETATM   55  N8  UNL     1     -11.539   2.689  -5.296  1.00  0.00    -0.383 N 
HETATM   56  H33 UNL     1     -11.919   3.018  -6.177  1.00  0.00     0.157 HD
HETATM   57  H34 UNL     1     -12.085   1.920  -4.905  1.00  0.00     0.157 HD
ENDBRANCH  27  55
ENDBRANCH  19  23
ENDBRANCH  11  15
ENDBRANCH   1   9
BRANCH   3  58
HETATM   58  C31 UNL     1       3.750   0.023   4.050  1.00  0.00     0.010 A 
HETATM   59  C32 UNL     1       4.893   0.216   3.348  1.00  0.00     0.028 A 
HETATM   60  C33 UNL     1       6.181   0.490   3.987  1.00  0.00    -0.007 A 
HETATM   61  C34 UNL     1       6.223   0.537   5.331  1.00  0.00     0.127 A 
HETATM   62  N13 UNL     1       5.063   0.339   6.072  1.00  0.00    -0.246 N 
HETATM   63  C35 UNL     1       3.822   0.096   5.479  1.00  0.00     0.109 A 
HETATM   64  N15 UNL     1       4.923   0.353   7.422  1.00  0.00    -0.014 NA
HETATM   65  C36 UNL     1       2.967  -0.001   6.548  1.00  0.00     0.141 A 
HETATM   66  N14 UNL     1       3.646   0.142   7.715  1.00  0.00    -0.267 N 
ATOM     67  H14 UNL     1       3.245   0.095   8.652  1.00  0.00     0.186 HD
BRANCH  60  68
HETATM   68  C37 UNL     1       7.425   0.707   3.228  1.00  0.00    -0.015 A 
HETATM   69  C38 UNL     1       7.778   2.020   2.894  1.00  0.00     0.057 A 
HETATM   70  C39 UNL     1       8.940   2.261   2.169  1.00  0.00     0.143 A 
HETATM   71  C40 UNL     1       9.779   1.222   1.756  1.00  0.00     0.075 A 
HETATM   72  F2  UNL     1       9.259   3.528   1.859  1.00  0.00    -0.204 F 
HETATM   73  C41 UNL     1       9.422  -0.088   2.080  1.00  0.00     0.040 A 
HETATM   74  C42 UNL     1       8.250  -0.360   2.817  1.00  0.00    -0.049 A 
HETATM   75  C43 UNL     1       7.911  -1.792   3.141  1.00  0.00     0.049 C 
BRANCH  71  76
HETATM   76  N17 UNL     1      10.929   1.583   1.019  1.00  0.00    -0.306 N 
HETATM   77  C44 UNL     1      11.965   0.762   0.607  1.00  0.00     0.325 C 
HETATM   78  N18 UNL     1      12.868   1.475  -0.166  1.00  0.00    -0.307 N 
HETATM   79  O3  UNL     1      12.066  -0.426   0.882  1.00  0.00    -0.247 OA
HETATM   80  H40 UNL     1      12.563   2.384  -0.479  1.00  0.00     0.170 HD
HETATM   81  H39 UNL     1      11.049   2.579   0.894  1.00  0.00     0.171 HD
BRANCH  78  82
HETATM   82  C45 UNL     1      14.092   1.010  -0.696  1.00  0.00     0.051 A 
HETATM   83  C46 UNL     1      14.795   1.831  -1.575  1.00  0.00     0.117 A 
HETATM   84  N19 UNL     1      15.979   1.515  -2.153  1.00  0.00    -0.363 N 
HETATM   85  C47 UNL     1      16.512   0.307  -1.849  1.00  0.00     0.044 A 
ATOM     86  H19 UNL     1      16.449   2.159  -2.790  1.00  0.00     0.165 HD
HETATM   87  C48 UNL     1      15.892  -0.574  -0.968  1.00  0.00     0.033 A 
HETATM   88  C49 UNL     1      14.671  -0.217  -0.390  1.00  0.00     0.033 A 
BRANCH  85  89
HETATM   89  C50 UNL     1      17.807  -0.029  -2.485  1.00  0.00     0.023 A 
HETATM   90  C51 UNL     1      18.800   0.889  -2.374  1.00  0.00     0.017 A 
HETATM   91  C52 UNL     1      20.137   0.670  -2.900  1.00  0.00     0.020 A 
HETATM   92  C53 UNL     1      20.405  -0.491  -3.515  1.00  0.00     0.114 A 
HETATM   93  N20 UNL     1      19.402  -1.446  -3.656  1.00  0.00    -0.246 N 
HETATM   94  C54 UNL     1      18.103  -1.250  -3.182  1.00  0.00     0.111 A 
HETATM   95  N22 UNL     1      19.487  -2.662  -4.255  1.00  0.00    -0.014 NA
HETATM   96  C55 UNL     1      17.440  -2.379  -3.593  1.00  0.00     0.141 A 
HETATM   97  N21 UNL     1      18.289  -3.231  -4.221  1.00  0.00    -0.267 N 
ATOM     98  H21 UNL     1      18.049  -4.147  -4.600  1.00  0.00     0.186 HD
BRANCH  96  99
HETATM   99  N23 UNL     1      16.137  -2.671  -3.453  1.00  0.00    -0.383 N 
HETATM  100  H41 UNL     1      15.788  -3.440  -4.018  1.00  0.00     0.157 HD
HETATM  101  H42 UNL     1      15.465  -1.913  -3.386  1.00  0.00     0.157 HD
ENDBRANCH  96  99
ENDBRANCH  85  89
ENDBRANCH  78  82
ENDBRANCH  71  76
ENDBRANCH  60  68
BRANCH  65 102
HETATM  102  N16 UNL     1       1.642  -0.201   6.531  1.00  0.00    -0.383 N 
HETATM  103  H37 UNL     1       1.149  -0.037   7.405  1.00  0.00     0.157 HD
HETATM  104  H38 UNL     1       1.092   0.088   5.728  1.00  0.00     0.157 HD
ENDBRANCH  65 102
ENDBRANCH   3  58
TORSDOF 14
