REMARK  0 active torsions:
REMARK  status: ('A' for Active; 'I' for Inactive)
REMARK       I    between atoms: C4_4  and  C5_5 
REMARK       I    between atoms: C5_5  and  N3_81 
REMARK       I    between atoms: C6_6  and  N3_81 
REMARK       I    between atoms: C8_8  and  C9_9 
REMARK       I    between atoms: C9_9  and  N6_85 
REMARK       I    between atoms: C10_10  and  N6_85 
REMARK       I    between atoms: C12_12  and  C14_14 
REMARK       I    between atoms: C14_14  and  N8_87 
REMARK       I    between atoms: C15_15  and  N8_87 
REMARK       I    between atoms: C17_17  and  C19_19 
REMARK       I    between atoms: C19_19  and  N10_89 
REMARK       I    between atoms: C20_20  and  C21_21 
REMARK       I    between atoms: C20_20  and  N10_89 
REMARK       I    between atoms: C21_21  and  C22_22 
REMARK       I    between atoms: C22_22  and  C23_23 
REMARK       I    between atoms: C23_23  and  N11_90 
REMARK       I    between atoms: C23_23  and  O14_118 
REMARK       I    between atoms: C24_24  and  N11_90 
REMARK       I    between atoms: C26_26  and  C27_27 
REMARK       I    between atoms: C27_27  and  N14_95 
REMARK       I    between atoms: C28_28  and  N14_95 
REMARK       I    between atoms: C30_30  and  C32_32 
REMARK       I    between atoms: C32_32  and  N16_97 
REMARK       I    between atoms: C33_33  and  N16_97 
REMARK       I    between atoms: C35_35  and  C37_37 
REMARK       I    between atoms: C37_37  and  N18_99 
REMARK       I    between atoms: C38_38  and  N18_99 
REMARK       I    between atoms: C40_40  and  C42_42 
REMARK       I    between atoms: C42_42  and  N20_101 
REMARK       I    between atoms: C43_43  and  C44_44 
REMARK       I    between atoms: C43_43  and  N20_101 
REMARK       I    between atoms: C44_44  and  C45_45 
REMARK       I    between atoms: C45_45  and  C46_46 
REMARK       I    between atoms: C46_46  and  C47_47 
REMARK       I    between atoms: C47_47  and  C48_48 
REMARK       I    between atoms: C48_48  and  C49_49 
REMARK       I    between atoms: C49_49  and  N21_102 
REMARK       I    between atoms: C50_50  and  N21_102 
REMARK       I    between atoms: C50_50  and  N22_104 
REMARK       I    between atoms: C50_50  and  S1_119 
REMARK       I    between atoms: C51_51  and  N22_104 
REMARK       I    between atoms: C53_53  and  C70_70 
REMARK       I    between atoms: C54_54  and  C57_57 
REMARK       I    between atoms: C68_68  and  O11_115 
REMARK       I    between atoms: C70_70  and  O13_117 
ROOT
HETATM    1  C1  UNL     1       3.157   3.072   0.665  1.00  0.00     0.157 C 
HETATM    2  C2  UNL     1       3.398   5.205   1.950  1.00  0.00     0.109 A 
HETATM    3  C3  UNL     1       4.468   6.023   2.222  1.00  0.00     0.107 A 
HETATM    4  C4  UNL     1       5.259   4.408   1.040  1.00  0.00     0.176 A 
HETATM    5  C5  UNL     1       6.203   3.571   0.309  1.00  0.00     0.291 C 
HETATM    6  C6  UNL     1       8.572   3.517  -0.236  1.00  0.00     0.125 A 
HETATM    7  C7  UNL     1       9.851   4.019  -0.216  1.00  0.00     0.140 A 
HETATM    8  C8  UNL     1       9.765   2.100  -1.326  1.00  0.00     0.178 A 
HETATM    9  C9  UNL     1      10.101   0.905  -2.089  1.00  0.00     0.290 C 
HETATM   10  C10 UNL     1       8.883  -1.066  -2.955  1.00  0.00     0.053 A 
HETATM   11  C11 UNL     1       9.869  -1.768  -3.599  1.00  0.00     0.120 A 
HETATM   12  C12 UNL     1       7.954  -2.944  -3.858  1.00  0.00     0.105 A 
HETATM   13  C13 UNL     1       7.686  -1.803  -3.110  1.00  0.00     0.066 A 
HETATM   14  C14 UNL     1       7.038  -3.988  -4.302  1.00  0.00     0.273 C 
HETATM   15  C15 UNL     1       4.849  -4.950  -3.720  1.00  0.00     0.053 A 
HETATM   16  C16 UNL     1       3.803  -5.049  -2.835  1.00  0.00     0.120 A 
HETATM   17  C17 UNL     1       3.341  -6.449  -4.551  1.00  0.00     0.104 A 
HETATM   18  C18 UNL     1       4.560  -5.822  -4.796  1.00  0.00     0.066 A 
HETATM   19  C19 UNL     1       2.603  -7.419  -5.350  1.00  0.00     0.268 C 
HETATM   20  C20 UNL     1       2.656  -8.900  -7.312  1.00  0.00     0.123 C 
HETATM   21  C21 UNL     1       3.175  -8.899  -8.748  1.00  0.00     0.027 C 
HETATM   22  C22 UNL     1       2.701  -7.695  -9.562  1.00  0.00     0.085 C 
HETATM   23  C23 UNL     1       3.418  -6.435  -9.165  1.00  0.00     0.116 C 
HETATM   24  C24 UNL     1       5.276  -5.125  -8.890  1.00  0.00     0.124 A 
HETATM   25  C25 UNL     1       6.536  -4.753  -9.276  1.00  0.00     0.140 A 
HETATM   26  C26 UNL     1       5.660  -3.276  -7.872  1.00  0.00     0.178 A 
HETATM   27  C27 UNL     1       5.514  -2.140  -6.967  1.00  0.00     0.290 C 
HETATM   28  C28 UNL     1       4.050  -1.454  -5.108  1.00  0.00     0.053 A 
HETATM   29  C29 UNL     1       4.668  -0.309  -4.678  1.00  0.00     0.120 A 
HETATM   30  C30 UNL     1       2.936  -0.678  -3.268  1.00  0.00     0.105 A 
HETATM   31  C31 UNL     1       2.951  -1.673  -4.242  1.00  0.00     0.066 A 
HETATM   32  C32 UNL     1       2.023  -0.476  -2.145  1.00  0.00     0.273 C 
HETATM   33  C33 UNL     1       0.315  -1.663  -0.836  1.00  0.00     0.053 A 
HETATM   34  C34 UNL     1      -0.411  -2.801  -0.580  1.00  0.00     0.120 A 
HETATM   35  C35 UNL     1      -1.070  -1.253   0.929  1.00  0.00     0.105 A 
HETATM   36  C36 UNL     1      -0.095  -0.695   0.110  1.00  0.00     0.066 A 
HETATM   37  C37 UNL     1      -1.795  -0.662   2.046  1.00  0.00     0.273 C 
HETATM   38  C38 UNL     1      -2.570   1.506   2.888  1.00  0.00     0.053 A 
HETATM   39  C39 UNL     1      -2.689   2.870   2.748  1.00  0.00     0.120 A 
HETATM   40  C40 UNL     1      -3.784   2.309   4.635  1.00  0.00     0.104 A 
HETATM   41  C41 UNL     1      -3.265   1.155   4.066  1.00  0.00     0.066 A 
HETATM   42  C42 UNL     1      -4.574   2.387   5.843  1.00  0.00     0.268 C 
HETATM   43  C43 UNL     1      -4.642   3.244   8.118  1.00  0.00     0.123 C 
HETATM   44  C44 UNL     1      -3.988   4.222   9.088  1.00  0.00     0.020 C 
HETATM   45  C45 UNL     1      -4.527   5.656   9.041  1.00  0.00     0.002 C 
HETATM   46  C46 UNL     1      -4.030   6.489   7.859  1.00  0.00     0.000 C 
HETATM   47  C47 UNL     1      -5.015   6.621   6.697  1.00  0.00     0.002 C 
HETATM   48  C48 UNL     1      -6.286   7.402   7.045  1.00  0.00     0.020 C 
HETATM   49  C49 UNL     1      -7.017   7.896   5.794  1.00  0.00     0.121 C 
HETATM   50  C50 UNL     1      -7.847   6.881   3.775  1.00  0.00     0.137 C 
HETATM   51  C51 UNL     1      -8.379   4.498   3.148  1.00  0.00     0.035 A 
HETATM   52  C52 UNL     1      -8.873   3.712   2.092  1.00  0.00     0.048 A 
HETATM   53  C53 UNL     1      -9.095   2.327   2.230  1.00  0.00     0.051 A 
HETATM   54  C54 UNL     1      -8.797   1.695   3.448  1.00  0.00    -0.007 A 
HETATM   55  C55 UNL     1      -8.284   2.473   4.497  1.00  0.00     0.015 A 
HETATM   56  C56 UNL     1      -8.074   3.850   4.344  1.00  0.00     0.030 A 
HETATM   57  C57 UNL     1      -9.066   0.255   3.714  1.00  0.00     0.001 A 
HETATM   58  C58 UNL     1      -8.116  -0.688   3.464  1.00  0.00     0.010 A 
HETATM   59  C59 UNL     1      -6.772  -0.338   2.983  1.00  0.00     0.019 A 
HETATM   60  C60 UNL     1      -5.883  -1.278   2.630  1.00  0.00     0.056 A 
HETATM   61  C61 UNL     1      -6.223  -2.713   2.726  1.00  0.00     0.174 A 
HETATM   62  C62 UNL     1      -7.529  -3.065   3.317  1.00  0.00     0.092 A 
HETATM   63  C63 UNL     1      -8.410  -2.117   3.663  1.00  0.00     0.091 A 
HETATM   64  C64 UNL     1     -10.587  -1.576   4.452  1.00  0.00     0.089 A 
HETATM   65  C65 UNL     1     -10.378  -0.214   4.234  1.00  0.00     0.010 A 
HETATM   66  C66 UNL     1     -11.429   0.671   4.528  1.00  0.00     0.018 A 
HETATM   67  C67 UNL     1     -12.648   0.198   5.022  1.00  0.00     0.037 A 
HETATM   68  C68 UNL     1     -12.826  -1.163   5.227  1.00  0.00     0.068 A 
HETATM   69  C69 UNL     1     -11.804  -2.058   4.947  1.00  0.00     0.074 A 
HETATM   70  C70 UNL     1      -9.644   1.570   1.073  1.00  0.00     0.177 C 
HETATM   71  C71 UNL     1      -3.899   4.713   3.906  1.00  0.00     0.156 C 
HETATM   72  C72 UNL     1      -2.185  -3.512   1.026  1.00  0.00     0.156 C 
HETATM   73  C73 UNL     1       4.431   1.302  -2.800  1.00  0.00     0.156 C 
HETATM   74  C74 UNL     1       7.988  -2.804  -8.700  1.00  0.00     0.157 C 
HETATM   75  C75 UNL     1       1.690  -6.346  -2.643  1.00  0.00     0.156 C 
HETATM   76  C76 UNL     1      10.047  -3.889  -4.894  1.00  0.00     0.156 C 
HETATM   77  C77 UNL     1      12.018   3.196  -1.171  1.00  0.00     0.157 C 
HETATM   78  N1  UNL     1       3.910   4.183   1.198  1.00  0.00    -0.342 N 
HETATM   79  N2  UNL     1       5.615   5.529   1.657  1.00  0.00    -0.346 N 
ATOM     80  H2  UNL     1       6.549   5.938   1.701  1.00  0.00     0.167 HD
HETATM   81  N3  UNL     1       7.479   4.094   0.348  1.00  0.00    -0.305 N 
HETATM   82  N4  UNL     1      10.601   3.109  -0.916  1.00  0.00    -0.339 N 
HETATM   83  N5  UNL     1       8.527   2.343  -0.921  1.00  0.00    -0.323 N 
ATOM     84  H5  UNL     1       7.704   1.765  -1.089  1.00  0.00     0.169 HD
HETATM   85  N6  UNL     1       8.976   0.128  -2.279  1.00  0.00    -0.319 N 
HETATM   86  N7  UNL     1       9.305  -2.892  -4.151  1.00  0.00    -0.354 N 
HETATM   87  N8  UNL     1       5.918  -4.106  -3.503  1.00  0.00    -0.320 N 
HETATM   88  N9  UNL     1       2.906  -5.960  -3.330  1.00  0.00    -0.354 N 
HETATM   89  N10 UNL     1       3.233  -7.854  -6.496  1.00  0.00    -0.356 N 
HETATM   90  N11 UNL     1       4.697  -6.316  -9.309  1.00  0.00    -0.326 N 
ATOM     91  H11 UNL     1       5.258  -7.066  -9.714  1.00  0.00     0.169 HD
HETATM   92  N12 UNL     1       6.768  -3.571  -8.633  1.00  0.00    -0.339 N 
HETATM   93  N13 UNL     1       4.722  -4.204  -8.038  1.00  0.00    -0.323 N 
ATOM     94  H13 UNL     1       3.791  -4.226  -7.621  1.00  0.00     0.169 HD
HETATM   95  N14 UNL     1       4.405  -2.278  -6.154  1.00  0.00    -0.319 N 
HETATM   96  N15 UNL     1       4.006   0.150  -3.569  1.00  0.00    -0.354 N 
HETATM   97  N16 UNL     1       1.248  -1.584  -1.851  1.00  0.00    -0.320 N 
HETATM   98  N17 UNL     1      -1.238  -2.554   0.489  1.00  0.00    -0.354 N 
HETATM   99  N18 UNL     1      -1.889   0.716   1.982  1.00  0.00    -0.320 N 
HETATM  100  N19 UNL     1      -3.450   3.343   3.789  1.00  0.00    -0.354 N 
HETATM  101  N20 UNL     1      -4.097   3.289   6.777  1.00  0.00    -0.356 N 
HETATM  102  N21 UNL     1      -7.410   6.758   4.975  1.00  0.00    -0.371 N 
ATOM    103  H21 UNL     1      -7.335   5.822   5.373  1.00  0.00     0.161 HD
HETATM  104  N22 UNL     1      -8.209   5.874   2.922  1.00  0.00    -0.337 N 
HETATM  105  O1  UNL     1       5.864   2.538  -0.260  1.00  0.00    -0.264 OA
HETATM  106  O2  UNL     1      11.235   0.654  -2.485  1.00  0.00    -0.264 OA
HETATM  107  O3  UNL     1       7.274  -4.689  -5.282  1.00  0.00    -0.266 OA
HETATM  108  O4  UNL     1       1.492  -7.838  -5.031  1.00  0.00    -0.266 OA
HETATM  109  O5  UNL     1       6.304  -1.201  -6.946  1.00  0.00    -0.264 OA
HETATM  110  O6  UNL     1       1.976   0.581  -1.520  1.00  0.00    -0.266 OA
HETATM  111  O7  UNL     1      -2.294  -1.349   2.932  1.00  0.00    -0.266 OA
HETATM  112  O8  UNL     1      -5.541   1.664   6.058  1.00  0.00    -0.266 OA
HETATM  113  O9  UNL     1      -5.454  -3.582   2.331  1.00  0.00    -0.288 OA
HETATM  114  O10 UNL     1      -9.626  -2.517   4.198  1.00  0.00    -0.309 OA
HETATM  115  O11 UNL     1     -14.030  -1.582   5.710  1.00  0.00    -0.361 OA
HETATM  116  O12 UNL     1      -9.493   0.395   0.806  1.00  0.00    -0.646 OA
HETATM  117  O13 UNL     1     -10.398   2.357   0.280  1.00  0.00    -0.773 OA
HETATM  118  O14 UNL     1       2.586  -5.499  -8.666  1.00  0.00    -0.349 OA
HETATM  119  S1  UNL     1      -8.065   8.438   2.967  1.00  0.00    -0.107 SA
HETATM  120  H68 UNL     1       7.592   4.964   0.856  1.00  0.00     0.170 HD
HETATM  121  H69 UNL     1       8.125   0.510  -1.869  1.00  0.00     0.169 HD
HETATM  122  H70 UNL     1       5.874  -3.543  -2.667  1.00  0.00     0.169 HD
HETATM  123  H71 UNL     1       4.209  -7.621  -6.627  1.00  0.00     0.162 HD
HETATM  124  H72 UNL     1       3.872  -3.132  -6.281  1.00  0.00     0.169 HD
HETATM  125  H73 UNL     1       1.378  -2.423  -2.395  1.00  0.00     0.169 HD
HETATM  126  H74 UNL     1      -1.496   1.185   1.180  1.00  0.00     0.169 HD
HETATM  127  H75 UNL     1      -3.130   3.561   6.662  1.00  0.00     0.162 HD
HETATM  128  H76 UNL     1      -8.558   6.204   2.032  1.00  0.00     0.168 HD
HETATM  129  H77 UNL     1     -14.007  -2.549   5.804  1.00  0.00     0.217 HD
HETATM  130  H78 UNL     1     -10.721   1.736  -0.408  1.00  0.00     0.167 HD
HETATM  131  H79 UNL     1       3.113  -4.733  -8.366  1.00  0.00     0.219 HD
HETATM  132  H80 UNL     1      -8.349   9.155   4.060  1.00  0.00     0.110 HD
ENDROOT
TORSDOF 37
