REMARK  24 active torsions:
REMARK  status: ('A' for Active; 'I' for Inactive)
REMARK    1  A    between atoms: C2_2  and  C3_3 
REMARK    2  A    between atoms: C2_2  and  C12_12 
REMARK    3  A    between atoms: C3_3  and  C4_4 
REMARK       I    between atoms: C12_12  and  N2_58 
REMARK    4  A    between atoms: C13_13  and  N2_58 
REMARK    5  A    between atoms: C15_15  and  C53_53 
REMARK    6  A    between atoms: C17_17  and  C21_21 
REMARK    7  A    between atoms: C18_18  and  S1_69 
REMARK    8  A    between atoms: C19_19  and  C20_20 
REMARK    9  A    between atoms: C19_19  and  S1_69 
REMARK   10  A    between atoms: C20_20  and  N3_59 
REMARK   11  A    between atoms: C21_21  and  C22_22 
REMARK   12  A    between atoms: C22_22  and  C23_23 
REMARK   13  A    between atoms: C25_25  and  C29_29 
REMARK       I    between atoms: C29_29  and  N4_60 
REMARK   14  A    between atoms: C30_30  and  N4_60 
REMARK   15  A    between atoms: C31_31  and  S2_70 
REMARK   16  A    between atoms: C32_32  and  N5_61 
REMARK   17  A    between atoms: C34_34  and  C36_36 
REMARK   18  A    between atoms: C40_40  and  C41_41 
REMARK       I    between atoms: C40_40  and  N5_61 
REMARK   19  A    between atoms: C41_41  and  C42_42 
REMARK   20  A    between atoms: C41_41  and  N7_63 
REMARK   21  A    between atoms: C42_42  and  C43_43 
REMARK   22  A    between atoms: C51_51  and  C52_52 
REMARK   23  A    between atoms: C51_51  and  S2_70 
REMARK   24  A    between atoms: C52_52  and  N8_64 
ROOT
HETATM    1  C23 UNL     1       1.622   1.870  -4.110  1.00  0.00     0.011 A 
HETATM    2  C24 UNL     1       0.409   1.780  -3.428  1.00  0.00     0.032 A 
HETATM    3  C25 UNL     1      -0.560   0.859  -3.834  1.00  0.00     0.033 A 
HETATM    4  C26 UNL     1      -0.345   0.097  -4.991  1.00  0.00     0.017 A 
HETATM    5  C27 UNL     1       0.850   0.230  -5.706  1.00  0.00     0.002 A 
HETATM    6  C28 UNL     1       1.841   1.107  -5.260  1.00  0.00     0.015 A 
ENDROOT
BRANCH   3   7
HETATM    7  C29 UNL     1      -1.783   0.713  -2.991  1.00  0.00     0.256 C 
HETATM    8  N4  UNL     1      -2.438  -0.507  -3.102  1.00  0.00    -0.322 N 
HETATM    9  H60 UNL     1      -1.825  -1.281  -3.326  1.00  0.00     0.169 HD
HETATM   10  O3  UNL     1      -2.065   1.600  -2.192  1.00  0.00    -0.267 OA
BRANCH   8  11
HETATM   11  C30 UNL     1      -3.583  -0.832  -2.330  1.00  0.00     0.054 A 
HETATM   12  C31 UNL     1      -4.708   0.001  -2.177  1.00  0.00     0.054 A 
HETATM   13  C32 UNL     1      -5.722  -0.371  -1.262  1.00  0.00     0.054 A 
HETATM   14  C33 UNL     1      -5.643  -1.603  -0.599  1.00  0.00     0.039 A 
HETATM   15  C34 UNL     1      -4.581  -2.496  -0.818  1.00  0.00    -0.046 A 
HETATM   16  C35 UNL     1      -3.559  -2.083  -1.694  1.00  0.00     0.039 A 
BRANCH  12  17
HETATM   17  S2  UNL     1      -5.019   1.462  -3.208  1.00  0.00    -0.124 SA
BRANCH  17  18
HETATM   18  C51 UNL     1      -5.126   0.686  -4.866  1.00  0.00     0.109 C 
BRANCH  18  19
HETATM   19  C52 UNL     1      -6.209  -0.395  -5.006  1.00  0.00     0.277 C 
BRANCH  19  20
HETATM   20  N8  UNL     1      -7.553   0.074  -4.665  1.00  0.00     0.079 N 
HETATM   21  H65 UNL     1      -8.203  -0.711  -4.709  1.00  0.00     0.312 HD
HETATM   22  H66 UNL     1      -7.551   0.375  -3.690  1.00  0.00     0.312 HD
ENDBRANCH  19  20
ENDBRANCH  18  19
ENDBRANCH  17  18
ENDBRANCH  12  17
BRANCH  13  23
HETATM   23  N5  UNL     1      -6.766   0.559  -1.025  1.00  0.00    -0.324 N 
HETATM   24  C40 UNL     1      -7.847   0.442  -0.176  1.00  0.00     0.255 C 
HETATM   25  O4  UNL     1      -8.253  -0.607   0.326  1.00  0.00    -0.271 OA
HETATM   26  H61 UNL     1      -6.617   1.454  -1.484  1.00  0.00     0.169 HD
BRANCH  24  27
HETATM   27  C41 UNL     1      -8.597   1.782   0.052  1.00  0.00     0.313 C 
BRANCH  27  28
HETATM   28  C42 UNL     1      -7.703   2.885   0.657  1.00  0.00     0.086 C 
BRANCH  28  29
HETATM   29  C43 UNL     1      -6.907   2.477   1.864  1.00  0.00    -0.028 A 
HETATM   30  C44 UNL     1      -7.387   2.311   3.149  1.00  0.00     0.096 A 
HETATM   31  N6  UNL     1      -6.355   1.902   3.948  1.00  0.00    -0.365 N 
HETATM   32  C45 UNL     1      -5.192   1.822   3.221  1.00  0.00     0.042 A 
HETATM   33  H62 UNL     1      -6.429   1.694   4.934  1.00  0.00     0.165 HD
HETATM   34  C46 UNL     1      -3.902   1.450   3.621  1.00  0.00     0.030 A 
HETATM   35  C50 UNL     1      -5.499   2.200   1.914  1.00  0.00    -0.002 A 
HETATM   36  C47 UNL     1      -2.891   1.467   2.656  1.00  0.00     0.002 A 
HETATM   37  C48 UNL     1      -3.160   1.854   1.347  1.00  0.00     0.001 A 
HETATM   38  C49 UNL     1      -4.454   2.229   0.967  1.00  0.00     0.014 A 
ENDBRANCH  28  29
ENDBRANCH  27  28
BRANCH  27  39
HETATM   39  N7  UNL     1      -9.812   1.537   0.875  1.00  0.00     0.092 N 
HETATM   40  H63 UNL     1     -10.295   0.733   0.463  1.00  0.00     0.313 HD
HETATM   41  H64 UNL     1      -9.486   1.166   1.772  1.00  0.00     0.313 HD
ENDBRANCH  27  39
ENDBRANCH  24  27
ENDBRANCH  13  23
BRANCH  15  42
HETATM   42  C36 UNL     1      -4.484  -3.858  -0.105  1.00  0.00    -0.024 C 
HETATM   43  C37 UNL     1      -3.240  -3.873   0.808  1.00  0.00     0.019 C 
HETATM   44  C38 UNL     1      -5.706  -4.194   0.780  1.00  0.00     0.019 C 
HETATM   45  C39 UNL     1      -4.362  -4.988  -1.152  1.00  0.00     0.019 C 
ENDBRANCH  15  42
ENDBRANCH   8  11
ENDBRANCH   3   7
BRANCH   1  46
HETATM   46  C22 UNL     1       2.661   2.777  -3.568  1.00  0.00     0.163 C 
HETATM   47  O2  UNL     1       2.356   3.942  -3.324  1.00  0.00    -0.292 OA
BRANCH  46  48
HETATM   48  C21 UNL     1       4.059   2.229  -3.357  1.00  0.00     0.123 C 
BRANCH  48  49
HETATM   49  C17 UNL     1       4.149   1.124  -2.319  1.00  0.00    -0.031 A 
HETATM   50  C16 UNL     1       4.048  -0.208  -2.772  1.00  0.00     0.017 A 
HETATM   51  C15 UNL     1       4.133  -1.312  -1.907  1.00  0.00    -0.048 A 
HETATM   52  C14 UNL     1       4.399  -1.048  -0.554  1.00  0.00     0.038 A 
HETATM   53  C13 UNL     1       4.536   0.259  -0.066  1.00  0.00     0.052 A 
HETATM   54  C18 UNL     1       4.336   1.358  -0.940  1.00  0.00     0.034 A 
BRANCH  51  55
HETATM   55  C53 UNL     1       3.967  -2.740  -2.458  1.00  0.00    -0.024 C 
HETATM   56  C54 UNL     1       4.026  -3.844  -1.378  1.00  0.00     0.019 C 
HETATM   57  C55 UNL     1       2.596  -2.869  -3.160  1.00  0.00     0.019 C 
HETATM   58  C56 UNL     1       5.089  -3.034  -3.476  1.00  0.00     0.019 C 
ENDBRANCH  51  55
BRANCH  53  59
HETATM   59  N2  UNL     1       4.945   0.528   1.267  1.00  0.00    -0.326 N 
HETATM   60  C12 UNL     1       5.188  -0.363   2.297  1.00  0.00     0.226 C 
HETATM   61  O1  UNL     1       4.969  -1.570   2.274  1.00  0.00    -0.273 OA
HETATM   62  H57 UNL     1       5.143   1.509   1.440  1.00  0.00     0.169 HD
BRANCH  60  63
HETATM   63  C2  UNL     1       5.756   0.324   3.541  1.00  0.00     0.078 C 
HETATM   64  C1  UNL     1       4.645   1.101   4.251  1.00  0.00     0.020 C 
BRANCH  63  65
HETATM   65  C3  UNL     1       6.404  -0.722   4.464  1.00  0.00     0.054 C 
BRANCH  65  66
HETATM   66  C4  UNL     1       7.236  -0.115   5.554  1.00  0.00    -0.029 A 
HETATM   67  C5  UNL     1       6.882   0.007   6.884  1.00  0.00     0.096 A 
HETATM   68  N1  UNL     1       7.910   0.616   7.550  1.00  0.00    -0.365 N 
HETATM   69  C6  UNL     1       8.940   0.895   6.683  1.00  0.00     0.042 A 
HETATM   70  H56 UNL     1       7.921   0.828   8.538  1.00  0.00     0.165 HD
HETATM   71  C7  UNL     1      10.178   1.505   6.919  1.00  0.00     0.030 A 
HETATM   72  C11 UNL     1       8.550   0.440   5.423  1.00  0.00    -0.002 A 
HETATM   73  C8  UNL     1      11.045   1.655   5.833  1.00  0.00     0.002 A 
HETATM   74  C9  UNL     1      10.686   1.209   4.563  1.00  0.00     0.001 A 
HETATM   75  C10 UNL     1       9.445   0.600   4.345  1.00  0.00     0.014 A 
ENDBRANCH  65  66
ENDBRANCH  63  65
ENDBRANCH  60  63
ENDBRANCH  53  59
BRANCH  54  76
HETATM   76  S1  UNL     1       4.400   3.047  -0.308  1.00  0.00    -0.125 SA
BRANCH  76  77
HETATM   77  C19 UNL     1       2.936   3.106   0.804  1.00  0.00     0.109 C 
BRANCH  77  78
HETATM   78  C20 UNL     1       1.561   2.937   0.146  1.00  0.00     0.277 C 
BRANCH  78  79
HETATM   79  N3  UNL     1       1.209   1.545  -0.139  1.00  0.00     0.079 N 
HETATM   80  H58 UNL     1       0.219   1.501  -0.393  1.00  0.00     0.312 HD
HETATM   81  H59 UNL     1       1.306   0.977   0.702  1.00  0.00     0.312 HD
ENDBRANCH  78  79
ENDBRANCH  77  78
ENDBRANCH  76  77
ENDBRANCH  54  76
ENDBRANCH  48  49
ENDBRANCH  46  48
ENDBRANCH   1  46
TORSDOF 24
