REMARK  9 active torsions:
REMARK  status: ('A' for Active; 'I' for Inactive)
REMARK    1  A    between atoms: C2_2  and  N1_35 
REMARK    2  A    between atoms: C4_4  and  N3_38 
REMARK    3  A    between atoms: C8_8  and  C11_11 
REMARK    4  A    between atoms: C9_9  and  C10_10 
REMARK    5  A    between atoms: C13_13  and  C15_15 
REMARK       I    between atoms: C15_15  and  N7_44 
REMARK    6  A    between atoms: C16_16  and  N7_44 
REMARK    7  A    between atoms: C19_19  and  C22_22 
REMARK       I    between atoms: C22_22  and  N8_45 
REMARK    8  A    between atoms: C27_27  and  C28_28 
REMARK       I    between atoms: C27_27  and  N9_46 
REMARK    9  A    between atoms: C28_28  and  O4_54 
ROOT
HETATM    1  C15 UNL     1       2.380   0.471   1.764  1.00  0.00     0.290 C 
HETATM    2  N7  UNL     1       1.589   0.087   2.833  1.00  0.00    -0.320 N 
HETATM    3  O1  UNL     1       1.963   0.909   0.697  1.00  0.00    -0.264 OA
HETATM    4  H38 UNL     1       2.132  -0.284   3.614  1.00  0.00     0.169 HD
ENDROOT
BRANCH   1   5
HETATM    5  C13 UNL     1       3.797   0.264   2.058  1.00  0.00     0.177 A 
HETATM    6  N5  UNL     1       4.189  -0.323   3.178  1.00  0.00    -0.345 N 
HETATM    7  C12 UNL     1       5.552  -0.422   3.087  1.00  0.00     0.120 A 
ATOM      8  H5  UNL     1       3.599  -0.636   3.949  1.00  0.00     0.167 HD
HETATM    9  C11 UNL     1       6.018   0.102   1.899  1.00  0.00     0.065 A 
HETATM   10  N6  UNL     1       4.889   0.611   1.288  1.00  0.00    -0.331 N 
HETATM   11  C14 UNL     1       4.841   1.435   0.104  1.00  0.00     0.158 C 
BRANCH   9  12
HETATM   12  C8  UNL     1       7.498   0.094   1.389  1.00  0.00     0.043 A 
HETATM   13  C7  UNL     1       7.907   0.504   0.143  1.00  0.00     0.134 A 
HETATM   14  N3  UNL     1       9.272   0.336   0.074  1.00  0.00    -0.250 N 
HETATM   15  N4  UNL     1       9.765  -0.184   1.223  1.00  0.00    -0.288 N 
HETATM   16  C9  UNL     1       8.696  -0.341   2.033  1.00  0.00     0.146 A 
ATOM     17  H4  UNL     1      10.738  -0.409   1.432  1.00  0.00     0.187 HD
BRANCH  14  18
HETATM   18  C4  UNL     1      10.098   0.650  -1.047  1.00  0.00     0.126 A 
HETATM   19  C5  UNL     1      11.470   0.435  -0.962  1.00  0.00     0.052 A 
HETATM   20  C6  UNL     1      12.265   0.748  -2.067  1.00  0.00     0.034 A 
HETATM   21  C2  UNL     1      11.697   1.242  -3.244  1.00  0.00     0.043 A 
HETATM   22  C3  UNL     1      10.318   1.456  -3.205  1.00  0.00     0.119 A 
HETATM   23  N2  UNL     1       9.504   1.161  -2.157  1.00  0.00    -0.349 N 
ATOM     24  H2  UNL     1       8.497   1.316  -2.202  1.00  0.00     0.167 HD
BRANCH  21  25
HETATM   25  N1  UNL     1      12.537   1.611  -4.296  1.00  0.00    -0.393 N 
HETATM   26  C1  UNL     1      11.979   1.807  -5.623  1.00  0.00     0.146 C 
HETATM   27  H37 UNL     1      13.400   1.071  -4.307  1.00  0.00     0.159 HD
ENDBRANCH  21  25
ENDBRANCH  14  18
BRANCH  16  28
HETATM   28  C10 UNL     1       8.853  -0.901   3.420  1.00  0.00     0.434 C 
HETATM   29  F1  UNL     1       8.361  -0.057   4.367  1.00  0.00    -0.165 F 
HETATM   30  F2  UNL     1      10.146  -1.148   3.764  1.00  0.00    -0.165 F 
HETATM   31  F3  UNL     1       8.186  -2.078   3.568  1.00  0.00    -0.165 F 
ENDBRANCH  16  28
ENDBRANCH   9  12
ENDBRANCH   1   5
BRANCH   2  32
HETATM   32  C16 UNL     1       0.192   0.132   2.961  1.00  0.00     0.036 A 
HETATM   33  C17 UNL     1      -0.665   0.643   1.981  1.00  0.00     0.054 A 
HETATM   34  C18 UNL     1      -2.050   0.651   2.185  1.00  0.00     0.051 A 
HETATM   35  C19 UNL     1      -2.580   0.131   3.368  1.00  0.00     0.054 A 
HETATM   36 CL1  UNL     1      -3.053   1.306   0.936  1.00  0.00    -0.083 Cl
HETATM   37  C20 UNL     1      -1.733  -0.361   4.363  1.00  0.00     0.021 A 
HETATM   38  C21 UNL     1      -0.352  -0.363   4.155  1.00  0.00     0.030 A 
BRANCH  35  39
HETATM   39  C22 UNL     1      -4.026   0.128   3.636  1.00  0.00     0.255 C 
HETATM   40  N8  UNL     1      -4.823  -0.829   3.022  1.00  0.00    -0.345 N 
HETATM   41  C23 UNL     1      -4.365  -1.928   2.167  1.00  0.00     0.146 C 
HETATM   42  C26 UNL     1      -6.267  -0.761   3.262  1.00  0.00     0.146 C 
HETATM   43  C24 UNL     1      -5.142  -1.934   0.838  1.00  0.00     0.145 C 
HETATM   44  N9  UNL     1      -6.590  -1.722   0.996  1.00  0.00    -0.346 N 
HETATM   45  C25 UNL     1      -7.072  -1.735   2.388  1.00  0.00     0.145 C 
HETATM   46  C27 UNL     1      -7.513  -1.646  -0.032  1.00  0.00     0.254 C 
HETATM   47  O3  UNL     1      -8.722  -1.559   0.217  1.00  0.00    -0.270 OA
HETATM   48  O2  UNL     1      -4.465   0.979   4.405  1.00  0.00    -0.267 OA
BRANCH  46  49
HETATM   49  C28 UNL     1      -7.039  -1.472  -1.524  1.00  0.00     0.141 C 
HETATM   50  C29 UNL     1      -8.148  -1.997  -2.468  1.00  0.00     0.075 C 
HETATM   51  C30 UNL     1      -8.588  -0.967  -3.493  1.00  0.00     0.240 C 
HETATM   52  N10 UNL     1      -9.042   0.344  -2.842  1.00  0.00    -0.074 N 
HETATM   53  C31 UNL     1      -8.083   0.831  -1.744  1.00  0.00     0.240 C 
HETATM   54  C33 UNL     1     -10.447   0.171  -2.246  1.00  0.00     0.272 C 
HETATM   55  C34 UNL     1      -9.137   1.408  -3.942  1.00  0.00     0.272 C 
HETATM   56  C32 UNL     1      -6.787   0.033  -1.738  1.00  0.00     0.075 C 
BRANCH  49  57
HETATM   57  O4  UNL     1      -5.866  -2.181  -1.911  1.00  0.00    -0.380 OA
HETATM   58  H39 UNL     1      -5.074  -1.641  -1.752  1.00  0.00     0.211 HD
ENDBRANCH  49  57
ENDBRANCH  46  49
ENDBRANCH  35  39
ENDBRANCH   2  32
TORSDOF 9
