REMARK  26 active torsions:
REMARK  status: ('A' for Active; 'I' for Inactive)
REMARK    1  A    between atoms: C3_3  and  C23_23 
REMARK    2  A    between atoms: C6_6  and  C7_7 
REMARK       I    between atoms: C7_7  and  N1_43 
REMARK    3  A    between atoms: C8_8  and  N1_43 
REMARK    4  A    between atoms: C9_9  and  S1_63 
REMARK    5  A    between atoms: C10_10  and  C15_15 
REMARK    6  A    between atoms: C12_12  and  C14_14 
REMARK       I    between atoms: C15_15  and  N2_44 
REMARK    7  A    between atoms: C16_16  and  C17_17 
REMARK    8  A    between atoms: C16_16  and  N2_44 
REMARK    9  A    between atoms: C17_17  and  C18_18 
REMARK   10  A    between atoms: C18_18  and  C19_19 
REMARK   11  A    between atoms: C19_19  and  N3_45 
REMARK       I    between atoms: C20_20  and  N4_47 
REMARK       I    between atoms: C20_20  and  N5_48 
REMARK   12  A    between atoms: C21_21  and  C22_22 
REMARK   13  A    between atoms: C21_21  and  S1_63 
REMARK   14  A    between atoms: C22_22  and  N6_49 
REMARK       I    between atoms: C23_23  and  N7_50 
REMARK   15  A    between atoms: C24_24  and  N7_50 
REMARK   16  A    between atoms: C25_25  and  S2_64 
REMARK   17  A    between atoms: C26_26  and  C31_31 
REMARK   18  A    between atoms: C28_28  and  C30_30 
REMARK       I    between atoms: C31_31  and  N8_51 
REMARK   19  A    between atoms: C32_32  and  C33_33 
REMARK   20  A    between atoms: C32_32  and  N8_51 
REMARK   21  A    between atoms: C33_33  and  C34_34 
REMARK   22  A    between atoms: C34_34  and  C35_35 
REMARK   23  A    between atoms: C35_35  and  N9_52 
REMARK       I    between atoms: C36_36  and  N10_54 
REMARK       I    between atoms: C36_36  and  N11_55 
REMARK   24  A    between atoms: C37_37  and  C38_38 
REMARK   25  A    between atoms: C37_37  and  S2_64 
REMARK   26  A    between atoms: C38_38  and  N12_56 
ROOT
HETATM    1  C1  UNL     1      -0.364  -0.794   1.031  1.00  0.00     0.018 A 
HETATM    2  C2  UNL     1       0.960  -1.246   0.964  1.00  0.00     0.018 A 
HETATM    3  C3  UNL     1       1.574  -1.806   2.093  1.00  0.00     0.032 A 
HETATM    4  C4  UNL     1       0.839  -1.938   3.278  1.00  0.00     0.018 A 
HETATM    5  C5  UNL     1      -0.483  -1.487   3.346  1.00  0.00     0.018 A 
HETATM    6  C6  UNL     1      -1.086  -0.898   2.228  1.00  0.00     0.032 A 
ENDROOT
BRANCH   3   7
HETATM    7  C23 UNL     1       2.983  -2.302   2.075  1.00  0.00     0.256 C 
HETATM    8  O3  UNL     1       3.284  -3.215   2.834  1.00  0.00    -0.267 OA
HETATM    9  N7  UNL     1       3.838  -1.639   1.217  1.00  0.00    -0.322 N 
HETATM   10  H41 UNL     1       3.478  -0.837   0.707  1.00  0.00     0.169 HD
BRANCH   9  11
HETATM   11  C24 UNL     1       5.221  -1.869   1.005  1.00  0.00     0.053 A 
HETATM   12  C25 UNL     1       5.922  -0.975   0.155  1.00  0.00     0.043 A 
HETATM   13  C26 UNL     1       7.301  -1.175  -0.055  1.00  0.00     0.051 A 
HETATM   14  C27 UNL     1       7.956  -2.273   0.524  1.00  0.00     0.034 A 
HETATM   15  C28 UNL     1       7.267  -3.162   1.355  1.00  0.00     0.051 A 
HETATM   16  C29 UNL     1       5.900  -2.948   1.588  1.00  0.00     0.047 A 
BRANCH  12  17
HETATM   17  S2  UNL     1       4.997   0.370  -0.627  1.00  0.00    -0.125 SA
BRANCH  17  18
HETATM   18  C37 UNL     1       5.025  -0.198  -2.371  1.00  0.00     0.109 C 
BRANCH  18  19
HETATM   19  C38 UNL     1       4.154  -1.435  -2.637  1.00  0.00     0.277 C 
BRANCH  19  20
HETATM   20  N12 UNL     1       2.726  -1.211  -2.385  1.00  0.00     0.079 N 
HETATM   21  H47 UNL     1       2.217  -2.053  -2.660  1.00  0.00     0.312 HD
HETATM   22  H48 UNL     1       2.393  -0.472  -3.006  1.00  0.00     0.312 HD
ENDBRANCH  19  20
ENDBRANCH  18  19
ENDBRANCH  17  18
ENDBRANCH  12  17
BRANCH  13  23
HETATM   23  C31 UNL     1       8.157  -0.290  -0.884  1.00  0.00     0.253 C 
HETATM   24  O4  UNL     1       8.903  -0.790  -1.717  1.00  0.00    -0.268 OA
HETATM   25  N8  UNL     1       8.081   1.054  -0.610  1.00  0.00    -0.357 N 
HETATM   26  H42 UNL     1       7.429   1.380   0.093  1.00  0.00     0.162 HD
BRANCH  25  27
HETATM   27  C32 UNL     1       8.889   2.041  -1.299  1.00  0.00     0.123 C 
BRANCH  27  28
HETATM   28  C33 UNL     1      10.064   2.522  -0.449  1.00  0.00     0.021 C 
BRANCH  28  29
HETATM   29  C34 UNL     1      11.136   1.444  -0.256  1.00  0.00     0.021 C 
BRANCH  29  30
HETATM   30  C35 UNL     1      12.320   1.941   0.572  1.00  0.00     0.121 C 
BRANCH  30  31
HETATM   31  N9  UNL     1      13.013   3.035  -0.102  1.00  0.00    -0.372 N 
HETATM   32  C36 UNL     1      13.903   2.786  -0.983  1.00  0.00     0.121 C 
HETATM   33  N10 UNL     1      14.353   1.610  -1.470  1.00  0.00    -0.279 NA
HETATM   34  N11 UNL     1      14.538   3.806  -1.598  1.00  0.00    -0.279 NA
HETATM   35  H43 UNL     1      14.085   0.796  -0.932  1.00  0.00     0.126 HD
HETATM   36  H44 UNL     1      15.353   1.621  -1.635  1.00  0.00     0.126 HD
HETATM   37  H45 UNL     1      14.564   3.687  -2.603  1.00  0.00     0.126 HD
HETATM   38  H46 UNL     1      14.086   4.682  -1.355  1.00  0.00     0.126 HD
ATOM     39  H9  UNL     1      12.785   4.001   0.132  1.00  0.00     0.161 HD
ENDBRANCH  30  31
ENDBRANCH  29  30
ENDBRANCH  28  29
ENDBRANCH  27  28
ENDBRANCH  25  27
ENDBRANCH  13  23
BRANCH  15  40
HETATM   40  C30 UNL     1       7.964  -4.353   1.969  1.00  0.00     0.417 C 
HETATM   41  F4  UNL     1       9.322  -4.238   1.965  1.00  0.00    -0.166 F 
HETATM   42  F5  UNL     1       7.615  -4.562   3.267  1.00  0.00    -0.166 F 
HETATM   43  F6  UNL     1       7.685  -5.510   1.309  1.00  0.00    -0.166 F 
ENDBRANCH  15  40
ENDBRANCH   9  11
ENDBRANCH   3   7
BRANCH   6  44
HETATM   44  C7  UNL     1      -2.499  -0.431   2.340  1.00  0.00     0.256 C 
HETATM   45  O1  UNL     1      -3.210  -0.888   3.225  1.00  0.00    -0.267 OA
HETATM   46  N1  UNL     1      -2.854   0.585   1.461  1.00  0.00    -0.322 N 
HETATM   47  H33 UNL     1      -2.090   1.218   1.257  1.00  0.00     0.169 HD
BRANCH  46  48
HETATM   48  C8  UNL     1      -4.158   1.145   1.416  1.00  0.00     0.053 A 
HETATM   49  C9  UNL     1      -5.356   0.394   1.291  1.00  0.00     0.043 A 
HETATM   50  C10 UNL     1      -6.578   1.100   1.362  1.00  0.00     0.051 A 
HETATM   51  C11 UNL     1      -6.605   2.500   1.499  1.00  0.00     0.034 A 
HETATM   52  C12 UNL     1      -5.422   3.240   1.528  1.00  0.00     0.051 A 
HETATM   53  C13 UNL     1      -4.204   2.550   1.480  1.00  0.00     0.047 A 
BRANCH  49  54
HETATM   54  S1  UNL     1      -5.355  -1.387   1.002  1.00  0.00    -0.125 SA
BRANCH  54  55
HETATM   55  C21 UNL     1      -4.514  -1.486  -0.619  1.00  0.00     0.109 C 
BRANCH  55  56
HETATM   56  C22 UNL     1      -5.493  -1.527  -1.800  1.00  0.00     0.277 C 
BRANCH  56  57
HETATM   57  N6  UNL     1      -6.220  -0.270  -2.014  1.00  0.00     0.079 N 
HETATM   58  H39 UNL     1      -5.551   0.477  -2.209  1.00  0.00     0.312 HD
HETATM   59  H40 UNL     1      -6.782  -0.359  -2.863  1.00  0.00     0.312 HD
ENDBRANCH  56  57
ENDBRANCH  55  56
ENDBRANCH  54  55
ENDBRANCH  49  54
BRANCH  50  60
HETATM   60  C15 UNL     1      -7.920   0.468   1.294  1.00  0.00     0.253 C 
HETATM   61  O2  UNL     1      -8.733   0.679   2.187  1.00  0.00    -0.268 OA
HETATM   62  N2  UNL     1      -8.195  -0.229   0.143  1.00  0.00    -0.357 N 
HETATM   63  H34 UNL     1      -7.473  -0.288  -0.579  1.00  0.00     0.162 HD
BRANCH  62  64
HETATM   64  C16 UNL     1      -9.474  -0.855  -0.097  1.00  0.00     0.123 C 
BRANCH  64  65
HETATM   65  C17 UNL     1     -10.484   0.140  -0.660  1.00  0.00     0.021 C 
BRANCH  65  66
HETATM   66  C18 UNL     1     -11.825  -0.532  -0.943  1.00  0.00     0.021 C 
BRANCH  66  67
HETATM   67  C19 UNL     1     -12.847   0.474  -1.468  1.00  0.00     0.121 C 
BRANCH  67  68
HETATM   68  N3  UNL     1     -14.099  -0.204  -1.790  1.00  0.00    -0.372 N 
HETATM   69  C20 UNL     1     -14.968  -0.408  -0.876  1.00  0.00     0.121 C 
HETATM   70  N4  UNL     1     -14.945  -0.113   0.441  1.00  0.00    -0.279 NA
HETATM   71  N5  UNL     1     -16.123  -1.037  -1.182  1.00  0.00    -0.279 NA
HETATM   72  H35 UNL     1     -15.848   0.192   0.784  1.00  0.00     0.126 HD
HETATM   73  H36 UNL     1     -14.216   0.530   0.722  1.00  0.00     0.126 HD
HETATM   74  H37 UNL     1     -16.065  -1.407  -2.126  1.00  0.00     0.126 HD
HETATM   75  H38 UNL     1     -16.335  -1.778  -0.525  1.00  0.00     0.126 HD
ATOM     76  H3  UNL     1     -14.280  -0.515  -2.744  1.00  0.00     0.161 HD
ENDBRANCH  67  68
ENDBRANCH  66  67
ENDBRANCH  65  66
ENDBRANCH  64  65
ENDBRANCH  62  64
ENDBRANCH  50  60
BRANCH  52  77
HETATM   77  C14 UNL     1      -5.452   4.742   1.664  1.00  0.00     0.417 C 
HETATM   78  F1  UNL     1      -5.419   5.149   2.961  1.00  0.00    -0.166 F 
HETATM   79  F2  UNL     1      -6.560   5.308   1.113  1.00  0.00    -0.166 F 
HETATM   80  F3  UNL     1      -4.389   5.341   1.056  1.00  0.00    -0.166 F 
ENDBRANCH  52  77
ENDBRANCH  46  48
ENDBRANCH   6  44
TORSDOF 26
