REMARK  0 active torsions:
REMARK  status: ('A' for Active; 'I' for Inactive)
REMARK       I    between atoms: C2_2  and  C3_3 
REMARK       I    between atoms: C3_3  and  C5_5 
REMARK       I    between atoms: C5_5  and  C6_6 
REMARK       I    between atoms: C5_5  and  N3_101 
REMARK       I    between atoms: C6_6  and  C7_7 
REMARK       I    between atoms: C6_6  and  O5_82 
REMARK       I    between atoms: C7_7  and  C8_8 
REMARK       I    between atoms: C8_8  and  N1_99 
REMARK       I    between atoms: C12_12  and  C13_13 
REMARK       I    between atoms: C13_13  and  C14_14 
REMARK       I    between atoms: C13_13  and  O4_81 
REMARK       I    between atoms: C14_14  and  C16_16 
REMARK       I    between atoms: C16_16  and  N2_100 
REMARK       I    between atoms: C17_17  and  C19_19 
REMARK       I    between atoms: C17_17  and  N2_100 
REMARK       I    between atoms: C19_19  and  C20_20 
REMARK       I    between atoms: C19_19  and  O3_80 
REMARK       I    between atoms: C29_29  and  C30_30 
REMARK       I    between atoms: C29_29  and  N3_101 
REMARK       I    between atoms: C30_30  and  C31_31 
REMARK       I    between atoms: C30_30  and  N4_102 
REMARK       I    between atoms: C34_34  and  C35_35 
REMARK       I    between atoms: C34_34  and  N4_102 
REMARK       I    between atoms: C35_35  and  C36_36 
REMARK       I    between atoms: C35_35  and  N5_103 
REMARK       I    between atoms: C40_40  and  O9_86 
REMARK       I    between atoms: C40_40  and  N5_103 
REMARK       I    between atoms: C41_41  and  C42_42 
REMARK       I    between atoms: C41_41  and  O9_86 
REMARK       I    between atoms: C45_45  and  N6_104 
REMARK       I    between atoms: C48_48  and  C49_49 
REMARK       I    between atoms: C48_48  and  N6_104 
REMARK       I    between atoms: C49_49  and  C50_50 
REMARK       I    between atoms: C49_49  and  N9_107 
REMARK       I    between atoms: C50_50  and  C51_51 
REMARK       I    between atoms: C51_51  and  C52_52 
REMARK       I    between atoms: C52_52  and  N7_105 
REMARK       I    between atoms: C53_53  and  N7_105 
REMARK       I    between atoms: C53_53  and  N8_106 
REMARK       I    between atoms: C54_54  and  C55_55 
REMARK       I    between atoms: C54_54  and  N9_107 
REMARK       I    between atoms: C55_55  and  C56_56 
REMARK       I    between atoms: C55_55  and  N10_108 
REMARK       I    between atoms: C59_59  and  C60_60 
REMARK       I    between atoms: C59_59  and  N10_108 
REMARK       I    between atoms: C60_60  and  C61_61 
REMARK       I    between atoms: C61_61  and  O14_91 
REMARK       I    between atoms: C62_62  and  C63_63 
REMARK       I    between atoms: C62_62  and  O14_91 
REMARK       I    between atoms: C63_63  and  O15_92 
REMARK       I    between atoms: C64_64  and  C65_65 
REMARK       I    between atoms: C64_64  and  O15_92 
REMARK       I    between atoms: C65_65  and  O16_93 
REMARK       I    between atoms: C66_66  and  C67_67 
REMARK       I    between atoms: C66_66  and  O16_93 
REMARK       I    between atoms: C67_67  and  O17_94 
REMARK       I    between atoms: C68_68  and  C69_69 
REMARK       I    between atoms: C68_68  and  O17_94 
REMARK       I    between atoms: C69_69  and  O18_95 
REMARK       I    between atoms: C70_70  and  C71_71 
REMARK       I    between atoms: C70_70  and  O18_95 
REMARK       I    between atoms: C71_71  and  C72_72 
REMARK       I    between atoms: C72_72  and  C73_73 
REMARK       I    between atoms: C73_73  and  N11_109 
ROOT
HETATM    1  C1  UNL     1      -4.474   1.476   7.080  1.00  0.00     0.005 C 
HETATM    2  C2  UNL     1      -5.873   2.079   7.096  1.00  0.00     0.002 C 
HETATM    3  C3  UNL     1      -6.800   1.653   5.929  1.00  0.00     0.006 C 
HETATM    4  C4  UNL     1      -6.793   0.128   5.766  1.00  0.00     0.012 C 
HETATM    5  C5  UNL     1      -6.477   2.404   4.590  1.00  0.00     0.119 C 
HETATM    6  C6  UNL     1      -7.268   1.875   3.330  1.00  0.00     0.152 C 
HETATM    7  C7  UNL     1      -8.802   1.951   3.465  1.00  0.00     0.137 C 
HETATM    8  C8  UNL     1      -9.519   0.734   2.894  1.00  0.00     0.222 C 
HETATM    9  C9  UNL     1     -11.695   1.966   3.170  1.00  0.00     0.126 C 
HETATM   10  C10 UNL     1     -13.134   1.576   2.871  1.00  0.00     0.022 C 
HETATM   11  C11 UNL     1     -12.989   0.363   1.960  1.00  0.00     0.029 C 
HETATM   12  C12 UNL     1     -11.728  -0.350   2.473  1.00  0.00     0.117 C 
HETATM   13  C13 UNL     1     -12.071  -1.435   3.551  1.00  0.00     0.156 C 
HETATM   14  C14 UNL     1     -10.825  -2.213   4.049  1.00  0.00     0.105 C 
HETATM   15  C15 UNL     1     -10.282  -1.738   5.396  1.00  0.00     0.022 C 
HETATM   16  C16 UNL     1     -11.152  -3.705   4.088  1.00  0.00     0.224 C 
HETATM   17  C17 UNL     1     -11.494  -5.698   2.625  1.00  0.00     0.113 C 
HETATM   18  C18 UNL     1     -12.860  -6.143   3.151  1.00  0.00     0.035 C 
HETATM   19  C19 UNL     1     -11.297  -6.088   1.129  1.00  0.00     0.173 C 
HETATM   20  C20 UNL     1     -12.359  -5.583   0.168  1.00  0.00    -0.028 A 
HETATM   21  C21 UNL     1     -13.371  -6.450  -0.273  1.00  0.00     0.010 A 
HETATM   22  C22 UNL     1     -14.362  -6.003  -1.149  1.00  0.00     0.001 A 
HETATM   23  C23 UNL     1     -14.354  -4.684  -1.597  1.00  0.00     0.000 A 
HETATM   24  C24 UNL     1     -13.356  -3.812  -1.172  1.00  0.00     0.001 A 
HETATM   25  C25 UNL     1     -12.365  -4.257  -0.295  1.00  0.00     0.010 A 
HETATM   26  C26 UNL     1     -13.732  -1.698   5.254  1.00  0.00     0.202 C 
HETATM   27  C27 UNL     1      -7.176   2.017   0.937  1.00  0.00     0.202 C 
HETATM   28  C28 UNL     1      -7.838   4.514   5.013  1.00  0.00     0.153 C 
HETATM   29  C29 UNL     1      -5.532   4.787   4.369  1.00  0.00     0.243 C 
HETATM   30  C30 UNL     1      -4.087   4.258   4.178  1.00  0.00     0.180 C 
HETATM   31  C31 UNL     1      -3.026   5.338   4.532  1.00  0.00     0.009 C 
HETATM   32  C32 UNL     1      -2.785   6.377   3.430  1.00  0.00     0.012 C 
HETATM   33  C33 UNL     1      -1.689   4.686   4.908  1.00  0.00     0.012 C 
HETATM   34  C34 UNL     1      -3.310   2.570   2.512  1.00  0.00     0.241 C 
HETATM   35  C35 UNL     1      -3.275   2.257   0.988  1.00  0.00     0.184 C 
HETATM   36  C36 UNL     1      -2.409   1.016   0.633  1.00  0.00     0.010 C 
HETATM   37  C37 UNL     1      -2.079   0.918  -0.861  1.00  0.00     0.012 C 
HETATM   38  C38 UNL     1      -3.123  -0.282   1.047  1.00  0.00     0.012 C 
HETATM   39  C39 UNL     1      -3.909   3.960  -0.747  1.00  0.00     0.156 C 
HETATM   40  C40 UNL     1      -1.699   4.094   0.292  1.00  0.00     0.363 C 
HETATM   41  C41 UNL     1       0.453   3.989   1.270  1.00  0.00     0.219 C 
HETATM   42  C42 UNL     1       1.313   3.080   0.432  1.00  0.00    -0.034 A 
HETATM   43  C43 UNL     1       1.719   1.833   0.924  1.00  0.00     0.011 A 
HETATM   44  C44 UNL     1       2.482   0.966   0.134  1.00  0.00     0.030 A 
HETATM   45  C45 UNL     1       2.842   1.327  -1.164  1.00  0.00     0.034 A 
HETATM   46  C46 UNL     1       2.433   2.571  -1.659  1.00  0.00     0.030 A 
HETATM   47  C47 UNL     1       1.670   3.438  -0.872  1.00  0.00     0.011 A 
HETATM   48  C48 UNL     1       4.044  -0.775  -1.826  1.00  0.00     0.245 C 
HETATM   49  C49 UNL     1       4.953  -1.327  -2.973  1.00  0.00     0.177 C 
HETATM   50  C50 UNL     1       5.653  -2.650  -2.572  1.00  0.00     0.036 C 
HETATM   51  C51 UNL     1       6.431  -2.692  -1.243  1.00  0.00     0.022 C 
HETATM   52  C52 UNL     1       7.607  -1.734  -1.084  1.00  0.00     0.124 C 
HETATM   53  C53 UNL     1       9.159  -1.862  -3.015  1.00  0.00     0.313 C 
HETATM   54  C54 UNL     1       5.570   0.611  -4.445  1.00  0.00     0.241 C 
HETATM   55  C55 UNL     1       6.773   1.229  -5.207  1.00  0.00     0.180 C 
HETATM   56  C56 UNL     1       6.409   2.451  -6.083  1.00  0.00     0.009 C 
HETATM   57  C57 UNL     1       7.577   2.884  -6.979  1.00  0.00     0.012 C 
HETATM   58  C58 UNL     1       6.005   3.650  -5.211  1.00  0.00     0.012 C 
HETATM   59  C59 UNL     1       6.941  -0.492  -7.007  1.00  0.00     0.220 C 
HETATM   60  C60 UNL     1       7.777  -1.626  -7.547  1.00  0.00     0.129 C 
HETATM   61  C61 UNL     1       7.689  -2.851  -6.653  1.00  0.00     0.177 C 
HETATM   62  C62 UNL     1       9.471  -4.106  -7.726  1.00  0.00     0.193 C 
HETATM   63  C63 UNL     1      10.487  -3.958  -6.587  1.00  0.00     0.193 C 
HETATM   64  C64 UNL     1      11.902  -2.130  -7.164  1.00  0.00     0.193 C 
HETATM   65  C65 UNL     1      12.002  -0.601  -7.139  1.00  0.00     0.193 C 
HETATM   66  C66 UNL     1      13.299  -0.484  -5.121  1.00  0.00     0.193 C 
HETATM   67  C67 UNL     1      13.647   0.503  -4.004  1.00  0.00     0.193 C 
HETATM   68  C68 UNL     1      11.822   1.791  -3.199  1.00  0.00     0.193 C 
HETATM   69  C69 UNL     1      10.581   1.732  -2.313  1.00  0.00     0.193 C 
HETATM   70  C70 UNL     1       9.873   1.489  -0.063  1.00  0.00     0.175 C 
HETATM   71  C71 UNL     1      10.404   0.950   1.251  1.00  0.00     0.106 C 
HETATM   72  C72 UNL     1      10.800  -0.503   1.088  1.00  0.00     0.147 C 
HETATM   73  C73 UNL     1      12.036  -0.799   0.240  1.00  0.00     0.213 C 
HETATM   74  C74 UNL     1      13.363  -2.304   1.682  1.00  0.00     0.227 A 
HETATM   75  C75 UNL     1      13.637  -3.771   1.818  1.00  0.00     0.112 A 
HETATM   76  C76 UNL     1      12.824  -4.414   0.709  1.00  0.00     0.112 A 
HETATM   77  C77 UNL     1      12.185  -3.261  -0.007  1.00  0.00     0.227 A 
HETATM   78  O1  UNL     1      -8.910  -0.225   2.422  1.00  0.00    -0.273 OA
HETATM   79  O2  UNL     1     -11.341  -4.331   5.124  1.00  0.00    -0.273 OA
HETATM   80  O3  UNL     1     -10.012  -5.612   0.696  1.00  0.00    -0.389 OA
HETATM   81  O4  UNL     1     -12.795  -0.823   4.634  1.00  0.00    -0.388 OA
HETATM   82  O5  UNL     1      -6.823   2.626   2.174  1.00  0.00    -0.388 OA
HETATM   83  O6  UNL     1      -5.786   5.982   4.173  1.00  0.00    -0.271 OA
HETATM   84  O7  UNL     1      -2.942   1.784   3.382  1.00  0.00    -0.271 OA
HETATM   85  O8  UNL     1      -1.364   5.036  -0.415  1.00  0.00    -0.238 OA
HETATM   86  O9  UNL     1      -0.898   3.521   1.223  1.00  0.00    -0.299 OA
HETATM   87  O10 UNL     1       3.652  -1.504  -0.915  1.00  0.00    -0.271 OA
HETATM   88  O11 UNL     1       8.537  -1.097  -3.741  1.00  0.00    -0.248 OA
HETATM   89  O12 UNL     1       4.415   1.026  -4.513  1.00  0.00    -0.271 OA
HETATM   90  O13 UNL     1       5.878  -0.173  -7.528  1.00  0.00    -0.274 OA
HETATM   91  O14 UNL     1       8.107  -4.054  -7.301  1.00  0.00    -0.389 OA
HETATM   92  O15 UNL     1      10.811  -2.577  -6.352  1.00  0.00    -0.387 OA
HETATM   93  O16 UNL     1      12.159  -0.020  -5.844  1.00  0.00    -0.387 OA
HETATM   94  O17 UNL     1      12.585   0.584  -3.048  1.00  0.00    -0.387 OA
HETATM   95  O18 UNL     1      10.982   1.672  -0.940  1.00  0.00    -0.389 OA
HETATM   96  O19 UNL     1      10.121  -1.400   1.598  1.00  0.00    -0.296 OA
HETATM   97  O20 UNL     1      13.813  -1.442   2.423  1.00  0.00    -0.273 OA
HETATM   98  O21 UNL     1      11.465  -3.373  -0.991  1.00  0.00    -0.273 OA
HETATM   99  N1  UNL     1     -10.900   0.762   2.956  1.00  0.00    -0.345 N 
HETATM  100  N2  UNL     1     -11.257  -4.264   2.829  1.00  0.00    -0.354 N 
HETATM  101  N3  UNL     1      -6.546   3.896   4.752  1.00  0.00    -0.347 N 
HETATM  102  N4  UNL     1      -3.926   3.764   2.819  1.00  0.00    -0.346 N 
HETATM  103  N5  UNL     1      -2.950   3.495   0.239  1.00  0.00    -0.319 N 
HETATM  104  N6  UNL     1       3.617   0.524  -2.020  1.00  0.00    -0.325 N 
HETATM  105  N7  UNL     1       8.801  -2.200  -1.754  1.00  0.00    -0.343 N 
HETATM  106  N8  UNL     1      10.281  -2.487  -3.427  1.00  0.00    -0.352 N 
HETATM  107  N9  UNL     1       5.922  -0.389  -3.555  1.00  0.00    -0.346 N 
HETATM  108  N10 UNL     1       7.473   0.146  -5.910  1.00  0.00    -0.347 N 
HETATM  109  N11 UNL     1      12.549  -2.103   0.609  1.00  0.00    -0.281 N 
HETATM  110  HB5 UNL     1      -9.978  -5.745  -0.269  1.00  0.00     0.210 HD
HETATM  111  HB6 UNL     1     -10.633  -3.865   2.135  1.00  0.00     0.163 HD
HETATM  112  HB7 UNL     1      -4.243   4.353   2.058  1.00  0.00     0.163 HD
HETATM  113  HB8 UNL     1       3.803   0.909  -2.947  1.00  0.00     0.169 HD
HETATM  114  HB9 UNL     1       9.387  -2.883  -1.284  1.00  0.00     0.164 HD
HETATM  115  HC0 UNL     1      10.954  -2.769  -2.721  1.00  0.00     0.160 HD
HETATM  116  HC1 UNL     1      10.657  -2.189  -4.323  1.00  0.00     0.160 HD
HETATM  117  HC2 UNL     1       6.874  -0.739  -3.677  1.00  0.00     0.163 HD
HETATM  118  HC3 UNL     1       8.201  -0.335  -5.378  1.00  0.00     0.163 HD
ENDROOT
TORSDOF 54
