REMARK  0 active torsions:
REMARK  status: ('A' for Active; 'I' for Inactive)
REMARK       I    between atoms: C2_2  and  C3_3 
REMARK       I    between atoms: C3_3  and  C5_5 
REMARK       I    between atoms: C5_5  and  C6_6 
REMARK       I    between atoms: C5_5  and  N8_98 
REMARK       I    between atoms: C6_6  and  N1_91 
REMARK       I    between atoms: C7_7  and  C8_8 
REMARK       I    between atoms: C7_7  and  C9_9 
REMARK       I    between atoms: C7_7  and  N1_91 
REMARK       I    between atoms: C8_8  and  O2_75 
REMARK       I    between atoms: C9_9  and  N2_92 
REMARK       I    between atoms: C10_10  and  C11_11 
REMARK       I    between atoms: C10_10  and  N2_92 
REMARK       I    between atoms: C11_11  and  N3_93 
REMARK       I    between atoms: C12_12  and  C13_13 
REMARK       I    between atoms: C12_12  and  C20_20 
REMARK       I    between atoms: C12_12  and  N3_93 
REMARK       I    between atoms: C13_13  and  C14_14 
REMARK       I    between atoms: C20_20  and  N4_94 
REMARK       I    between atoms: C21_21  and  C22_22 
REMARK       I    between atoms: C21_21  and  C29_29 
REMARK       I    between atoms: C21_21  and  N4_94 
REMARK       I    between atoms: C22_22  and  C23_23 
REMARK       I    between atoms: C29_29  and  N5_95 
REMARK       I    between atoms: C30_30  and  C31_31 
REMARK       I    between atoms: C30_30  and  C34_34 
REMARK       I    between atoms: C30_30  and  N5_95 
REMARK       I    between atoms: C31_31  and  C32_32 
REMARK       I    between atoms: C32_32  and  C33_33 
REMARK       I    between atoms: C33_33  and  O7_80 
REMARK       I    between atoms: C34_34  and  N6_96 
REMARK       I    between atoms: C35_35  and  C36_36 
REMARK       I    between atoms: C35_35  and  C43_43 
REMARK       I    between atoms: C35_35  and  N6_96 
REMARK       I    between atoms: C36_36  and  C37_37 
REMARK       I    between atoms: C43_43  and  N7_97 
REMARK       I    between atoms: C44_44  and  C45_45 
REMARK       I    between atoms: C44_44  and  N8_98 
REMARK       I    between atoms: C49_49  and  C50_50 
REMARK       I    between atoms: C49_49  and  N9_99 
REMARK       I    between atoms: C50_50  and  C51_51 
REMARK       I    between atoms: C50_50  and  N10_100 
REMARK       I    between atoms: C51_51  and  C52_52 
REMARK       I    between atoms: C58_58  and  C59_59 
REMARK       I    between atoms: C58_58  and  N10_100 
REMARK       I    between atoms: C59_59  and  C60_60 
REMARK       I    between atoms: C59_59  and  N12_102 
REMARK       I    between atoms: C60_60  and  C61_61 
REMARK       I    between atoms: C61_61  and  N11_101 
REMARK       I    between atoms: C62_62  and  C63_63 
REMARK       I    between atoms: C62_62  and  N12_102 
REMARK       I    between atoms: C63_63  and  C64_64 
REMARK       I    between atoms: C63_63  and  N13_103 
REMARK       I    between atoms: C64_64  and  C65_65 
REMARK       I    between atoms: C68_68  and  C69_69 
REMARK       I    between atoms: C68_68  and  N13_103 
REMARK       I    between atoms: C69_69  and  C70_70 
REMARK       I    between atoms: C69_69  and  N14_104 
REMARK       I    between atoms: C70_70  and  O16_89 
REMARK       I    between atoms: C72_72  and  N14_104 
ROOT
HETATM    1  C1  UNL     1      -1.061  -2.440  -3.117  1.00  0.00     0.005 C 
HETATM    2  C2  UNL     1      -1.380  -0.973  -2.880  1.00  0.00     0.002 C 
HETATM    3  C3  UNL     1      -0.458  -0.216  -1.900  1.00  0.00     0.013 C 
HETATM    4  C4  UNL     1       1.001  -0.216  -2.369  1.00  0.00     0.012 C 
HETATM    5  C5  UNL     1      -0.675  -0.608  -0.419  1.00  0.00     0.180 C 
HETATM    6  C6  UNL     1      -0.164  -1.996   0.018  1.00  0.00     0.241 C 
HETATM    7  C7  UNL     1      -0.253  -3.506   1.968  1.00  0.00     0.200 C 
HETATM    8  C8  UNL     1       0.628  -2.766   2.985  1.00  0.00     0.199 C 
HETATM    9  C9  UNL     1      -1.338  -4.339   2.667  1.00  0.00     0.242 C 
HETATM   10  C10 UNL     1      -3.518  -5.436   2.322  1.00  0.00     0.225 C 
HETATM   11  C11 UNL     1      -4.487  -4.325   2.732  1.00  0.00     0.235 C 
HETATM   12  C12 UNL     1      -4.726  -2.441   4.344  1.00  0.00     0.116 C 
HETATM   13  C13 UNL     1      -4.843  -2.409   5.882  1.00  0.00     0.065 C 
HETATM   14  C14 UNL     1      -5.690  -1.267   6.394  1.00  0.00    -0.056 A 
HETATM   15  C15 UNL     1      -7.081  -1.285   6.225  1.00  0.00     0.007 A 
HETATM   16  C16 UNL     1      -7.864  -0.221   6.676  1.00  0.00     0.001 A 
HETATM   17  C17 UNL     1      -7.263   0.871   7.299  1.00  0.00     0.000 A 
HETATM   18  C18 UNL     1      -5.881   0.897   7.477  1.00  0.00     0.001 A 
HETATM   19  C19 UNL     1      -5.097  -0.167   7.029  1.00  0.00     0.007 A 
HETATM   20  C20 UNL     1      -3.856  -1.255   3.825  1.00  0.00     0.296 C 
HETATM   21  C21 UNL     1      -4.964  -0.685   1.697  1.00  0.00     0.315 C 
HETATM   22  C22 UNL     1      -5.218   0.830   1.851  1.00  0.00     0.084 C 
HETATM   23  C23 UNL     1      -6.674   1.165   1.606  1.00  0.00    -0.056 A 
HETATM   24  C24 UNL     1      -7.606   1.068   2.648  1.00  0.00     0.007 A 
HETATM   25  C25 UNL     1      -8.956   1.335   2.415  1.00  0.00     0.001 A 
HETATM   26  C26 UNL     1      -9.385   1.700   1.140  1.00  0.00     0.000 A 
HETATM   27  C27 UNL     1      -8.465   1.799   0.098  1.00  0.00     0.001 A 
HETATM   28  C28 UNL     1      -7.115   1.531   0.330  1.00  0.00     0.007 A 
HETATM   29  C29 UNL     1      -4.812  -1.030   0.197  1.00  0.00     0.252 C 
HETATM   30  C30 UNL     1      -4.991  -2.858  -1.437  1.00  0.00     0.177 C 
HETATM   31  C31 UNL     1      -5.425  -4.337  -1.457  1.00  0.00     0.045 C 
HETATM   32  C32 UNL     1      -4.617  -5.204  -2.429  1.00  0.00     0.112 C 
HETATM   33  C33 UNL     1      -3.185  -5.360  -1.993  1.00  0.00     0.139 C 
HETATM   34  C34 UNL     1      -5.608  -2.147  -2.670  1.00  0.00     0.241 C 
HETATM   35  C35 UNL     1      -7.502  -0.658  -3.427  1.00  0.00     0.180 C 
HETATM   36  C36 UNL     1      -6.713   0.274  -4.364  1.00  0.00     0.073 C 
HETATM   37  C37 UNL     1      -6.225   1.536  -3.695  1.00  0.00    -0.056 A 
HETATM   38  C38 UNL     1      -7.048   2.668  -3.620  1.00  0.00     0.007 A 
HETATM   39  C39 UNL     1      -6.594   3.833  -2.999  1.00  0.00     0.001 A 
HETATM   40  C40 UNL     1      -5.315   3.877  -2.445  1.00  0.00     0.000 A 
HETATM   41  C41 UNL     1      -4.490   2.756  -2.513  1.00  0.00     0.001 A 
HETATM   42  C42 UNL     1      -4.942   1.593  -3.137  1.00  0.00     0.007 A 
HETATM   43  C43 UNL     1      -8.343  -1.656  -4.245  1.00  0.00     0.238 C 
HETATM   44  C44 UNL     1      -0.562   0.936   1.553  1.00  0.00     0.241 C 
HETATM   45  C45 UNL     1       0.359   1.913   2.323  1.00  0.00     0.179 C 
HETATM   46  C46 UNL     1       0.230   3.325   1.754  1.00  0.00     0.037 C 
HETATM   47  C47 UNL     1       1.276   3.363   0.650  1.00  0.00     0.022 C 
HETATM   48  C48 UNL     1       2.408   2.501   1.196  1.00  0.00     0.127 C 
HETATM   49  C49 UNL     1       2.401   0.743   3.060  1.00  0.00     0.243 C 
HETATM   50  C50 UNL     1       3.926   0.465   3.018  1.00  0.00     0.181 C 
HETATM   51  C51 UNL     1       4.693   1.272   4.080  1.00  0.00     0.073 C 
HETATM   52  C52 UNL     1       4.680   2.773   3.930  1.00  0.00    -0.056 A 
HETATM   53  C53 UNL     1       3.674   3.538   4.537  1.00  0.00     0.007 A 
HETATM   54  C54 UNL     1       3.652   4.925   4.387  1.00  0.00     0.001 A 
HETATM   55  C55 UNL     1       4.636   5.561   3.632  1.00  0.00     0.000 A 
HETATM   56  C56 UNL     1       5.645   4.811   3.032  1.00  0.00     0.001 A 
HETATM   57  C57 UNL     1       5.670   3.424   3.183  1.00  0.00     0.007 A 
HETATM   58  C58 UNL     1       4.372  -0.579   0.838  1.00  0.00     0.241 C 
HETATM   59  C59 UNL     1       4.820  -0.347  -0.628  1.00  0.00     0.185 C 
HETATM   60  C60 UNL     1       4.674  -1.652  -1.422  1.00  0.00     0.137 C 
HETATM   61  C61 UNL     1       4.481  -1.384  -2.893  1.00  0.00     0.217 C 
HETATM   62  C62 UNL     1       6.441   1.541  -0.540  1.00  0.00     0.241 C 
HETATM   63  C63 UNL     1       7.855   1.974  -0.996  1.00  0.00     0.177 C 
HETATM   64  C64 UNL     1       8.238   3.319  -0.357  1.00  0.00     0.038 C 
HETATM   65  C65 UNL     1       9.731   3.712  -0.407  1.00  0.00    -0.020 C 
HETATM   66  C66 UNL     1      10.620   2.722   0.346  1.00  0.00     0.009 C 
HETATM   67  C67 UNL     1      10.258   3.930  -1.823  1.00  0.00     0.009 C 
HETATM   68  C68 UNL     1       8.026   0.944  -3.253  1.00  0.00     0.243 C 
HETATM   69  C69 UNL     1       8.160   1.235  -4.758  1.00  0.00     0.205 C 
HETATM   70  C70 UNL     1       6.807   1.179  -5.486  1.00  0.00     0.146 C 
HETATM   71  C71 UNL     1       5.848   2.286  -5.070  1.00  0.00     0.042 C 
HETATM   72  C72 UNL     1      10.428   0.423  -5.273  1.00  0.00     0.214 C 
HETATM   73  C73 UNL     1      11.248  -0.787  -5.633  1.00  0.00     0.117 C 
HETATM   74  O1  UNL     1       0.875  -2.500  -0.405  1.00  0.00    -0.271 OA
HETATM   75  O2  UNL     1      -0.100  -1.682   3.574  1.00  0.00    -0.398 OA
HETATM   76  O3  UNL     1      -1.333  -4.634   3.861  1.00  0.00    -0.271 OA
HETATM   77  O4  UNL     1      -5.435  -3.985   2.027  1.00  0.00    -0.272 OA
HETATM   78  O5  UNL     1      -4.205  -0.331  -0.611  1.00  0.00    -0.271 OA
HETATM   79  O6  UNL     1      -2.683  -4.944  -0.962  1.00  0.00    -0.650 OA
HETATM   80  O7  UNL     1      -2.454  -6.050  -2.887  1.00  0.00    -0.776 OA
HETATM   81  O8  UNL     1      -5.220  -2.386  -3.815  1.00  0.00    -0.271 OA
HETATM   82  O9  UNL     1      -9.564  -1.745  -4.147  1.00  0.00    -0.271 OA
HETATM   83  O10 UNL     1      -1.759   0.831   1.810  1.00  0.00    -0.271 OA
HETATM   84  O11 UNL     1       1.738   0.237   3.978  1.00  0.00    -0.271 OA
HETATM   85  O12 UNL     1       3.784  -1.596   1.201  1.00  0.00    -0.271 OA
HETATM   86  O13 UNL     1       4.699  -0.309  -3.439  1.00  0.00    -0.274 OA
HETATM   87  O14 UNL     1       5.609   2.312  -0.062  1.00  0.00    -0.271 OA
HETATM   88  O15 UNL     1       8.057  -0.197  -2.787  1.00  0.00    -0.271 OA
HETATM   89  O16 UNL     1       7.027   1.328  -6.900  1.00  0.00    -0.393 OA
HETATM   90  O17 UNL     1      10.938   1.495  -4.967  1.00  0.00    -0.274 OA
HETATM   91  N1  UNL     1      -0.890  -2.552   1.053  1.00  0.00    -0.344 N 
HETATM   92  N2  UNL     1      -2.308  -4.824   1.813  1.00  0.00    -0.350 N 
HETATM   93  N3  UNL     1      -4.153  -3.724   3.929  1.00  0.00    -0.353 N 
HETATM   94  N4  UNL     1      -3.713  -1.148   2.359  1.00  0.00     0.099 N 
HETATM   95  N5  UNL     1      -5.383  -2.239  -0.168  1.00  0.00    -0.346 N 
HETATM   96  N6  UNL     1      -6.718  -1.378  -2.418  1.00  0.00    -0.346 N 
HETATM   97  N7  UNL     1      -7.658  -2.461  -5.111  1.00  0.00    -0.368 N 
HETATM   98  N8  UNL     1       0.025   0.339   0.458  1.00  0.00    -0.346 N 
HETATM   99  N9  UNL     1       1.788   1.598   2.162  1.00  0.00    -0.337 N 
HETATM  100  N10 UNL     1       4.537   0.490   1.696  1.00  0.00    -0.346 N 
HETATM  101  N11 UNL     1       4.074  -2.467  -3.617  1.00  0.00    -0.370 N 
HETATM  102  N12 UNL     1       6.179   0.198  -0.721  1.00  0.00    -0.346 N 
HETATM  103  N13 UNL     1       7.860   2.052  -2.454  1.00  0.00    -0.346 N 
HETATM  104  N14 UNL     1       9.066   0.211  -5.308  1.00  0.00    -0.346 N 
HETATM  105  H83 UNL     1       0.568  -1.083   3.975  1.00  0.00     0.209 HD
HETATM  106  H84 UNL     1      -1.551  -6.076  -2.506  1.00  0.00     0.167 HD
HETATM  107  H85 UNL     1       7.828   0.813  -7.111  1.00  0.00     0.210 HD
HETATM  108  H86 UNL     1      -1.575  -1.947   1.508  1.00  0.00     0.163 HD
HETATM  109  H87 UNL     1      -2.327  -4.456   0.859  1.00  0.00     0.163 HD
HETATM  110  H88 UNL     1      -3.220  -3.940   4.282  1.00  0.00     0.163 HD
HETATM  111  H89 UNL     1      -3.005  -0.415   2.174  1.00  0.00     0.317 HD
HETATM  112  H90 UNL     1      -5.510  -2.873   0.629  1.00  0.00     0.163 HD
HETATM  113  H91 UNL     1      -6.894  -1.158  -1.442  1.00  0.00     0.163 HD
HETATM  114  H92 UNL     1      -8.177  -3.210  -5.548  1.00  0.00     0.159 HD
HETATM  115  H93 UNL     1      -6.659  -2.604  -4.959  1.00  0.00     0.159 HD
HETATM  116  H94 UNL     1       1.034   0.251   0.509  1.00  0.00     0.163 HD
HETATM  117  H95 UNL     1       4.834   1.380   1.295  1.00  0.00     0.163 HD
HETATM  118  H96 UNL     1       3.605  -3.241  -3.161  1.00  0.00     0.159 HD
HETATM  119  H97 UNL     1       3.828  -2.293  -4.584  1.00  0.00     0.159 HD
HETATM  120  H98 UNL     1       6.814  -0.265  -1.375  1.00  0.00     0.163 HD
HETATM  121  H99 UNL     1       7.699   2.955  -2.885  1.00  0.00     0.163 HD
HETATM  122  HA0 UNL     1       8.771  -0.747  -5.145  1.00  0.00     0.163 HD
ENDROOT
TORSDOF 46
