REMARK  13 active torsions:
REMARK  status: ('A' for Active; 'I' for Inactive)
REMARK    1  A    between atoms: C2_2  and  O1_33 
REMARK    2  A    between atoms: C3_3  and  C4_4 
REMARK    3  A    between atoms: C3_3  and  O1_33 
REMARK    4  A    between atoms: C4_4  and  O2_34 
REMARK    5  A    between atoms: C5_5  and  O2_34 
REMARK    6  A    between atoms: C6_6  and  O4_36 
REMARK       I    between atoms: C13_13  and  N1_39 
REMARK       I    between atoms: C13_13  and  N2_40 
REMARK    7  A    between atoms: C15_15  and  O4_36 
REMARK    8  A    between atoms: C17_17  and  N4_43 
REMARK    9  A    between atoms: C20_20  and  C21_21 
REMARK       I    between atoms: C20_20  and  N4_43 
REMARK   10  A    between atoms: C24_24  and  C27_27 
REMARK   11  A    between atoms: C30_30  and  C31_31 
REMARK   12  A    between atoms: C30_30  and  N5_44 
REMARK   13  A    between atoms: C31_31  and  O6_38 
ROOT
HETATM    1  C15 UNL     1      -2.043   0.271   0.604  1.00  0.00     0.081 A 
HETATM    2  C16 UNL     1      -0.680   0.142   0.863  1.00  0.00     0.085 A 
HETATM    3  C17 UNL     1       0.216   0.482  -0.137  1.00  0.00     0.110 A 
HETATM    4  C18 UNL     1      -1.506   1.083  -1.557  1.00  0.00     0.092 A 
HETATM    5  C19 UNL     1      -2.471   0.762  -0.624  1.00  0.00     0.054 A 
HETATM    6  N3  UNL     1      -0.179   0.951  -1.342  1.00  0.00    -0.352 N 
ATOM      7  H3  UNL     1       0.500   1.196  -2.062  1.00  0.00     0.166 HD
ENDROOT
BRANCH   1   8
HETATM    8  O4  UNL     1      -2.896  -0.053   1.638  1.00  0.00    -0.308 OA
BRANCH   8   9
HETATM    9  C6  UNL     1      -4.110  -0.609   1.293  1.00  0.00     0.110 A 
HETATM   10  C5  UNL     1      -5.284   0.085   1.590  1.00  0.00     0.104 A 
HETATM   11  C12 UNL     1      -6.524  -0.488   1.287  1.00  0.00     0.070 A 
HETATM   12  C11 UNL     1      -6.564  -1.746   0.644  1.00  0.00     0.056 A 
HETATM   13  C8  UNL     1      -5.386  -2.446   0.361  1.00  0.00    -0.005 A 
HETATM   14  N1  UNL     1      -7.647  -2.508   0.174  1.00  0.00    -0.274 N 
HETATM   15  C7  UNL     1      -4.144  -1.879   0.702  1.00  0.00     0.054 A 
HETATM   16  C9  UNL     1      -5.755  -3.676  -0.229  1.00  0.00     0.031 A 
HETATM   17  C10 UNL     1      -7.126  -3.706  -0.306  1.00  0.00     0.103 A 
HETATM   18  C13 UNL     1      -9.014  -2.111   0.199  1.00  0.00     0.326 C 
HETATM   19  O3  UNL     1      -9.360  -1.079   0.758  1.00  0.00    -0.246 OA
HETATM   20  N2  UNL     1      -9.853  -2.969  -0.484  1.00  0.00    -0.347 N 
HETATM   21  C14 UNL     1     -11.250  -2.644  -0.624  1.00  0.00     0.151 C 
HETATM   22  H36 UNL     1      -9.471  -3.630  -1.143  1.00  0.00     0.163 HD
BRANCH  10  23
HETATM   23  O2  UNL     1      -5.145   1.294   2.221  1.00  0.00    -0.346 OA
BRANCH  23  24
HETATM   24  C4  UNL     1      -6.029   2.348   1.821  1.00  0.00     0.201 C 
BRANCH  24  25
HETATM   25  C3  UNL     1      -5.588   3.004   0.506  1.00  0.00     0.194 C 
BRANCH  25  26
HETATM   26  O1  UNL     1      -5.838   2.199  -0.651  1.00  0.00    -0.389 OA
BRANCH  26  27
HETATM   27  C2  UNL     1      -7.198   2.226  -1.077  1.00  0.00     0.163 C 
HETATM   28  C1  UNL     1      -7.339   1.301  -2.271  1.00  0.00     0.033 C 
ENDBRANCH  26  27
ENDBRANCH  25  26
ENDBRANCH  24  25
ENDBRANCH  23  24
ENDBRANCH  10  23
ENDBRANCH   8   9
ENDBRANCH   1   8
BRANCH   3  29
HETATM   29  N4  UNL     1       1.603   0.396  -0.016  1.00  0.00    -0.309 N 
HETATM   30  C20 UNL     1       2.337  -0.104   1.033  1.00  0.00     0.257 C 
HETATM   31  O5  UNL     1       1.892  -0.630   2.046  1.00  0.00    -0.267 OA
HETATM   32  H37 UNL     1       2.067   0.688  -0.864  1.00  0.00     0.170 HD
BRANCH  30  33
HETATM   33  C21 UNL     1       3.817  -0.018   0.867  1.00  0.00     0.032 A 
HETATM   34  C22 UNL     1       4.613  -1.001   1.458  1.00  0.00     0.017 A 
HETATM   35  C23 UNL     1       6.006  -0.952   1.325  1.00  0.00     0.009 A 
HETATM   36  C24 UNL     1       6.657   0.075   0.614  1.00  0.00    -0.051 A 
HETATM   37  C25 UNL     1       5.824   1.061   0.046  1.00  0.00     0.009 A 
HETATM   38  C26 UNL     1       4.429   1.025   0.169  1.00  0.00     0.017 A 
BRANCH  36  39
HETATM   39  C27 UNL     1       8.242   0.107   0.479  1.00  0.00     0.075 C 
HETATM   40  C28 UNL     1       8.881   0.275  -0.919  1.00  0.00     0.283 C 
HETATM   41  N5  UNL     1       9.873   1.224  -0.356  1.00  0.00     0.092 N 
HETATM   42  C29 UNL     1       9.010   1.399   0.837  1.00  0.00     0.283 C 
BRANCH  41  43
HETATM   43  C30 UNL     1      11.126   0.536   0.008  1.00  0.00     0.303 C 
BRANCH  43  44
HETATM   44  C31 UNL     1      12.213   0.641  -1.084  1.00  0.00     0.142 C 
HETATM   45  C32 UNL     1      11.845  -0.030  -2.400  1.00  0.00     0.041 C 
BRANCH  44  46
HETATM   46  O6  UNL     1      13.406   0.024  -0.585  1.00  0.00    -0.394 OA
HETATM   47  H35 UNL     1      14.106   0.181  -1.243  1.00  0.00     0.210 HD
ENDBRANCH  44  46
ENDBRANCH  43  44
ENDBRANCH  41  43
ENDBRANCH  36  39
ENDBRANCH  30  33
ENDBRANCH   3  29
TORSDOF 13
