REMARK  0 active torsions:
REMARK  status: ('A' for Active; 'I' for Inactive)
REMARK       I    between atoms: C4_4  and  C11_11 
REMARK       I    between atoms: C7_7  and  C8_8 
REMARK       I    between atoms: C7_7  and  N3_67 
REMARK       I    between atoms: C8_8  and  O2_77 
REMARK       I    between atoms: C9_9  and  C10_10 
REMARK       I    between atoms: C9_9  and  N2_66 
REMARK       I    between atoms: C10_10  and  O4_79 
REMARK       I    between atoms: C11_11  and  C12_12 
REMARK       I    between atoms: C15_15  and  N4_68 
REMARK       I    between atoms: C18_18  and  N4_68 
REMARK       I    between atoms: C18_18  and  N5_69 
REMARK       I    between atoms: C19_19  and  C20_20 
REMARK       I    between atoms: C19_19  and  C27_27 
REMARK       I    between atoms: C19_19  and  N5_69 
REMARK       I    between atoms: C20_20  and  C21_21 
REMARK       I    between atoms: C27_27  and  N6_70 
REMARK       I    between atoms: C28_28  and  C29_29 
REMARK       I    between atoms: C28_28  and  C36_36 
REMARK       I    between atoms: C28_28  and  N6_70 
REMARK       I    between atoms: C29_29  and  C30_30 
REMARK       I    between atoms: C36_36  and  N7_71 
REMARK       I    between atoms: C37_37  and  C38_38 
REMARK       I    between atoms: C37_37  and  N7_71 
REMARK       I    between atoms: C38_38  and  C39_39 
REMARK       I    between atoms: C39_39  and  C40_40 
REMARK       I    between atoms: C40_40  and  C41_41 
REMARK       I    between atoms: C41_41  and  C42_42 
REMARK       I    between atoms: C41_41  and  N8_72 
REMARK       I    between atoms: C42_42  and  O8_83 
REMARK       I    between atoms: C43_43  and  C44_44 
REMARK       I    between atoms: C43_43  and  N8_72 
REMARK       I    between atoms: C44_44  and  C45_45 
REMARK       I    between atoms: C45_45  and  C46_46 
REMARK       I    between atoms: C46_46  and  C47_47 
REMARK       I    between atoms: C47_47  and  C48_48 
REMARK       I    between atoms: C48_48  and  C49_49 
REMARK       I    between atoms: C49_49  and  C50_50 
REMARK       I    between atoms: C50_50  and  N9_73 
REMARK       I    between atoms: C51_51  and  C52_52 
REMARK       I    between atoms: C51_51  and  N9_73 
REMARK       I    between atoms: C52_52  and  C53_53 
REMARK       I    between atoms: C53_53  and  C54_54 
REMARK       I    between atoms: C54_54  and  C55_55 
REMARK       I    between atoms: C55_55  and  C56_56 
REMARK       I    between atoms: C55_55  and  N10_74 
REMARK       I    between atoms: C56_56  and  O12_87 
REMARK       I    between atoms: C57_57  and  N10_74 
REMARK       I    between atoms: C57_57  and  N11_75 
REMARK       I    between atoms: C58_58  and  C59_59 
REMARK       I    between atoms: C58_58  and  C62_62 
REMARK       I    between atoms: C58_58  and  N11_75 
REMARK       I    between atoms: C59_59  and  C60_60 
REMARK       I    between atoms: C60_60  and  C61_61 
REMARK       I    between atoms: C61_61  and  O15_90 
REMARK       I    between atoms: C62_62  and  O17_92 
REMARK       I    between atoms: C63_63  and  C64_64 
REMARK       I    between atoms: C63_63  and  N1_65 
REMARK       I    between atoms: C64_64  and  O19_94 
ROOT
HETATM    1  C1  UNL     1     -14.536   4.281  -2.589  1.00  0.00     0.303 C 
HETATM    2  C2  UNL     1     -14.837   3.543  -3.924  1.00  0.00     0.303 C 
HETATM    3  C3  UNL     1     -12.674   3.148  -5.049  1.00  0.00     0.298 C 
HETATM    4  C4  UNL     1     -11.604   3.718  -4.049  1.00  0.00     0.112 C 
HETATM    5  C5  UNL     1     -11.495   6.028  -3.015  1.00  0.00     0.148 C 
HETATM    6  C6  UNL     1     -12.692   5.817  -2.045  1.00  0.00     0.292 C 
HETATM    7  C7  UNL     1     -14.902   6.738  -2.618  1.00  0.00     0.381 C 
HETATM    8  C8  UNL     1     -15.904   6.784  -3.764  1.00  0.00     0.169 C 
HETATM    9  C9  UNL     1     -10.716   5.716  -5.340  1.00  0.00     0.227 C 
HETATM   10  C10 UNL     1     -11.663   5.937  -6.504  1.00  0.00     0.157 C 
HETATM   11  C11 UNL     1     -10.301   2.880  -4.160  1.00  0.00     0.065 C 
HETATM   12  C12 UNL     1      -9.291   3.171  -3.072  1.00  0.00    -0.056 A 
HETATM   13  C13 UNL     1      -9.510   2.732  -1.761  1.00  0.00     0.009 A 
HETATM   14  C14 UNL     1      -8.585   3.018  -0.753  1.00  0.00     0.030 A 
HETATM   15  C15 UNL     1      -7.433   3.759  -1.033  1.00  0.00     0.034 A 
HETATM   16  C16 UNL     1      -7.200   4.175  -2.344  1.00  0.00     0.030 A 
HETATM   17  C17 UNL     1      -8.124   3.888  -3.354  1.00  0.00     0.009 A 
HETATM   18  C18 UNL     1      -5.548   4.916   0.165  1.00  0.00     0.172 C 
HETATM   19  C19 UNL     1      -3.863   3.253   1.125  1.00  0.00     0.180 C 
HETATM   20  C20 UNL     1      -4.754   2.100   1.616  1.00  0.00     0.073 C 
HETATM   21  C21 UNL     1      -4.013   0.827   1.971  1.00  0.00    -0.056 A 
HETATM   22  C22 UNL     1      -4.398  -0.392   1.390  1.00  0.00     0.007 A 
HETATM   23  C23 UNL     1      -3.725  -1.574   1.702  1.00  0.00     0.001 A 
HETATM   24  C24 UNL     1      -2.666  -1.555   2.605  1.00  0.00     0.000 A 
HETATM   25  C25 UNL     1      -2.286  -0.357   3.204  1.00  0.00     0.001 A 
HETATM   26  C26 UNL     1      -2.960   0.827   2.895  1.00  0.00     0.007 A 
HETATM   27  C27 UNL     1      -3.018   3.008  -0.149  1.00  0.00     0.241 C 
HETATM   28  C28 UNL     1      -2.733   1.728  -2.266  1.00  0.00     0.180 C 
HETATM   29  C29 UNL     1      -3.701   1.252  -3.369  1.00  0.00     0.073 C 
HETATM   30  C30 UNL     1      -4.597   0.099  -2.962  1.00  0.00    -0.056 A 
HETATM   31  C31 UNL     1      -4.109  -1.214  -2.927  1.00  0.00     0.007 A 
HETATM   32  C32 UNL     1      -4.929  -2.264  -2.512  1.00  0.00     0.001 A 
HETATM   33  C33 UNL     1      -6.248  -2.016  -2.137  1.00  0.00     0.000 A 
HETATM   34  C34 UNL     1      -6.750  -0.718  -2.183  1.00  0.00     0.001 A 
HETATM   35  C35 UNL     1      -5.930   0.333  -2.594  1.00  0.00     0.007 A 
HETATM   36  C36 UNL     1      -1.577   0.713  -2.099  1.00  0.00     0.240 C 
HETATM   37  C37 UNL     1      -0.401  -0.782  -0.510  1.00  0.00     0.122 C 
HETATM   38  C38 UNL     1      -0.817  -2.188  -0.940  1.00  0.00     0.020 C 
HETATM   39  C39 UNL     1       0.098  -3.289  -0.398  1.00  0.00     0.004 C 
HETATM   40  C40 UNL     1       1.540  -3.182  -0.907  1.00  0.00     0.036 C 
HETATM   41  C41 UNL     1       2.412  -4.356  -0.436  1.00  0.00     0.182 C 
HETATM   42  C42 UNL     1       2.221  -5.569  -1.356  1.00  0.00     0.163 C 
HETATM   43  C43 UNL     1       4.375  -3.249   0.609  1.00  0.00     0.218 C 
HETATM   44  C44 UNL     1       5.866  -3.023   0.443  1.00  0.00     0.103 C 
HETATM   45  C45 UNL     1       6.443  -2.153   1.558  1.00  0.00     0.009 C 
HETATM   46  C46 UNL     1       7.926  -1.825   1.366  1.00  0.00     0.000 C 
HETATM   47  C47 UNL     1       8.873  -3.030   1.336  1.00  0.00     0.000 C 
HETATM   48  C48 UNL     1       8.807  -3.965   2.551  1.00  0.00     0.009 C 
HETATM   49  C49 UNL     1       9.077  -3.294   3.897  1.00  0.00     0.103 C 
HETATM   50  C50 UNL     1      10.516  -2.842   4.077  1.00  0.00     0.217 C 
HETATM   51  C51 UNL     1      11.983  -1.571   5.633  1.00  0.00     0.122 C 
HETATM   52  C52 UNL     1      12.362  -2.026   7.042  1.00  0.00     0.020 C 
HETATM   53  C53 UNL     1      12.362  -3.540   7.299  1.00  0.00     0.004 C 
HETATM   54  C54 UNL     1      13.607  -4.298   6.820  1.00  0.00     0.036 C 
HETATM   55  C55 UNL     1      13.664  -4.621   5.321  1.00  0.00     0.184 C 
HETATM   56  C56 UNL     1      12.700  -5.762   4.956  1.00  0.00     0.163 C 
HETATM   57  C57 UNL     1      15.995  -4.055   4.735  1.00  0.00     0.317 C 
HETATM   58  C58 UNL     1      18.237  -3.709   3.815  1.00  0.00     0.184 C 
HETATM   59  C59 UNL     1      19.565  -4.464   3.923  1.00  0.00     0.046 C 
HETATM   60  C60 UNL     1      20.778  -3.531   3.924  1.00  0.00     0.112 C 
HETATM   61  C61 UNL     1      22.056  -4.302   4.114  1.00  0.00     0.139 C 
HETATM   62  C62 UNL     1      18.016  -3.223   2.375  1.00  0.00     0.163 C 
HETATM   63  C63 UNL     1     -14.664   3.756  -6.357  1.00  0.00     0.381 C 
HETATM   64  C64 UNL     1     -15.611   4.945  -6.514  1.00  0.00     0.169 C 
HETATM   65  N1  UNL     1     -13.959   3.875  -5.066  1.00  0.00     0.102 N 
HETATM   66  N2  UNL     1     -11.436   5.169  -4.195  1.00  0.00    -0.395 N 
HETATM   67  N3  UNL     1     -13.959   5.620  -2.761  1.00  0.00     0.101 N 
HETATM   68  N4  UNL     1      -6.518   3.964   0.021  1.00  0.00    -0.333 N 
HETATM   69  N5  UNL     1      -4.506   4.576   0.985  1.00  0.00    -0.353 N 
HETATM   70  N6  UNL     1      -3.445   2.034  -1.017  1.00  0.00    -0.346 N 
HETATM   71  N7  UNL     1      -1.416   0.196  -0.833  1.00  0.00    -0.359 N 
HETATM   72  N8  UNL     1       3.824  -3.969  -0.423  1.00  0.00    -0.347 N 
HETATM   73  N9  UNL     1      10.696  -2.097   5.223  1.00  0.00    -0.361 N 
HETATM   74  N10 UNL     1      15.027  -5.000   4.930  1.00  0.00    -0.329 N 
HETATM   75  N11 UNL     1      17.142  -4.599   4.217  1.00  0.00    -0.329 N 
HETATM   76  O1  UNL     1     -15.800   7.421  -4.805  1.00  0.00    -0.649 OA
HETATM   77  O2  UNL     1     -16.965   5.967  -3.570  1.00  0.00    -0.775 OA
HETATM   78  O3  UNL     1     -11.716   5.256  -7.519  1.00  0.00    -0.649 OA
HETATM   79  O4  UNL     1     -12.520   6.959  -6.298  1.00  0.00    -0.775 OA
HETATM   80  O5  UNL     1      -2.051   3.727  -0.403  1.00  0.00    -0.271 OA
HETATM   81  O6  UNL     1      -0.870   0.371  -3.047  1.00  0.00    -0.271 OA
HETATM   82  O7  UNL     1       1.181  -6.175  -1.560  1.00  0.00    -0.648 OA
HETATM   83  O8  UNL     1       3.354  -5.951  -1.995  1.00  0.00    -0.775 OA
HETATM   84  O9  UNL     1       3.721  -2.842   1.563  1.00  0.00    -0.274 OA
HETATM   85  O10 UNL     1      11.422  -3.136   3.306  1.00  0.00    -0.274 OA
HETATM   86  O11 UNL     1      11.513  -5.847   5.227  1.00  0.00    -0.648 OA
HETATM   87  O12 UNL     1      13.289  -6.754   4.240  1.00  0.00    -0.775 OA
HETATM   88  O13 UNL     1      15.869  -2.874   5.029  1.00  0.00    -0.247 OA
HETATM   89  O14 UNL     1      22.204  -5.511   4.062  1.00  0.00    -0.650 OA
HETATM   90  O15 UNL     1      23.106  -3.490   4.342  1.00  0.00    -0.776 OA
HETATM   91  O16 UNL     1      18.653  -2.352   1.803  1.00  0.00    -0.648 OA
HETATM   92  O17 UNL     1      17.075  -3.921   1.697  1.00  0.00    -0.775 OA
HETATM   93  O18 UNL     1     -16.791   4.976  -6.183  1.00  0.00    -0.649 OA
HETATM   94  O19 UNL     1     -14.977   6.078  -6.911  1.00  0.00    -0.775 OA
HETATM   95  S1  UNL     1      -5.541   6.462  -0.466  1.00  0.00    -0.041 SA
HETATM   96  H75 UNL     1      -6.774   3.535   0.901  1.00  0.00     0.168 HD
HETATM   97  H76 UNL     1      -3.823   5.331   0.995  1.00  0.00     0.162 HD
HETATM   98  H77 UNL     1      -4.181   1.395  -0.752  1.00  0.00     0.163 HD
HETATM   99  H78 UNL     1      -2.067   0.472  -0.110  1.00  0.00     0.162 HD
HETATM  100  H79 UNL     1       4.419  -4.388  -1.132  1.00  0.00     0.163 HD
HETATM  101  H80 UNL     1       9.886  -1.856   5.780  1.00  0.00     0.162 HD
HETATM  102  H81 UNL     1      15.099  -5.868   4.415  1.00  0.00     0.165 HD
HETATM  103  H82 UNL     1      16.972  -5.361   3.575  1.00  0.00     0.165 HD
HETATM  104  H83 UNL     1     -17.362   5.863  -4.468  1.00  0.00     0.167 HD
HETATM  105  H84 UNL     1     -13.286   6.740  -6.878  1.00  0.00     0.167 HD
HETATM  106  H85 UNL     1       3.062  -6.715  -2.539  1.00  0.00     0.167 HD
HETATM  107  H86 UNL     1      12.541  -7.362   4.057  1.00  0.00     0.167 HD
HETATM  108  H87 UNL     1      23.868  -4.100   4.433  1.00  0.00     0.167 HD
HETATM  109  H88 UNL     1      17.036  -3.473   0.825  1.00  0.00     0.167 HD
HETATM  110  H89 UNL     1     -15.527   6.794  -6.501  1.00  0.00     0.167 HD
ENDROOT
TORSDOF 52
