REMARK  25 active torsions:
REMARK  status: ('A' for Active; 'I' for Inactive)
REMARK    1  A    between atoms: C2_2  and  O16_60 
REMARK    2  A    between atoms: C3_3  and  C33_33 
REMARK    3  A    between atoms: C6_6  and  O13_57 
REMARK    4  A    between atoms: C8_8  and  O12_56 
REMARK    5  A    between atoms: C9_9  and  C10_10 
REMARK    6  A    between atoms: C10_10  and  C11_11 
REMARK    7  A    between atoms: C12_12  and  O11_55 
REMARK    8  A    between atoms: C14_14  and  O10_54 
REMARK    9  A    between atoms: C17_17  and  C27_27 
REMARK   10  A    between atoms: C18_18  and  O3_47 
REMARK   11  A    between atoms: C20_20  and  C21_21 
REMARK   12  A    between atoms: C20_20  and  O3_47 
REMARK   13  A    between atoms: C23_23  and  O7_51 
REMARK   14  A    between atoms: C24_24  and  O6_50 
REMARK   15  A    between atoms: C25_25  and  O5_49 
REMARK   16  A    between atoms: C29_29  and  O9_53 
REMARK   17  A    between atoms: C30_30  and  O8_52 
REMARK   18  A    between atoms: C35_35  and  O15_59 
REMARK   19  A    between atoms: C36_36  and  O14_58 
REMARK   20  A    between atoms: C39_39  and  O16_60 
REMARK   21  A    between atoms: C40_40  and  O21_65 
REMARK   22  A    between atoms: C41_41  and  O20_64 
REMARK   23  A    between atoms: C42_42  and  O19_63 
REMARK   24  A    between atoms: C43_43  and  C44_44 
REMARK   25  A    between atoms: C44_44  and  O18_62 
ROOT
HETATM    1  C1  UNL     1       3.692  -1.132  -1.458  1.00  0.00     0.079 C 
HETATM    2  C2  UNL     1       2.993  -0.477  -0.274  1.00  0.00     0.163 C 
HETATM    3  C3  UNL     1       1.573  -1.061  -0.134  1.00  0.00     0.191 C 
HETATM    4  C4  UNL     1       1.392  -1.105  -2.521  1.00  0.00     0.088 A 
HETATM    5  C5  UNL     1       2.786  -1.282  -2.648  1.00  0.00     0.012 A 
HETATM    6  C6  UNL     1       3.299  -1.627  -3.901  1.00  0.00     0.077 A 
HETATM    7  C7  UNL     1       2.461  -1.768  -4.998  1.00  0.00     0.074 A 
HETATM    8  C8  UNL     1       1.087  -1.583  -4.858  1.00  0.00     0.077 A 
HETATM    9  C9  UNL     1       0.513  -1.246  -3.623  1.00  0.00     0.013 A 
HETATM   10  O1  UNL     1       0.812  -0.777  -1.321  1.00  0.00    -0.337 OA
ENDROOT
BRANCH   9  11
HETATM   11  C10 UNL     1      -0.995  -1.135  -3.434  1.00  0.00     0.088 C 
BRANCH  11  12
HETATM   12  C11 UNL     1      -1.643   0.183  -3.834  1.00  0.00     0.013 A 
HETATM   13  C12 UNL     1      -2.096   0.392  -5.144  1.00  0.00     0.077 A 
HETATM   14  C13 UNL     1      -2.690   1.589  -5.531  1.00  0.00     0.074 A 
HETATM   15  C14 UNL     1      -2.880   2.596  -4.594  1.00  0.00     0.077 A 
HETATM   16  C15 UNL     1      -2.499   2.422  -3.259  1.00  0.00     0.012 A 
HETATM   17  C16 UNL     1      -1.854   1.219  -2.897  1.00  0.00     0.088 A 
HETATM   18  C19 UNL     1      -2.772   3.491  -2.230  1.00  0.00     0.080 C 
HETATM   19  O2  UNL     1      -1.464   0.966  -1.605  1.00  0.00    -0.337 OA
HETATM   20  C17 UNL     1      -1.327   2.120  -0.765  1.00  0.00     0.192 C 
HETATM   21  C18 UNL     1      -2.586   2.992  -0.799  1.00  0.00     0.170 C 
BRANCH  13  22
HETATM   22  O11 UNL     1      -1.969  -0.612  -6.067  1.00  0.00    -0.360 OA
HETATM   23  H34 UNL     1      -2.425  -0.339  -6.884  1.00  0.00     0.217 HD
ENDBRANCH  13  22
BRANCH  15  24
HETATM   24  O10 UNL     1      -3.470   3.735  -5.066  1.00  0.00    -0.360 OA
HETATM   25  H33 UNL     1      -3.487   4.418  -4.379  1.00  0.00     0.217 HD
ENDBRANCH  15  24
BRANCH  20  26
HETATM   26  C27 UNL     1      -0.989   1.678   0.652  1.00  0.00    -0.024 A 
HETATM   27  C28 UNL     1      -1.501   0.482   1.191  1.00  0.00     0.049 A 
HETATM   28  C29 UNL     1      -1.112   0.077   2.462  1.00  0.00     0.099 A 
HETATM   29  C30 UNL     1      -0.241   0.862   3.212  1.00  0.00     0.098 A 
HETATM   30  C31 UNL     1       0.228   2.072   2.727  1.00  0.00     0.040 A 
HETATM   31  C32 UNL     1      -0.142   2.478   1.444  1.00  0.00     0.013 A 
BRANCH  28  32
HETATM   32  O9  UNL     1      -1.520  -1.107   3.006  1.00  0.00    -0.358 OA
HETATM   33  H32 UNL     1      -2.008  -1.612   2.328  1.00  0.00     0.217 HD
ENDBRANCH  28  32
BRANCH  29  34
HETATM   34  O8  UNL     1       0.207   0.412   4.423  1.00  0.00    -0.358 OA
HETATM   35  H31 UNL     1      -0.325  -0.397   4.587  1.00  0.00     0.217 HD
ENDBRANCH  29  34
ENDBRANCH  20  26
BRANCH  21  36
HETATM   36  O3  UNL     1      -3.733   2.209  -0.392  1.00  0.00    -0.309 OA
BRANCH  36  37
HETATM   37  C20 UNL     1      -4.805   2.902   0.051  1.00  0.00     0.294 C 
HETATM   38  O4  UNL     1      -4.904   4.119   0.084  1.00  0.00    -0.259 OA
BRANCH  37  39
HETATM   39  C21 UNL     1      -5.871   1.976   0.516  1.00  0.00     0.045 A 
HETATM   40  C22 UNL     1      -7.026   2.539   1.091  1.00  0.00     0.057 A 
HETATM   41  C23 UNL     1      -8.040   1.705   1.548  1.00  0.00     0.102 A 
HETATM   42  C24 UNL     1      -7.913   0.325   1.436  1.00  0.00     0.132 A 
HETATM   43  C25 UNL     1      -6.774  -0.230   0.867  1.00  0.00     0.102 A 
HETATM   44  C26 UNL     1      -5.749   0.582   0.401  1.00  0.00     0.057 A 
BRANCH  41  45
HETATM   45  O7  UNL     1      -9.183   2.194   2.116  1.00  0.00    -0.358 OA
HETATM   46  H30 UNL     1      -9.130   3.166   2.130  1.00  0.00     0.217 HD
ENDBRANCH  41  45
BRANCH  42  47
HETATM   47  O6  UNL     1      -8.904  -0.505   1.884  1.00  0.00    -0.356 OA
HETATM   48  H29 UNL     1      -9.588   0.102   2.236  1.00  0.00     0.218 HD
ENDBRANCH  42  47
BRANCH  43  49
HETATM   49  O5  UNL     1      -6.652  -1.585   0.763  1.00  0.00    -0.358 OA
HETATM   50  H28 UNL     1      -7.481  -1.941   1.142  1.00  0.00     0.217 HD
ENDBRANCH  43  49
ENDBRANCH  37  39
ENDBRANCH  36  37
ENDBRANCH  21  36
ENDBRANCH  11  12
ENDBRANCH   9  11
BRANCH   8  51
HETATM   51  O12 UNL     1       0.368  -1.799  -5.999  1.00  0.00    -0.360 OA
HETATM   52  H35 UNL     1      -0.535  -1.446  -5.880  1.00  0.00     0.217 HD
ENDBRANCH   8  51
BRANCH   6  53
HETATM   53  O13 UNL     1       4.627  -1.852  -4.131  1.00  0.00    -0.360 OA
HETATM   54  H36 UNL     1       5.096  -1.952  -3.289  1.00  0.00     0.217 HD
ENDBRANCH   6  53
BRANCH   3  55
HETATM   55  C33 UNL     1       1.341  -2.501   0.316  1.00  0.00    -0.024 A 
HETATM   56  C34 UNL     1       0.023  -3.000   0.283  1.00  0.00     0.049 A 
HETATM   57  C35 UNL     1      -0.264  -4.269   0.764  1.00  0.00     0.099 A 
HETATM   58  C36 UNL     1       0.742  -5.078   1.276  1.00  0.00     0.098 A 
HETATM   59  C37 UNL     1       2.049  -4.616   1.322  1.00  0.00     0.040 A 
HETATM   60  C38 UNL     1       2.344  -3.329   0.850  1.00  0.00     0.013 A 
BRANCH  57  61
HETATM   61  O15 UNL     1      -1.556  -4.710   0.744  1.00  0.00    -0.358 OA
HETATM   62  H38 UNL     1      -1.505  -5.623   1.093  1.00  0.00     0.217 HD
ENDBRANCH  57  61
BRANCH  58  63
HETATM   63  O14 UNL     1       0.393  -6.317   1.735  1.00  0.00    -0.358 OA
HETATM   64  H37 UNL     1       1.201  -6.756   2.055  1.00  0.00     0.217 HD
ENDBRANCH  58  63
ENDBRANCH   3  55
BRANCH   2  65
HETATM   65  O16 UNL     1       3.806  -0.632   0.898  1.00  0.00    -0.350 OA
BRANCH  65  66
HETATM   66  C39 UNL     1       3.492   0.301   1.940  1.00  0.00     0.292 C 
HETATM   67  C40 UNL     1       3.611  -0.395   3.315  1.00  0.00     0.204 C 
HETATM   68  C41 UNL     1       5.064  -0.814   3.600  1.00  0.00     0.183 C 
HETATM   69  C42 UNL     1       6.090   0.063   2.855  1.00  0.00     0.180 C 
HETATM   70  C43 UNL     1       5.512   1.466   2.609  1.00  0.00     0.179 C 
HETATM   71  O17 UNL     1       4.347   1.434   1.767  1.00  0.00    -0.348 OA
BRANCH  67  72
HETATM   72  O21 UNL     1       3.170   0.491   4.358  1.00  0.00    -0.388 OA
HETATM   73  H42 UNL     1       2.189   0.492   4.353  1.00  0.00     0.210 HD
ENDBRANCH  67  72
BRANCH  68  74
HETATM   74  O20 UNL     1       5.266  -2.197   3.257  1.00  0.00    -0.390 OA
HETATM   75  H41 UNL     1       6.004  -2.203   2.612  1.00  0.00     0.210 HD
ENDBRANCH  68  74
BRANCH  69  76
HETATM   76  O19 UNL     1       6.440  -0.587   1.612  1.00  0.00    -0.390 OA
HETATM   77  H40 UNL     1       5.638  -0.550   1.048  1.00  0.00     0.210 HD
ENDBRANCH  69  76
BRANCH  70  78
HETATM   78  C44 UNL     1       6.535   2.398   1.952  1.00  0.00     0.198 C 
BRANCH  78  79
HETATM   79  O18 UNL     1       7.643   2.623   2.816  1.00  0.00    -0.398 OA
HETATM   80  H39 UNL     1       8.276   3.176   2.325  1.00  0.00     0.209 HD
ENDBRANCH  78  79
ENDBRANCH  70  78
ENDBRANCH  65  66
ENDBRANCH   2  65
TORSDOF 25
