REMARK  27 active torsions:
REMARK  status: ('A' for Active; 'I' for Inactive)
REMARK    1  A    between atoms: C2_2  and  C3_3 
REMARK    2  A    between atoms: C2_2  and  N11_69 
REMARK       I    between atoms: C3_3  and  N1_55 
REMARK    3  A    between atoms: C4_4  and  N1_55 
REMARK    4  A    between atoms: C6_6  and  O6_50 
REMARK    5  A    between atoms: C7_7  and  C10_10 
REMARK       I    between atoms: C10_10  and  N2_56 
REMARK    6  A    between atoms: C11_11  and  C12_12 
REMARK    7  A    between atoms: C11_11  and  N2_56 
REMARK    8  A    between atoms: C12_12  and  C13_13 
REMARK    9  A    between atoms: C13_13  and  C14_14 
REMARK   10  A    between atoms: C14_14  and  C15_15 
REMARK   11  A    between atoms: C14_14  and  N3_57 
REMARK   12  A    between atoms: C15_15  and  O4_48 
REMARK   13  A    between atoms: C16_16  and  C17_17 
REMARK       I    between atoms: C16_16  and  N3_57 
REMARK   14  A    between atoms: C20_20  and  N4_58 
REMARK   15  A    between atoms: C23_23  and  C24_24 
REMARK   16  A    between atoms: C23_23  and  N4_58 
REMARK   17  A    between atoms: C28_28  and  N10_68 
REMARK   18  A    between atoms: C29_29  and  N9_67 
REMARK   19  A    between atoms: C30_30  and  C31_31 
REMARK       I    between atoms: C30_30  and  N11_69 
REMARK   20  A    between atoms: C31_31  and  C32_32 
REMARK   21  A    between atoms: C31_31  and  N12_70 
REMARK   22  A    between atoms: C35_35  and  C36_36 
REMARK       I    between atoms: C35_35  and  N12_70 
REMARK   23  A    between atoms: C36_36  and  C37_37 
REMARK   24  A    between atoms: C37_37  and  C38_38 
REMARK   25  A    between atoms: C38_38  and  C39_39 
REMARK   26  A    between atoms: C39_39  and  C40_40 
REMARK   27  A    between atoms: C40_40  and  N13_71 
ROOT
HETATM    1  C10 UNL     1      -1.997  -2.439   4.110  1.00  0.00     0.254 C 
HETATM    2  O2  UNL     1      -2.681  -2.701   3.126  1.00  0.00    -0.268 OA
HETATM    3  N2  UNL     1      -2.473  -2.544   5.394  1.00  0.00    -0.357 N 
HETATM    4  H45 UNL     1      -1.845  -2.278   6.148  1.00  0.00     0.162 HD
ENDROOT
BRANCH   3   5
HETATM    5  C11 UNL     1      -3.813  -2.983   5.715  1.00  0.00     0.123 C 
BRANCH   5   6
HETATM    6  C12 UNL     1      -4.759  -1.808   5.959  1.00  0.00     0.022 C 
BRANCH   6   7
HETATM    7  C13 UNL     1      -5.142  -1.005   4.708  1.00  0.00     0.038 C 
BRANCH   7   8
HETATM    8  C14 UNL     1      -5.947  -1.774   3.651  1.00  0.00     0.182 C 
BRANCH   8   9
HETATM    9  C15 UNL     1      -7.314  -2.173   4.211  1.00  0.00     0.163 C 
HETATM   10  O3  UNL     1      -8.320  -1.477   4.230  1.00  0.00    -0.648 OA
BRANCH   9  11
HETATM   11  O4  UNL     1      -7.328  -3.404   4.764  1.00  0.00    -0.775 OA
HETATM   12  H42 UNL     1      -8.266  -3.538   5.013  1.00  0.00     0.167 HD
ENDBRANCH   9  11
ENDBRANCH   8   9
BRANCH   8  13
HETATM   13  N3  UNL     1      -6.190  -0.906   2.492  1.00  0.00    -0.343 N 
HETATM   14  C16 UNL     1      -6.520  -1.462   1.272  1.00  0.00     0.252 C 
HETATM   15  O5  UNL     1      -6.555  -2.668   1.062  1.00  0.00    -0.268 OA
HETATM   16  H46 UNL     1      -6.591   0.001   2.693  1.00  0.00     0.163 HD
BRANCH  14  17
HETATM   17  C17 UNL     1      -6.905  -0.504   0.200  1.00  0.00     0.032 A 
HETATM   18  C18 UNL     1      -6.427   0.808   0.170  1.00  0.00     0.019 A 
HETATM   19  C19 UNL     1      -6.816   1.669  -0.863  1.00  0.00     0.024 A 
HETATM   20  C20 UNL     1      -7.660   1.242  -1.901  1.00  0.00     0.008 A 
HETATM   21  C21 UNL     1      -8.149  -0.068  -1.840  1.00  0.00     0.024 A 
HETATM   22  C22 UNL     1      -7.762  -0.939  -0.813  1.00  0.00     0.019 A 
BRANCH  20  23
HETATM   23  N4  UNL     1      -8.056   2.186  -2.854  1.00  0.00    -0.287 NA
HETATM   24  H47 UNL     1      -7.311   2.859  -3.027  1.00  0.00     0.128 HD
BRANCH  23  25
HETATM   25  C23 UNL     1      -8.724   1.776  -4.090  1.00  0.00     0.151 C 
BRANCH  25  26
HETATM   26  C24 UNL     1     -10.210   1.557  -3.919  1.00  0.00     0.038 A 
HETATM   27  C25 UNL     1     -10.992   2.450  -3.207  1.00  0.00     0.116 A 
HETATM   28  N5  UNL     1     -12.334   2.310  -3.069  1.00  0.00    -0.348 N 
HETATM   29  C26 UNL     1     -12.919   1.252  -3.641  1.00  0.00     0.138 A 
ATOM     30  H5  UNL     1     -12.881   2.992  -2.544  1.00  0.00     0.167 HD
HETATM   31  C27 UNL     1     -12.132   0.343  -4.359  1.00  0.00     0.116 A 
HETATM   32  N8  UNL     1     -14.233   1.119  -3.495  1.00  0.00    -0.317 N 
HETATM   33  C28 UNL     1     -12.851  -0.718  -4.898  1.00  0.00     0.111 A 
HETATM   34  N6  UNL     1     -10.779   0.482  -4.517  1.00  0.00    -0.352 N 
HETATM   35  N7  UNL     1     -14.176  -0.866  -4.759  1.00  0.00    -0.322 N 
HETATM   36  C29 UNL     1     -14.814   0.075  -4.073  1.00  0.00     0.157 A 
ATOM     37  H7  UNL     1     -14.670  -1.663  -5.161  1.00  0.00     0.169 HD
ATOM     38  H6  UNL     1     -10.229  -0.187  -5.056  1.00  0.00     0.166 HD
ATOM     39  H8  UNL     1     -14.776   1.795  -2.958  1.00  0.00     0.170 HD
BRANCH  33  40
HETATM   40  N10 UNL     1     -12.172  -1.722  -5.639  1.00  0.00    -0.287 NA
HETATM   41  H50 UNL     1     -11.676  -1.257  -6.399  1.00  0.00     0.125 HD
HETATM   42  H51 UNL     1     -11.440  -2.103  -5.041  1.00  0.00     0.125 HD
ENDBRANCH  33  40
BRANCH  36  43
HETATM   43  N9  UNL     1     -16.176  -0.066  -3.918  1.00  0.00    -0.274 NA
HETATM   44  H48 UNL     1     -16.489   0.414  -3.085  1.00  0.00     0.127 HD
HETATM   45  H49 UNL     1     -16.441  -1.035  -4.029  1.00  0.00     0.127 HD
ENDBRANCH  36  43
ENDBRANCH  25  26
ENDBRANCH  23  25
ENDBRANCH  20  23
ENDBRANCH  14  17
ENDBRANCH   8  13
ENDBRANCH   7   8
ENDBRANCH   6   7
ENDBRANCH   5   6
ENDBRANCH   3   5
BRANCH   1  46
HETATM   46  C7  UNL     1      -0.582  -1.977   3.940  1.00  0.00     0.065 A 
HETATM   47  C6  UNL     1       0.264  -1.583   4.986  1.00  0.00     0.083 A 
HETATM   48  C5  UNL     1       1.577  -1.162   4.728  1.00  0.00     0.067 A 
HETATM   49  C4  UNL     1       2.069  -1.131   3.422  1.00  0.00     0.037 A 
HETATM   50  C9  UNL     1       1.231  -1.524   2.374  1.00  0.00     0.030 A 
HETATM   51  C8  UNL     1      -0.080  -1.940   2.630  1.00  0.00     0.022 A 
BRANCH  47  52
HETATM   52  O6  UNL     1      -0.170  -1.598   6.289  1.00  0.00    -0.360 OA
HETATM   53  H43 UNL     1       0.565  -1.317   6.865  1.00  0.00     0.217 HD
ENDBRANCH  47  52
BRANCH  49  54
HETATM   54  N1  UNL     1       3.371  -0.720   3.082  1.00  0.00    -0.325 N 
HETATM   55  C3  UNL     1       4.384  -0.286   3.927  1.00  0.00     0.244 C 
HETATM   56  O1  UNL     1       4.329  -0.249   5.152  1.00  0.00    -0.271 OA
HETATM   57  H44 UNL     1       3.617  -0.739   2.097  1.00  0.00     0.169 HD
BRANCH  55  58
HETATM   58  C2  UNL     1       5.678   0.030   3.145  1.00  0.00     0.172 C 
HETATM   59  C1  UNL     1       6.667   0.839   3.974  1.00  0.00     0.042 C 
BRANCH  58  60
HETATM   60  N11 UNL     1       5.342   0.737   1.904  1.00  0.00    -0.346 N 
HETATM   61  C30 UNL     1       6.077   0.544   0.752  1.00  0.00     0.241 C 
HETATM   62  O7  UNL     1       6.917  -0.346   0.641  1.00  0.00    -0.271 OA
HETATM   63  H52 UNL     1       4.847   1.617   2.004  1.00  0.00     0.163 HD
BRANCH  61  64
HETATM   64  C31 UNL     1       5.689   1.477  -0.418  1.00  0.00     0.180 C 
BRANCH  64  65
HETATM   65  C32 UNL     1       4.356   1.031  -1.062  1.00  0.00     0.009 C 
HETATM   66  C33 UNL     1       3.865   2.074  -2.071  1.00  0.00     0.012 C 
HETATM   67  C34 UNL     1       4.431  -0.345  -1.732  1.00  0.00     0.012 C 
ENDBRANCH  64  65
BRANCH  64  68
HETATM   68  N12 UNL     1       6.795   1.513  -1.369  1.00  0.00    -0.347 N 
HETATM   69  C35 UNL     1       7.805   2.442  -1.206  1.00  0.00     0.218 C 
HETATM   70  O8  UNL     1       7.743   3.364  -0.401  1.00  0.00    -0.274 OA
HETATM   71  H53 UNL     1       7.096   0.609  -1.721  1.00  0.00     0.163 HD
BRANCH  69  72
HETATM   72  C36 UNL     1       8.970   2.219  -2.153  1.00  0.00     0.103 C 
BRANCH  72  73
HETATM   73  C37 UNL     1      10.145   3.147  -1.847  1.00  0.00     0.009 C 
BRANCH  73  74
HETATM   74  C38 UNL     1      11.275   3.075  -2.879  1.00  0.00     0.002 C 
BRANCH  74  75
HETATM   75  C39 UNL     1      11.852   1.682  -3.142  1.00  0.00     0.020 C 
BRANCH  75  76
HETATM   76  C40 UNL     1      12.418   1.007  -1.891  1.00  0.00     0.135 C 
BRANCH  76  77
HETATM   77  N13 UNL     1      12.961  -0.300  -2.201  1.00  0.00    -0.281 N 
HETATM   78  C41 UNL     1      12.214  -1.421  -2.365  1.00  0.00     0.250 A 
HETATM   79  C42 UNL     1      13.135  -2.503  -2.728  1.00  0.00     0.080 A 
HETATM   80  O9  UNL     1      11.007  -1.557  -2.272  1.00  0.00    -0.268 OA
HETATM   81  C43 UNL     1      14.360  -1.982  -2.809  1.00  0.00     0.080 A 
HETATM   82  C44 UNL     1      14.259  -0.551  -2.500  1.00  0.00     0.250 A 
HETATM   83  O10 UNL     1      15.201   0.219  -2.538  1.00  0.00    -0.268 OA
ENDBRANCH  76  77
ENDBRANCH  75  76
ENDBRANCH  74  75
ENDBRANCH  73  74
ENDBRANCH  72  73
ENDBRANCH  69  72
ENDBRANCH  64  68
ENDBRANCH  61  64
ENDBRANCH  58  60
ENDBRANCH  55  58
ENDBRANCH  49  54
ENDBRANCH   1  46
TORSDOF 27
