REMARK  20 active torsions:
REMARK  status: ('A' for Active; 'I' for Inactive)
REMARK    1  A    between atoms: C3_3  and  N1_46 
REMARK    2  A    between atoms: C7_7  and  N2_47 
REMARK    3  A    between atoms: C10_10  and  N5_52 
REMARK    4  A    between atoms: C11_11  and  N5_52 
REMARK    5  A    between atoms: C14_14  and  N6_53 
REMARK    6  A    between atoms: C17_17  and  N6_53 
REMARK    7  A    between atoms: C18_18  and  N14_66 
REMARK    8  A    between atoms: C22_22  and  N10_60 
REMARK    9  A    between atoms: C24_24  and  N11_61 
REMARK   10  A    between atoms: C25_25  and  O2_75 
REMARK   11  A    between atoms: C26_26  and  O1_74 
REMARK   12  A    between atoms: C28_28  and  C29_29 
REMARK   13  A    between atoms: C29_29  and  O3_76 
REMARK   14  A    between atoms: C32_32  and  N15_67 
REMARK   15  A    between atoms: C37_37  and  N17_70 
REMARK   16  A    between atoms: C39_39  and  N18_71 
REMARK   17  A    between atoms: C40_40  and  O5_78 
REMARK   18  A    between atoms: C41_41  and  O4_77 
REMARK   19  A    between atoms: C44_44  and  C45_45 
REMARK   20  A    between atoms: C45_45  and  O6_79 
ROOT
HETATM    1  C11 UNL     1       1.004   0.346  -1.676  1.00  0.00     0.083 C 
HETATM    2  C12 UNL     1       0.534  -1.077  -2.013  1.00  0.00     0.026 C 
HETATM    3  C13 UNL     1      -0.137  -1.780  -0.829  1.00  0.00     0.022 C 
HETATM    4  C14 UNL     1      -0.985  -0.832   0.034  1.00  0.00     0.062 C 
HETATM    5  C15 UNL     1      -0.137   0.331   0.588  1.00  0.00     0.022 C 
HETATM    6  C16 UNL     1       1.169   0.580  -0.173  1.00  0.00     0.026 C 
ENDROOT
BRANCH   4   7
HETATM    7  N6  UNL     1      -2.081  -0.304  -0.778  1.00  0.00    -0.272 NA
HETATM    8  H59 UNL     1      -2.267  -0.790  -1.652  1.00  0.00     0.129 HD
BRANCH   7   9
HETATM    9  C17 UNL     1      -3.326  -0.105  -0.174  1.00  0.00     0.127 A 
HETATM   10  C20 UNL     1      -3.582   0.208   1.173  1.00  0.00     0.117 A 
HETATM   11  C19 UNL     1      -4.912   0.367   1.518  1.00  0.00     0.155 A 
HETATM   12  N9  UNL     1      -2.775   0.387   2.281  1.00  0.00    -0.346 N 
HETATM   13  N8  UNL     1      -5.978   0.253   0.718  1.00  0.00    -0.174 N 
HETATM   14  N10 UNL     1      -4.909   0.659   2.854  1.00  0.00    -0.319 N 
HETATM   15  C18 UNL     1      -5.656  -0.032  -0.555  1.00  0.00     0.683 A 
ATOM     16  H8  UNL     1      -6.938   0.371   1.042  1.00  0.00     0.186 HD
HETATM   17  N7  UNL     1      -4.395  -0.224  -1.004  1.00  0.00    -0.179 N 
ATOM     18  H7  UNL     1      -4.244  -0.463  -1.984  1.00  0.00     0.185 HD
HETATM   19  C21 UNL     1      -3.601   0.674   3.263  1.00  0.00     0.185 A 
ATOM     20  H9  UNL     1      -1.759   0.313   2.327  1.00  0.00     0.167 HD
BRANCH  15  21
HETATM   21  N14 UNL     1      -6.684  -0.166  -1.459  1.00  0.00    -0.215 N 
HETATM   22  C30 UNL     1      -7.976   0.443  -1.178  1.00  0.00     0.143 C 
HETATM   23  C31 UNL     1      -8.485   0.915  -2.545  1.00  0.00     0.058 C 
HETATM   24  C32 UNL     1      -7.785  -0.029  -3.532  1.00  0.00     0.241 C 
HETATM   25  C33 UNL     1      -6.381  -0.154  -2.887  1.00  0.00     0.177 C 
BRANCH  24  26
HETATM   26  N15 UNL     1      -7.843   0.316  -4.964  1.00  0.00     0.086 N 
HETATM   27  C34 UNL     1      -9.214   0.272  -5.473  1.00  0.00     0.310 C 
HETATM   28  C35 UNL     1      -7.216   1.588  -5.315  1.00  0.00     0.310 C 
ENDBRANCH  24  26
ENDBRANCH  15  21
BRANCH  14  29
HETATM   29  C22 UNL     1      -6.053   0.906   3.702  1.00  0.00     0.126 C 
HETATM   30  C23 UNL     1      -7.052  -0.257   3.780  1.00  0.00     0.060 C 
HETATM   31  C24 UNL     1      -8.412   0.384   4.109  1.00  0.00     0.160 C 
HETATM   32  C25 UNL     1      -8.188   1.903   4.111  1.00  0.00     0.175 C 
HETATM   33  C26 UNL     1      -6.908   2.108   3.290  1.00  0.00     0.172 C 
BRANCH  31  34
HETATM   34  N11 UNL     1      -9.450  -0.044   3.190  1.00  0.00    -0.227 N 
HETATM   35  N12 UNL     1      -9.707   0.611   2.041  1.00  0.00    -0.293 N 
HETATM   36  C27 UNL     1     -10.713  -0.111   1.538  1.00  0.00     0.137 A 
ATOM     37  H12 UNL     1      -9.253   1.440   1.656  1.00  0.00     0.187 HD
HETATM   38  C28 UNL     1     -11.022  -1.173   2.405  1.00  0.00     0.067 A 
HETATM   39  N13 UNL     1     -10.210  -1.123   3.475  1.00  0.00    -0.284 N 
ATOM     40  H13 UNL     1     -10.177  -1.738   4.288  1.00  0.00     0.188 HD
BRANCH  38  41
HETATM   41  C29 UNL     1     -12.055  -2.234   2.264  1.00  0.00     0.224 C 
BRANCH  41  42
HETATM   42  O3  UNL     1     -12.477  -2.740   3.530  1.00  0.00    -0.395 OA
HETATM   43  H62 UNL     1     -11.711  -2.594   4.121  1.00  0.00     0.209 HD
ENDBRANCH  41  42
ENDBRANCH  38  41
ENDBRANCH  31  34
BRANCH  32  44
HETATM   44  O2  UNL     1      -7.925   2.360   5.456  1.00  0.00    -0.391 OA
HETATM   45  H61 UNL     1      -8.788   2.444   5.904  1.00  0.00     0.210 HD
ENDBRANCH  32  44
BRANCH  33  46
HETATM   46  O1  UNL     1      -6.283   3.341   3.645  1.00  0.00    -0.391 OA
HETATM   47  H60 UNL     1      -6.515   3.501   4.583  1.00  0.00     0.210 HD
ENDBRANCH  33  46
ENDBRANCH  14  29
ENDBRANCH   7   9
ENDBRANCH   4   7
BRANCH   1  48
HETATM   48  N5  UNL     1       2.184   0.731  -2.445  1.00  0.00    -0.369 N 
HETATM   49  H58 UNL     1       2.248   1.723  -2.668  1.00  0.00     0.161 HD
BRANCH  48  50
HETATM   50  C10 UNL     1       3.448   0.235  -2.131  1.00  0.00     0.148 A 
HETATM   51  C9  UNL     1       4.608   0.966  -2.435  1.00  0.00     0.123 A 
HETATM   52  C8  UNL     1       5.813   0.387  -2.093  1.00  0.00     0.155 A 
HETATM   53  N16 UNL     1       4.805   2.199  -3.021  1.00  0.00    -0.346 N 
HETATM   54  N3  UNL     1       6.001  -0.800  -1.501  1.00  0.00    -0.174 N 
HETATM   55  N17 UNL     1       6.770   1.289  -2.484  1.00  0.00    -0.319 N 
HETATM   56  C7  UNL     1       4.848  -1.444  -1.238  1.00  0.00     0.683 A 
ATOM     57  H3  UNL     1       6.921  -1.177  -1.273  1.00  0.00     0.186 HD
HETATM   58  N4  UNL     1       3.615  -0.971  -1.528  1.00  0.00    -0.174 N 
ATOM     59  H4  UNL     1       2.795  -1.530  -1.290  1.00  0.00     0.186 HD
HETATM   60  C36 UNL     1       6.114   2.345  -3.062  1.00  0.00     0.185 A 
ATOM     61  H16 UNL     1       4.095   2.853  -3.350  1.00  0.00     0.167 HD
BRANCH  56  62
HETATM   62  N2  UNL     1       4.928  -2.675  -0.638  1.00  0.00    -0.215 N 
HETATM   63  C5  UNL     1       3.734  -3.319  -0.127  1.00  0.00     0.143 C 
HETATM   64  C4  UNL     1       4.289  -4.515   0.643  1.00  0.00     0.058 C 
HETATM   65  C3  UNL     1       5.578  -3.950   1.261  1.00  0.00     0.241 C 
HETATM   66  C6  UNL     1       6.121  -3.081   0.090  1.00  0.00     0.177 C 
BRANCH  65  67
HETATM   67  N1  UNL     1       6.509  -4.976   1.774  1.00  0.00     0.086 N 
HETATM   68  C1  UNL     1       7.735  -4.367   2.297  1.00  0.00     0.310 C 
HETATM   69  C2  UNL     1       5.890  -5.799   2.817  1.00  0.00     0.310 C 
ENDBRANCH  65  67
ENDBRANCH  56  62
BRANCH  55  70
HETATM   70  C37 UNL     1       8.201   1.081  -2.373  1.00  0.00     0.126 C 
HETATM   71  C38 UNL     1       8.656   0.692  -0.954  1.00  0.00     0.058 C 
HETATM   72  C39 UNL     1      10.099   1.203  -0.800  1.00  0.00     0.141 C 
HETATM   73  C40 UNL     1      10.444   1.905  -2.118  1.00  0.00     0.173 C 
HETATM   74  C41 UNL     1       9.082   2.294  -2.702  1.00  0.00     0.172 C 
BRANCH  72  75
HETATM   75  N18 UNL     1      10.242   2.083   0.348  1.00  0.00    -0.296 N 
HETATM   76  C42 UNL     1      10.890   1.798   1.515  1.00  0.00     0.113 A 
HETATM   77  C43 UNL     1      10.759   2.915   2.305  1.00  0.00     0.047 A 
HETATM   78  C44 UNL     1      10.011   3.828   1.529  1.00  0.00     0.050 A 
HETATM   79  N19 UNL     1       9.694   3.313   0.328  1.00  0.00    -0.300 N 
ATOM     80  H19 UNL     1       9.162   3.752  -0.424  1.00  0.00     0.187 HD
BRANCH  78  81
HETATM   81  C45 UNL     1       9.573   5.210   1.894  1.00  0.00     0.222 C 
BRANCH  81  82
HETATM   82  O6  UNL     1       9.411   6.039   0.742  1.00  0.00    -0.395 OA
HETATM   83  H65 UNL     1       9.211   5.408   0.022  1.00  0.00     0.209 HD
ENDBRANCH  81  82
ENDBRANCH  78  81
ENDBRANCH  72  75
BRANCH  73  84
HETATM   84  O5  UNL     1      11.073   0.980  -3.025  1.00  0.00    -0.391 OA
HETATM   85  H64 UNL     1      12.019   0.944  -2.791  1.00  0.00     0.210 HD
ENDBRANCH  73  84
BRANCH  74  86
HETATM   86  O4  UNL     1       9.187   2.514  -4.107  1.00  0.00    -0.391 OA
HETATM   87  H63 UNL     1       9.849   1.868  -4.431  1.00  0.00     0.210 HD
ENDBRANCH  74  86
ENDBRANCH  55  70
ENDBRANCH  48  50
ENDBRANCH   1  48
TORSDOF 20
