REMARK  0 active torsions:
REMARK  status: ('A' for Active; 'I' for Inactive)
REMARK       I    between atoms: C2_2  and  N1_57 
REMARK       I    between atoms: C3_3  and  C4_4 
REMARK       I    between atoms: C3_3  and  N1_57 
REMARK       I    between atoms: C4_4  and  C5_5 
REMARK       I    between atoms: C4_4  and  N5_62 
REMARK       I    between atoms: C5_5  and  C6_6 
REMARK       I    between atoms: C6_6  and  C7_7 
REMARK       I    between atoms: C7_7  and  N2_58 
REMARK       I    between atoms: C8_8  and  N3_60 
REMARK       I    between atoms: C8_8  and  N4_61 
REMARK       I    between atoms: C9_9  and  C10_10 
REMARK       I    between atoms: C9_9  and  N5_62 
REMARK       I    between atoms: C10_10  and  C11_11 
REMARK       I    between atoms: C10_10  and  N9_67 
REMARK       I    between atoms: C11_11  and  C12_12 
REMARK       I    between atoms: C12_12  and  C13_13 
REMARK       I    between atoms: C13_13  and  N6_63 
REMARK       I    between atoms: C14_14  and  N7_65 
REMARK       I    between atoms: C14_14  and  N8_66 
REMARK       I    between atoms: C15_15  and  C16_16 
REMARK       I    between atoms: C15_15  and  N9_67 
REMARK       I    between atoms: C16_16  and  C17_17 
REMARK       I    between atoms: C16_16  and  N13_72 
REMARK       I    between atoms: C17_17  and  C18_18 
REMARK       I    between atoms: C18_18  and  C19_19 
REMARK       I    between atoms: C19_19  and  N10_68 
REMARK       I    between atoms: C20_20  and  N11_70 
REMARK       I    between atoms: C20_20  and  N12_71 
REMARK       I    between atoms: C21_21  and  C22_22 
REMARK       I    between atoms: C21_21  and  N13_72 
REMARK       I    between atoms: C22_22  and  C23_23 
REMARK       I    between atoms: C22_22  and  N17_77 
REMARK       I    between atoms: C23_23  and  C24_24 
REMARK       I    between atoms: C24_24  and  C25_25 
REMARK       I    between atoms: C25_25  and  N14_73 
REMARK       I    between atoms: C26_26  and  N15_75 
REMARK       I    between atoms: C26_26  and  N16_76 
REMARK       I    between atoms: C27_27  and  N17_77 
REMARK       I    between atoms: C27_27  and  N18_78 
REMARK       I    between atoms: C28_28  and  C29_29 
REMARK       I    between atoms: C28_28  and  C44_44 
REMARK       I    between atoms: C28_28  and  N18_78 
REMARK       I    between atoms: C29_29  and  C30_30 
REMARK       I    between atoms: C30_30  and  C31_31 
REMARK       I    between atoms: C31_31  and  C32_32 
REMARK       I    between atoms: C32_32  and  N19_79 
REMARK       I    between atoms: C33_33  and  O8_52 
REMARK       I    between atoms: C33_33  and  N19_79 
REMARK       I    between atoms: C34_34  and  C35_35 
REMARK       I    between atoms: C34_34  and  O8_52 
REMARK       I    between atoms: C36_36  and  O11_55 
REMARK       I    between atoms: C37_37  and  O10_54 
REMARK       I    between atoms: C38_38  and  N20_80 
REMARK       I    between atoms: C43_43  and  N24_87 
REMARK       I    between atoms: C44_44  and  N25_88 
ROOT
HETATM    1  C1  UNL     1      -9.450   4.101   0.233  1.00  0.00     0.117 C 
HETATM    2  C2  UNL     1      -9.153   2.925   1.128  1.00  0.00     0.220 C 
HETATM    3  C3  UNL     1      -7.314   1.959   2.446  1.00  0.00     0.247 C 
HETATM    4  C4  UNL     1      -5.773   2.079   2.542  1.00  0.00     0.177 C 
HETATM    5  C5  UNL     1      -5.223   1.178   3.656  1.00  0.00     0.036 C 
HETATM    6  C6  UNL     1      -3.708   1.282   3.890  1.00  0.00     0.022 C 
HETATM    7  C7  UNL     1      -3.163   2.706   4.008  1.00  0.00     0.122 C 
HETATM    8  C8  UNL     1      -3.712   4.683   5.161  1.00  0.00     0.143 C 
HETATM    9  C9  UNL     1      -5.106   2.595   0.183  1.00  0.00     0.241 C 
HETATM   10  C10 UNL     1      -4.242   2.104  -1.017  1.00  0.00     0.176 C 
HETATM   11  C11 UNL     1      -4.354   3.013  -2.258  1.00  0.00     0.036 C 
HETATM   12  C12 UNL     1      -5.681   2.949  -3.036  1.00  0.00     0.022 C 
HETATM   13  C13 UNL     1      -6.729   3.994  -2.663  1.00  0.00     0.121 C 
HETATM   14  C14 UNL     1      -5.867   6.205  -2.414  1.00  0.00     0.121 C 
HETATM   15  C15 UNL     1      -3.907  -0.350  -0.674  1.00  0.00     0.241 C 
HETATM   16  C16 UNL     1      -4.034  -1.739  -1.339  1.00  0.00     0.176 C 
HETATM   17  C17 UNL     1      -5.326  -2.438  -0.907  1.00  0.00     0.036 C 
HETATM   18  C18 UNL     1      -6.574  -1.849  -1.575  1.00  0.00     0.022 C 
HETATM   19  C19 UNL     1      -7.853  -2.583  -1.173  1.00  0.00     0.121 C 
HETATM   20  C20 UNL     1      -8.589  -1.440   0.769  1.00  0.00     0.121 C 
HETATM   21  C21 UNL     1      -1.662  -2.351  -1.551  1.00  0.00     0.241 C 
HETATM   22  C22 UNL     1      -0.460  -3.044  -0.878  1.00  0.00     0.178 C 
HETATM   23  C23 UNL     1      -0.163  -2.486   0.524  1.00  0.00     0.036 C 
HETATM   24  C24 UNL     1       0.231  -0.999   0.521  1.00  0.00     0.022 C 
HETATM   25  C25 UNL     1       0.901  -0.573   1.829  1.00  0.00     0.121 C 
HETATM   26  C26 UNL     1       3.034  -0.845   2.793  1.00  0.00     0.121 C 
HETATM   27  C27 UNL     1       1.826  -3.647  -1.592  1.00  0.00     0.317 C 
HETATM   28  C28 UNL     1       4.223  -3.628  -2.148  1.00  0.00     0.178 C 
HETATM   29  C29 UNL     1       4.940  -3.755  -3.502  1.00  0.00     0.035 C 
HETATM   30  C30 UNL     1       6.190  -4.642  -3.450  1.00  0.00     0.004 C 
HETATM   31  C31 UNL     1       6.723  -5.017  -4.840  1.00  0.00     0.020 C 
HETATM   32  C32 UNL     1       7.246  -3.853  -5.683  1.00  0.00     0.125 C 
HETATM   33  C33 UNL     1       8.446  -2.123  -4.399  1.00  0.00     0.360 C 
HETATM   34  C34 UNL     1       9.782  -0.836  -2.949  1.00  0.00     0.215 C 
HETATM   35  C35 UNL     1       9.157  -1.184  -1.599  1.00  0.00     0.180 C 
HETATM   36  C36 UNL     1       9.662  -2.483  -0.976  1.00  0.00     0.182 C 
HETATM   37  C37 UNL     1       9.292  -2.289   0.484  1.00  0.00     0.198 C 
HETATM   38  C38 UNL     1       9.464  -0.774   0.673  1.00  0.00     0.262 C 
HETATM   39  C39 UNL     1       7.116   0.032   1.090  1.00  0.00     0.188 A 
HETATM   40  C40 UNL     1       7.217   0.532   3.161  1.00  0.00     0.116 A 
HETATM   41  C41 UNL     1       8.499   0.143   2.808  1.00  0.00     0.142 A 
HETATM   42  C42 UNL     1       9.270   0.517   4.853  1.00  0.00     0.183 A 
HETATM   43  C43 UNL     1       7.016   0.931   4.492  1.00  0.00     0.109 A 
HETATM   44  C44 UNL     1       4.950  -2.634  -1.198  1.00  0.00     0.238 C 
HETATM   45  O1  UNL     1      -9.999   2.058   1.331  1.00  0.00    -0.274 OA
HETATM   46  O2  UNL     1      -7.958   1.121   3.072  1.00  0.00    -0.271 OA
HETATM   47  O3  UNL     1      -5.606   3.720   0.260  1.00  0.00    -0.271 OA
HETATM   48  O4  UNL     1      -3.418  -0.189   0.446  1.00  0.00    -0.271 OA
HETATM   49  O5  UNL     1      -1.551  -1.711  -2.599  1.00  0.00    -0.271 OA
HETATM   50  O6  UNL     1       1.942  -4.551  -0.778  1.00  0.00    -0.247 OA
HETATM   51  O7  UNL     1       7.485  -1.395  -4.214  1.00  0.00    -0.239 OA
HETATM   52  O8  UNL     1       9.680  -1.939  -3.865  1.00  0.00    -0.301 OA
HETATM   53  O9  UNL     1       9.425  -0.148  -0.634  1.00  0.00    -0.353 OA
HETATM   54  O10 UNL     1      10.139  -3.063   1.334  1.00  0.00    -0.388 OA
HETATM   55  O11 UNL     1      11.092  -2.612  -1.057  1.00  0.00    -0.390 OA
HETATM   56  O12 UNL     1       6.165  -2.634  -1.003  1.00  0.00    -0.271 OA
HETATM   57  N1  UNL     1      -7.870   2.939   1.634  1.00  0.00    -0.296 N 
HETATM   58  N2  UNL     1      -3.944   3.434   5.001  1.00  0.00    -0.367 N 
ATOM     59  H2  UNL     1      -4.658   2.960   5.555  1.00  0.00     0.162 HD
HETATM   60  N3  UNL     1      -2.814   5.470   4.536  1.00  0.00    -0.376 N 
HETATM   61  N4  UNL     1      -4.466   5.381   6.037  1.00  0.00    -0.274 NA
HETATM   62  N5  UNL     1      -5.183   1.732   1.249  1.00  0.00    -0.346 N 
HETATM   63  N6  UNL     1      -6.365   5.309  -3.172  1.00  0.00    -0.372 N 
ATOM     64  H6  UNL     1      -6.512   5.518  -4.159  1.00  0.00     0.161 HD
HETATM   65  N7  UNL     1      -5.497   6.168  -1.117  1.00  0.00    -0.279 NA
HETATM   66  N8  UNL     1      -5.599   7.427  -2.923  1.00  0.00    -0.279 NA
HETATM   67  N9  UNL     1      -4.448   0.695  -1.389  1.00  0.00    -0.346 N 
HETATM   68  N10 UNL     1      -8.073  -2.498   0.267  1.00  0.00    -0.372 N 
ATOM     69  H10 UNL     1      -7.817  -3.279   0.871  1.00  0.00     0.161 HD
HETATM   70  N11 UNL     1      -9.004  -0.312   0.152  1.00  0.00    -0.279 NA
HETATM   71  N12 UNL     1      -8.783  -1.352   2.100  1.00  0.00    -0.279 NA
HETATM   72  N13 UNL     1      -2.873  -2.516  -0.911  1.00  0.00    -0.346 N 
HETATM   73  N14 UNL     1       2.191  -1.251   1.922  1.00  0.00    -0.372 N 
ATOM     74  H14 UNL     1       2.415  -2.032   1.305  1.00  0.00     0.161 HD
HETATM   75  N15 UNL     1       4.235  -1.447   2.903  1.00  0.00    -0.279 NA
HETATM   76  N16 UNL     1       2.934   0.148   3.705  1.00  0.00    -0.279 NA
HETATM   77  N17 UNL     1       0.698  -2.900  -1.756  1.00  0.00    -0.330 N 
HETATM   78  N18 UNL     1       2.842  -3.192  -2.387  1.00  0.00    -0.330 N 
HETATM   79  N19 UNL     1       8.445  -3.273  -5.123  1.00  0.00    -0.337 N 
HETATM   80  N20 UNL     1       8.408  -0.200   1.488  1.00  0.00    -0.297 N 
HETATM   81  N21 UNL     1       6.354   0.435   2.086  1.00  0.00    -0.346 N 
ATOM     82  H21 UNL     1       5.353   0.631   2.068  1.00  0.00     0.167 HD
HETATM   83  N22 UNL     1       9.579   0.107   3.605  1.00  0.00    -0.336 N 
ATOM     84  H22 UNL     1      10.508  -0.190   3.307  1.00  0.00     0.168 HD
HETATM   85  N23 UNL     1       8.074   0.930   5.332  1.00  0.00    -0.341 N 
ATOM     86  H23 UNL     1       7.974   1.232   6.301  1.00  0.00     0.167 HD
HETATM   87  N24 UNL     1       5.778   1.344   4.980  1.00  0.00    -0.287 NA
HETATM   88  N25 UNL     1       4.160  -1.751  -0.511  1.00  0.00    -0.368 N 
HETATM   89  H49 UNL     1      11.003  -3.102   0.872  1.00  0.00     0.210 HD
HETATM   90  H50 UNL     1      11.304  -2.838  -1.982  1.00  0.00     0.210 HD
HETATM   91  H51 UNL     1      -7.202   3.561   1.187  1.00  0.00     0.171 HD
HETATM   92  H52 UNL     1      -2.560   6.339   4.981  1.00  0.00     0.158 HD
HETATM   93  H53 UNL     1      -2.054   5.012   4.052  1.00  0.00     0.158 HD
HETATM   94  H54 UNL     1      -3.949   5.979   6.665  1.00  0.00     0.127 HD
HETATM   95  H55 UNL     1      -5.060   4.745   6.562  1.00  0.00     0.127 HD
HETATM   96  H56 UNL     1      -4.634   0.874   1.196  1.00  0.00     0.163 HD
HETATM   97  H57 UNL     1      -5.737   5.324  -0.599  1.00  0.00     0.126 HD
HETATM   98  H58 UNL     1      -5.753   7.003  -0.604  1.00  0.00     0.126 HD
HETATM   99  H59 UNL     1      -4.677   7.756  -2.664  1.00  0.00     0.126 HD
HETATM  100  H60 UNL     1      -5.702   7.407  -3.933  1.00  0.00     0.126 HD
HETATM  101  H61 UNL     1      -4.616   0.508  -2.371  1.00  0.00     0.163 HD
HETATM  102  H62 UNL     1      -9.645   0.245   0.725  1.00  0.00     0.126 HD
HETATM  103  H63 UNL     1      -9.394  -0.461  -0.767  1.00  0.00     0.126 HD
HETATM  104  H64 UNL     1      -8.289  -2.078   2.602  1.00  0.00     0.126 HD
HETATM  105  H65 UNL     1      -8.590  -0.430   2.503  1.00  0.00     0.126 HD
HETATM  106  H66 UNL     1      -2.851  -2.768   0.070  1.00  0.00     0.163 HD
HETATM  107  H67 UNL     1       5.001  -0.773   2.847  1.00  0.00     0.126 HD
HETATM  108  H68 UNL     1       4.356  -2.158   2.190  1.00  0.00     0.126 HD
HETATM  109  H69 UNL     1       3.498  -0.051   4.528  1.00  0.00     0.126 HD
HETATM  110  H70 UNL     1       1.982   0.375   3.958  1.00  0.00     0.126 HD
HETATM  111  H71 UNL     1       0.525  -2.488  -2.666  1.00  0.00     0.165 HD
HETATM  112  H72 UNL     1       2.741  -2.228  -2.676  1.00  0.00     0.165 HD
HETATM  113  H73 UNL     1       9.315  -3.784  -5.158  1.00  0.00     0.164 HD
HETATM  114  H74 UNL     1       5.168   1.687   4.242  1.00  0.00     0.125 HD
HETATM  115  H75 UNL     1       5.897   1.938   5.791  1.00  0.00     0.125 HD
HETATM  116  H76 UNL     1       3.205  -2.008  -0.268  1.00  0.00     0.159 HD
HETATM  117  H77 UNL     1       4.599  -1.167   0.189  1.00  0.00     0.159 HD
ENDROOT
TORSDOF 38
