REMARK  0 active torsions:
REMARK  status: ('A' for Active; 'I' for Inactive)
REMARK       I    between atoms: C2_2  and  C3_3 
REMARK       I    between atoms: C3_3  and  C5_5 
REMARK       I    between atoms: C5_5  and  C6_6 
REMARK       I    between atoms: C5_5  and  N6_64 
REMARK       I    between atoms: C6_6  and  N1_59 
REMARK       I    between atoms: C7_7  and  C8_8 
REMARK       I    between atoms: C7_7  and  C12_12 
REMARK       I    between atoms: C7_7  and  N1_59 
REMARK       I    between atoms: C8_8  and  C10_10 
REMARK       I    between atoms: C12_12  and  N2_60 
REMARK       I    between atoms: C13_13  and  C14_14 
REMARK       I    between atoms: C13_13  and  N2_60 
REMARK       I    between atoms: C14_14  and  N3_61 
REMARK       I    between atoms: C15_15  and  C16_16 
REMARK       I    between atoms: C15_15  and  C20_20 
REMARK       I    between atoms: C15_15  and  N3_61 
REMARK       I    between atoms: C16_16  and  C17_17 
REMARK       I    between atoms: C20_20  and  N4_62 
REMARK       I    between atoms: C21_21  and  C22_22 
REMARK       I    between atoms: C21_21  and  C25_25 
REMARK       I    between atoms: C21_21  and  N4_62 
REMARK       I    between atoms: C22_22  and  C23_23 
REMARK       I    between atoms: C23_23  and  S1_73 
REMARK       I    between atoms: C25_25  and  N5_63 
REMARK       I    between atoms: C26_26  and  C27_27 
REMARK       I    between atoms: C26_26  and  N6_64 
REMARK       I    between atoms: C27_27  and  N7_65 
REMARK       I    between atoms: C29_29  and  C30_30 
REMARK       I    between atoms: C29_29  and  N7_65 
REMARK       I    between atoms: C30_30  and  N8_66 
REMARK       I    between atoms: C31_31  and  C32_32 
REMARK       I    between atoms: C31_31  and  N8_66 
REMARK       I    between atoms: C32_32  and  C33_33 
REMARK       I    between atoms: C32_32  and  N10_68 
REMARK       I    between atoms: C33_33  and  C34_34 
REMARK       I    between atoms: C34_34  and  C35_35 
REMARK       I    between atoms: C35_35  and  C36_36 
REMARK       I    between atoms: C36_36  and  N9_67 
REMARK       I    between atoms: C37_37  and  C38_38 
REMARK       I    between atoms: C37_37  and  N10_68 
REMARK       I    between atoms: C38_38  and  C39_39 
REMARK       I    between atoms: C38_38  and  N12_70 
REMARK       I    between atoms: C39_39  and  C40_40 
REMARK       I    between atoms: C40_40  and  N11_69 
REMARK       I    between atoms: C41_41  and  C42_42 
REMARK       I    between atoms: C41_41  and  N12_70 
REMARK       I    between atoms: C42_42  and  C43_43 
REMARK       I    between atoms: C42_42  and  N13_71 
REMARK       I    between atoms: C43_43  and  O12_57 
REMARK       I    between atoms: C44_44  and  C45_45 
REMARK       I    between atoms: C44_44  and  N13_71 
REMARK       I    between atoms: C45_45  and  N14_72 
ROOT
HETATM    1  C1  UNL     1       4.104   5.664   2.561  1.00  0.00     0.005 C 
HETATM    2  C2  UNL     1       3.636   5.324   1.152  1.00  0.00     0.002 C 
HETATM    3  C3  UNL     1       2.129   5.573   0.928  1.00  0.00     0.013 C 
HETATM    4  C4  UNL     1       1.269   4.650   1.802  1.00  0.00     0.012 C 
HETATM    5  C5  UNL     1       1.771   5.489  -0.580  1.00  0.00     0.180 C 
HETATM    6  C6  UNL     1       1.885   4.045  -1.130  1.00  0.00     0.241 C 
HETATM    7  C7  UNL     1       0.491   2.020  -1.730  1.00  0.00     0.180 C 
HETATM    8  C8  UNL     1       0.335   2.058  -3.277  1.00  0.00     0.013 C 
HETATM    9  C9  UNL     1      -0.874   2.924  -3.669  1.00  0.00     0.012 C 
HETATM   10  C10 UNL     1       1.557   2.514  -4.098  1.00  0.00     0.002 C 
HETATM   11  C11 UNL     1       2.736   1.554  -4.063  1.00  0.00     0.005 C 
HETATM   12  C12 UNL     1       1.292   0.783  -1.238  1.00  0.00     0.241 C 
HETATM   13  C13 UNL     1       3.433  -0.016  -0.355  1.00  0.00     0.225 C 
HETATM   14  C14 UNL     1       3.001  -1.143   0.586  1.00  0.00     0.236 C 
HETATM   15  C15 UNL     1       1.961  -3.400   0.676  1.00  0.00     0.177 C 
HETATM   16  C16 UNL     1       1.057  -4.233  -0.251  1.00  0.00     0.038 C 
HETATM   17  C17 UNL     1       0.281  -5.362   0.458  1.00  0.00    -0.020 C 
HETATM   18  C18 UNL     1       0.978  -6.716   0.302  1.00  0.00     0.009 C 
HETATM   19  C19 UNL     1      -1.137  -5.471  -0.114  1.00  0.00     0.009 C 
HETATM   20  C20 UNL     1       3.168  -4.227   1.176  1.00  0.00     0.241 C 
HETATM   21  C21 UNL     1       5.538  -4.774   0.708  1.00  0.00     0.177 C 
HETATM   22  C22 UNL     1       5.558  -6.299   0.512  1.00  0.00     0.045 C 
HETATM   23  C23 UNL     1       5.876  -7.063   1.800  1.00  0.00     0.076 C 
HETATM   24  C24 UNL     1       7.547  -7.774   3.867  1.00  0.00     0.089 C 
HETATM   25  C25 UNL     1       6.606  -4.052  -0.139  1.00  0.00     0.238 C 
HETATM   26  C26 UNL     1       0.036   6.423  -2.088  1.00  0.00     0.240 C 
HETATM   27  C27 UNL     1      -1.333   7.129  -2.133  1.00  0.00     0.172 C 
HETATM   28  C28 UNL     1      -1.113   8.632  -1.999  1.00  0.00     0.042 C 
HETATM   29  C29 UNL     1      -3.516   6.880  -0.974  1.00  0.00     0.236 C 
HETATM   30  C30 UNL     1      -4.218   6.090   0.129  1.00  0.00     0.225 C 
HETATM   31  C31 UNL     1      -3.745   3.727  -0.464  1.00  0.00     0.240 C 
HETATM   32  C32 UNL     1      -4.434   2.366  -0.733  1.00  0.00     0.176 C 
HETATM   33  C33 UNL     1      -5.163   1.914   0.549  1.00  0.00     0.035 C 
HETATM   34  C34 UNL     1      -6.166   0.779   0.319  1.00  0.00     0.004 C 
HETATM   35  C35 UNL     1      -6.869   0.328   1.609  1.00  0.00     0.030 C 
HETATM   36  C36 UNL     1      -5.963  -0.294   2.679  1.00  0.00     0.267 C 
HETATM   37  C37 UNL     1      -3.701   0.422  -2.104  1.00  0.00     0.241 C 
HETATM   38  C38 UNL     1      -2.585  -0.641  -2.264  1.00  0.00     0.185 C 
HETATM   39  C39 UNL     1      -3.128  -1.911  -2.923  1.00  0.00     0.137 C 
HETATM   40  C40 UNL     1      -2.029  -2.878  -3.286  1.00  0.00     0.217 C 
HETATM   41  C41 UNL     1      -2.493  -1.418   0.093  1.00  0.00     0.243 C 
HETATM   42  C42 UNL     1      -1.617  -1.628   1.340  1.00  0.00     0.200 C 
HETATM   43  C43 UNL     1      -0.989  -0.311   1.810  1.00  0.00     0.199 C 
HETATM   44  C44 UNL     1      -1.909  -3.011   3.379  1.00  0.00     0.246 C 
HETATM   45  C45 UNL     1      -2.947  -3.573   4.358  1.00  0.00     0.368 C 
HETATM   46  O1  UNL     1       2.966   3.527  -1.405  1.00  0.00    -0.271 OA
HETATM   47  O2  UNL     1       0.917  -0.365  -1.498  1.00  0.00    -0.271 OA
HETATM   48  O3  UNL     1       3.093  -1.069   1.807  1.00  0.00    -0.272 OA
HETATM   49  O4  UNL     1       3.128  -4.950   2.169  1.00  0.00    -0.271 OA
HETATM   50  O5  UNL     1       6.336  -3.159  -0.942  1.00  0.00    -0.271 OA
HETATM   51  O6  UNL     1       0.760   6.309  -3.071  1.00  0.00    -0.271 OA
HETATM   52  O7  UNL     1      -4.111   7.634  -1.735  1.00  0.00    -0.272 OA
HETATM   53  O8  UNL     1      -2.527   3.879  -0.344  1.00  0.00    -0.271 OA
HETATM   54  O9  UNL     1      -4.675   0.489  -2.851  1.00  0.00    -0.271 OA
HETATM   55  O10 UNL     1      -0.837  -2.692  -3.078  1.00  0.00    -0.274 OA
HETATM   56  O11 UNL     1      -3.691  -1.706   0.074  1.00  0.00    -0.271 OA
HETATM   57  O12 UNL     1      -2.002   0.633   2.179  1.00  0.00    -0.398 OA
HETATM   58  O13 UNL     1      -0.706  -3.243   3.462  1.00  0.00    -0.272 OA
HETATM   59  N1  UNL     1       0.719   3.316  -1.092  1.00  0.00    -0.346 N 
HETATM   60  N2  UNL     1       2.434   1.023  -0.516  1.00  0.00    -0.351 N 
HETATM   61  N3  UNL     1       2.465  -2.235  -0.074  1.00  0.00    -0.346 N 
HETATM   62  N4  UNL     1       4.249  -4.213   0.321  1.00  0.00    -0.346 N 
HETATM   63  N5  UNL     1       7.900  -4.427   0.070  1.00  0.00    -0.368 N 
HETATM   64  N6  UNL     1       0.421   6.016  -0.820  1.00  0.00    -0.346 N 
HETATM   65  N7  UNL     1      -2.166   6.601  -1.050  1.00  0.00    -0.347 N 
HETATM   66  N8  UNL     1      -4.631   4.779  -0.331  1.00  0.00    -0.351 N 
HETATM   67  N9  UNL     1      -5.382  -1.575   2.277  1.00  0.00     0.078 N 
HETATM   68  N10 UNL     1      -3.446   1.379  -1.141  1.00  0.00    -0.346 N 
HETATM   69  N11 UNL     1      -2.464  -4.022  -3.888  1.00  0.00    -0.370 N 
HETATM   70  N12 UNL     1      -1.870  -0.855  -0.999  1.00  0.00    -0.345 N 
HETATM   71  N13 UNL     1      -2.441  -2.218   2.396  1.00  0.00    -0.344 N 
HETATM   72  N14 UNL     1      -2.302  -4.438   5.359  1.00  0.00     0.087 N 
HETATM   73  S1  UNL     1       7.613  -6.838   2.318  1.00  0.00    -0.173 SA
HETATM   74  H64 UNL     1      -2.488   0.217   2.917  1.00  0.00     0.209 HD
HETATM   75  H65 UNL     1      -0.118   3.858  -0.898  1.00  0.00     0.163 HD
HETATM   76  H66 UNL     1       2.818   1.958  -0.655  1.00  0.00     0.163 HD
HETATM   77  H67 UNL     1       1.977  -1.986  -0.936  1.00  0.00     0.163 HD
HETATM   78  H68 UNL     1       4.271  -3.454  -0.358  1.00  0.00     0.163 HD
HETATM   79  H69 UNL     1       8.162  -5.088   0.795  1.00  0.00     0.159 HD
HETATM   80  H70 UNL     1       8.630  -3.937  -0.428  1.00  0.00     0.159 HD
HETATM   81  H71 UNL     1      -0.056   6.478  -0.053  1.00  0.00     0.163 HD
HETATM   82  H72 UNL     1      -1.946   5.651  -0.742  1.00  0.00     0.163 HD
HETATM   83  H73 UNL     1      -5.577   4.678  -0.680  1.00  0.00     0.163 HD
HETATM   84  H74 UNL     1      -6.141  -2.254   2.181  1.00  0.00     0.312 HD
HETATM   85  H75 UNL     1      -5.024  -1.492   1.311  1.00  0.00     0.312 HD
HETATM   86  H76 UNL     1      -2.667   1.214  -0.510  1.00  0.00     0.163 HD
HETATM   87  H77 UNL     1      -3.443  -4.262  -3.967  1.00  0.00     0.159 HD
HETATM   88  H78 UNL     1      -1.775  -4.728  -4.113  1.00  0.00     0.159 HD
HETATM   89  H79 UNL     1      -0.861  -0.998  -1.098  1.00  0.00     0.163 HD
HETATM   90  H80 UNL     1      -3.455  -2.080   2.357  1.00  0.00     0.163 HD
HETATM   91  H81 UNL     1      -1.784  -5.160   4.852  1.00  0.00     0.313 HD
HETATM   92  H82 UNL     1      -1.556  -3.892   5.799  1.00  0.00     0.313 HD
ENDROOT
TORSDOF 40
