REMARK  15 active torsions:
REMARK  status: ('A' for Active; 'I' for Inactive)
REMARK    1  A    between atoms: C2_2  and  C3_3 
REMARK    2  A    between atoms: C2_2  and  O4_36 
REMARK    3  A    between atoms: C4_4  and  C5_5 
REMARK    4  A    between atoms: C6_6  and  C7_7 
REMARK    5  A    between atoms: C7_7  and  C8_8 
REMARK       I    between atoms: C8_8  and  N1_37 
REMARK    6  A    between atoms: C9_9  and  N1_37 
REMARK    7  A    between atoms: C20_20  and  N2_38 
REMARK    8  A    between atoms: C22_22  and  C23_23 
REMARK       I    between atoms: C22_22  and  N2_38 
REMARK    9  A    between atoms: C28_28  and  O3_35 
REMARK   10  A    between atoms: C29_29  and  C30_30 
REMARK   11  A    between atoms: C29_29  and  O3_35 
REMARK   12  A    between atoms: C30_30  and  N3_39 
REMARK   13  A    between atoms: C31_31  and  C32_32 
REMARK   14  A    between atoms: C31_31  and  O4_36 
REMARK   15  A    between atoms: C32_32  and  N4_40 
ROOT
HETATM    1  C9  UNL     1       1.499  -0.183  -0.954  1.00  0.00     0.031 C 
HETATM    2  C10 UNL     1       0.842  -1.358  -0.938  1.00  0.00     0.009 C 
HETATM    3  C11 UNL     1      -0.255  -1.714  -1.927  1.00  0.00     0.027 C 
HETATM    4  C12 UNL     1      -1.466  -2.390  -1.240  1.00  0.00     0.048 C 
HETATM    5  C13 UNL     1      -2.461  -1.276  -1.148  1.00  0.00    -0.048 A 
HETATM    6  C14 UNL     1      -2.112  -0.210  -1.978  1.00  0.00    -0.043 A 
HETATM    7  C15 UNL     1      -0.828  -0.493  -2.716  1.00  0.00     0.049 C 
HETATM    8  C16 UNL     1       0.109   0.678  -2.774  1.00  0.00    -0.014 C 
HETATM    9  C17 UNL     1       1.177   0.798  -1.971  1.00  0.00     0.026 C 
HETATM   10  C18 UNL     1      -2.938   0.899  -2.074  1.00  0.00     0.011 A 
HETATM   11  C19 UNL     1      -4.109   0.931  -1.309  1.00  0.00     0.030 A 
HETATM   12  C20 UNL     1      -4.463  -0.142  -0.467  1.00  0.00     0.035 A 
HETATM   13  C21 UNL     1      -3.629  -1.259  -0.395  1.00  0.00     0.037 A 
ENDROOT
BRANCH   1  14
HETATM   14  N1  UNL     1       2.475   0.033  -0.006  1.00  0.00    -0.327 N 
HETATM   15  C8  UNL     1       3.292   1.139   0.185  1.00  0.00     0.225 C 
HETATM   16  O1  UNL     1       3.321   2.159  -0.498  1.00  0.00    -0.273 OA
HETATM   17  H31 UNL     1       2.616  -0.726   0.648  1.00  0.00     0.169 HD
BRANCH  15  18
HETATM   18  C7  UNL     1       4.216   0.982   1.389  1.00  0.00     0.130 C 
BRANCH  18  19
HETATM   19  C6  UNL     1       5.406   0.129   1.053  1.00  0.00    -0.018 C 
HETATM   20  C5  UNL     1       6.596   0.536   0.580  1.00  0.00    -0.003 C 
BRANCH  20  21
HETATM   21  C4  UNL     1       6.942   1.893   0.222  1.00  0.00     0.002 C 
HETATM   22  C3  UNL     1       8.144   2.380  -0.135  1.00  0.00     0.036 C 
BRANCH  22  23
HETATM   23  C2  UNL     1       9.452   1.743  -0.194  1.00  0.00     0.059 C 
HETATM   24  C1  UNL     1      10.441   2.318  -0.899  1.00  0.00     0.050 C 
BRANCH  23  25
HETATM   25  O4  UNL     1       9.569   0.601   0.561  1.00  0.00    -0.350 OA
BRANCH  25  26
HETATM   26  C31 UNL     1      10.833  -0.064   0.604  1.00  0.00     0.205 C 
BRANCH  26  27
HETATM   27  C32 UNL     1      10.690  -1.294   1.506  1.00  0.00     0.293 C 
BRANCH  27  28
HETATM   28  N4  UNL     1      11.948  -2.024   1.663  1.00  0.00     0.080 N 
HETATM   29  H35 UNL     1      12.623  -1.435   2.149  1.00  0.00     0.312 HD
HETATM   30  H36 UNL     1      11.790  -2.829   2.270  1.00  0.00     0.312 HD
ENDBRANCH  27  28
ENDBRANCH  26  27
ENDBRANCH  25  26
ENDBRANCH  23  25
ENDBRANCH  22  23
ENDBRANCH  20  21
ENDBRANCH  18  19
ENDBRANCH  15  18
ENDBRANCH   1  14
BRANCH  12  31
HETATM   31  N2  UNL     1      -5.669  -0.014   0.251  1.00  0.00    -0.323 N 
HETATM   32  C22 UNL     1      -6.250  -0.924   1.113  1.00  0.00     0.259 C 
HETATM   33  O2  UNL     1      -5.813  -2.036   1.391  1.00  0.00    -0.267 OA
HETATM   34  H32 UNL     1      -6.176   0.858   0.121  1.00  0.00     0.169 HD
BRANCH  32  35
HETATM   35  C23 UNL     1      -7.519  -0.477   1.772  1.00  0.00     0.065 A 
HETATM   36  C24 UNL     1      -7.865  -1.098   2.985  1.00  0.00     0.020 A 
HETATM   37  C25 UNL     1      -9.015  -0.718   3.679  1.00  0.00     0.001 A 
HETATM   38  C26 UNL     1      -9.828   0.293   3.174  1.00  0.00     0.003 A 
HETATM   39  C27 UNL     1      -9.506   0.909   1.965  1.00  0.00     0.038 A 
HETATM   40  C28 UNL     1      -8.374   0.505   1.245  1.00  0.00     0.084 A 
BRANCH  40  41
HETATM   41  O3  UNL     1      -8.061   1.123   0.060  1.00  0.00    -0.348 OA
BRANCH  41  42
HETATM   42  C29 UNL     1      -9.059   0.949  -0.963  1.00  0.00     0.205 C 
BRANCH  42  43
HETATM   43  C30 UNL     1      -8.882  -0.380  -1.716  1.00  0.00     0.293 C 
BRANCH  43  44
HETATM   44  N3  UNL     1      -7.638  -0.417  -2.486  1.00  0.00     0.080 N 
HETATM   45  H33 UNL     1      -6.845  -0.361  -1.843  1.00  0.00     0.312 HD
HETATM   46  H34 UNL     1      -7.546  -1.330  -2.933  1.00  0.00     0.312 HD
ENDBRANCH  43  44
ENDBRANCH  42  43
ENDBRANCH  41  42
ENDBRANCH  40  41
ENDBRANCH  32  35
ENDBRANCH  12  31
TORSDOF 15
