REMARK  0 active torsions:
REMARK  status: ('A' for Active; 'I' for Inactive)
REMARK       I    between atoms: C2_2  and  C3_3 
REMARK       I    between atoms: C3_3  and  C4_4 
REMARK       I    between atoms: C3_3  and  N2_65 
REMARK       I    between atoms: C4_4  and  C5_5 
REMARK       I    between atoms: C5_5  and  C6_6 
REMARK       I    between atoms: C6_6  and  C7_7 
REMARK       I    between atoms: C7_7  and  N1_64 
REMARK       I    between atoms: C9_9  and  C10_10 
REMARK       I    between atoms: C9_9  and  N2_65 
REMARK       I    between atoms: C10_10  and  C11_11 
REMARK       I    between atoms: C11_11  and  C12_12 
REMARK       I    between atoms: C12_12  and  C13_13 
REMARK       I    between atoms: C13_13  and  C14_14 
REMARK       I    between atoms: C14_14  and  N3_66 
REMARK       I    between atoms: C15_15  and  C16_16 
REMARK       I    between atoms: C15_15  and  N3_66 
REMARK       I    between atoms: C16_16  and  C17_17 
REMARK       I    between atoms: C16_16  and  N4_67 
REMARK       I    between atoms: C18_18  and  C19_19 
REMARK       I    between atoms: C18_18  and  N4_67 
REMARK       I    between atoms: C19_19  and  C20_20 
REMARK       I    between atoms: C19_19  and  N5_68 
REMARK       I    between atoms: C20_20  and  C21_21 
REMARK       I    between atoms: C21_21  and  C22_22 
REMARK       I    between atoms: C22_22  and  O6_53 
REMARK       I    between atoms: C23_23  and  C24_24 
REMARK       I    between atoms: C23_23  and  N5_68 
REMARK       I    between atoms: C24_24  and  C25_25 
REMARK       I    between atoms: C25_25  and  C26_26 
REMARK       I    between atoms: C26_26  and  C27_27 
REMARK       I    between atoms: C27_27  and  C28_28 
REMARK       I    between atoms: C28_28  and  N6_69 
REMARK       I    between atoms: C29_29  and  C30_30 
REMARK       I    between atoms: C29_29  and  N6_69 
REMARK       I    between atoms: C33_33  and  C36_36 
REMARK       I    between atoms: C36_36  and  N7_70 
REMARK       I    between atoms: C37_37  and  C38_38 
REMARK       I    between atoms: C37_37  and  N7_70 
REMARK       I    between atoms: C38_38  and  C39_39 
REMARK       I    between atoms: C39_39  and  C40_40 
REMARK       I    between atoms: C40_40  and  C41_41 
REMARK       I    between atoms: C40_40  and  N8_71 
REMARK       I    between atoms: C41_41  and  O11_58 
REMARK       I    between atoms: C42_42  and  N8_71 
REMARK       I    between atoms: C42_42  and  N9_72 
REMARK       I    between atoms: C43_43  and  C44_44 
REMARK       I    between atoms: C43_43  and  C47_47 
REMARK       I    between atoms: C43_43  and  N9_72 
REMARK       I    between atoms: C44_44  and  C45_45 
REMARK       I    between atoms: C45_45  and  C46_46 
REMARK       I    between atoms: C46_46  and  O14_61 
REMARK       I    between atoms: C47_47  and  O16_63 
ROOT
HETATM    1  C1  UNL     1       9.449   2.440  -5.237  1.00  0.00     0.093 C 
HETATM    2  C2  UNL     1       9.197   0.965  -5.413  1.00  0.00     0.145 C 
HETATM    3  C3  UNL     1       9.575   0.054  -4.243  1.00  0.00     0.153 C 
HETATM    4  C4  UNL     1      10.822  -0.780  -4.563  1.00  0.00     0.033 C 
HETATM    5  C5  UNL     1      12.098   0.063  -4.638  1.00  0.00     0.004 C 
HETATM    6  C6  UNL     1      13.331  -0.818  -4.856  1.00  0.00     0.030 C 
HETATM    7  C7  UNL     1      14.628  -0.028  -5.073  1.00  0.00     0.269 C 
HETATM    8  C8  UNL     1      14.816   2.168  -4.051  1.00  0.00     0.306 C 
HETATM    9  C9  UNL     1       8.166  -1.368  -2.784  1.00  0.00     0.218 C 
HETATM   10  C10 UNL     1       6.960  -2.287  -2.789  1.00  0.00     0.103 C 
HETATM   11  C11 UNL     1       6.443  -2.632  -1.393  1.00  0.00     0.009 C 
HETATM   12  C12 UNL     1       5.860  -1.455  -0.600  1.00  0.00     0.002 C 
HETATM   13  C13 UNL     1       4.710  -0.740  -1.315  1.00  0.00     0.020 C 
HETATM   14  C14 UNL     1       4.040   0.315  -0.433  1.00  0.00     0.122 C 
HETATM   15  C15 UNL     1       2.021  -0.784   0.499  1.00  0.00     0.236 C 
HETATM   16  C16 UNL     1       1.481  -1.535   1.746  1.00  0.00     0.165 C 
HETATM   17  C17 UNL     1      -0.055  -1.747   1.663  1.00  0.00     0.115 C 
HETATM   18  C18 UNL     1       2.947  -1.134   3.705  1.00  0.00     0.221 C 
HETATM   19  C19 UNL     1       2.816  -1.033   5.237  1.00  0.00     0.171 C 
HETATM   20  C20 UNL     1       2.578   0.421   5.674  1.00  0.00     0.044 C 
HETATM   21  C21 UNL     1       3.777   1.317   5.362  1.00  0.00     0.112 C 
HETATM   22  C22 UNL     1       3.569   2.717   5.871  1.00  0.00     0.139 C 
HETATM   23  C23 UNL     1       1.588  -2.293   6.987  1.00  0.00     0.218 C 
HETATM   24  C24 UNL     1       0.410  -3.205   7.259  1.00  0.00     0.103 C 
HETATM   25  C25 UNL     1      -0.631  -2.566   8.179  1.00  0.00     0.009 C 
HETATM   26  C26 UNL     1      -1.765  -1.845   7.440  1.00  0.00     0.002 C 
HETATM   27  C27 UNL     1      -1.351  -0.510   6.818  1.00  0.00     0.020 C 
HETATM   28  C28 UNL     1      -2.515   0.192   6.123  1.00  0.00     0.122 C 
HETATM   29  C29 UNL     1      -4.240  -0.284   4.429  1.00  0.00     0.221 C 
HETATM   30  C30 UNL     1      -4.505  -1.023   3.117  1.00  0.00     0.078 C 
HETATM   31  C31 UNL     1      -6.011  -1.101   2.812  1.00  0.00     0.014 C 
HETATM   32  C32 UNL     1      -6.263  -1.432   1.345  1.00  0.00     0.007 C 
HETATM   33  C33 UNL     1      -5.697  -0.357   0.397  1.00  0.00     0.003 C 
HETATM   34  C34 UNL     1      -4.583   0.476   1.059  1.00  0.00     0.007 C 
HETATM   35  C35 UNL     1      -3.707  -0.382   1.966  1.00  0.00     0.014 C 
HETATM   36  C36 UNL     1      -6.816   0.548  -0.139  1.00  0.00     0.127 C 
HETATM   37  C37 UNL     1      -7.134   2.487  -1.619  1.00  0.00     0.217 C 
HETATM   38  C38 UNL     1      -6.534   3.213  -2.814  1.00  0.00     0.105 C 
HETATM   39  C39 UNL     1      -7.478   4.259  -3.411  1.00  0.00     0.045 C 
HETATM   40  C40 UNL     1      -8.570   3.671  -4.323  1.00  0.00     0.184 C 
HETATM   41  C41 UNL     1      -9.537   4.805  -4.690  1.00  0.00     0.163 C 
HETATM   42  C42 UNL     1      -9.976   1.657  -4.417  1.00  0.00     0.317 C 
HETATM   43  C43 UNL     1     -11.321  -0.379  -4.185  1.00  0.00     0.184 C 
HETATM   44  C44 UNL     1     -12.507  -0.794  -3.296  1.00  0.00     0.046 C 
HETATM   45  C45 UNL     1     -12.156  -1.504  -1.988  1.00  0.00     0.112 C 
HETATM   46  C46 UNL     1     -11.425  -0.613  -1.028  1.00  0.00     0.139 C 
HETATM   47  C47 UNL     1     -10.424  -1.581  -4.508  1.00  0.00     0.163 C 
HETATM   48  O1  UNL     1       8.682   0.521  -6.443  1.00  0.00    -0.296 OA
HETATM   49  O2  UNL     1       8.870  -1.156  -1.803  1.00  0.00    -0.274 OA
HETATM   50  O3  UNL     1       1.444  -0.763  -0.588  1.00  0.00    -0.272 OA
HETATM   51  O4  UNL     1       4.021  -1.323   3.135  1.00  0.00    -0.278 OA
HETATM   52  O5  UNL     1       2.574   3.185   6.395  1.00  0.00    -0.650 OA
HETATM   53  O6  UNL     1       4.659   3.488   5.679  1.00  0.00    -0.776 OA
HETATM   54  O7  UNL     1       2.358  -1.941   7.878  1.00  0.00    -0.274 OA
HETATM   55  O8  UNL     1      -5.056   0.476   4.947  1.00  0.00    -0.273 OA
HETATM   56  O9  UNL     1      -8.205   2.801  -1.106  1.00  0.00    -0.274 OA
HETATM   57  O10 UNL     1      -9.253   5.796  -5.349  1.00  0.00    -0.648 OA
HETATM   58  O11 UNL     1     -10.771   4.693  -4.153  1.00  0.00    -0.775 OA
HETATM   59  O12 UNL     1     -10.066   1.676  -5.637  1.00  0.00    -0.247 OA
HETATM   60  O13 UNL     1     -10.222  -0.411  -1.032  1.00  0.00    -0.650 OA
HETATM   61  O14 UNL     1     -12.234   0.014  -0.158  1.00  0.00    -0.776 OA
HETATM   62  O15 UNL     1     -10.795  -2.626  -5.025  1.00  0.00    -0.648 OA
HETATM   63  O16 UNL     1      -9.140  -1.439  -4.119  1.00  0.00    -0.775 OA
HETATM   64  N1  UNL     1      15.054   0.741  -3.906  1.00  0.00     0.079 N 
HETATM   65  N2  UNL     1       8.424  -0.811  -4.015  1.00  0.00    -0.350 N 
HETATM   66  N3  UNL     1       3.293  -0.265   0.656  1.00  0.00    -0.360 N 
HETATM   67  N4  UNL     1       1.786  -0.862   3.018  1.00  0.00    -0.247 NA
HETATM   68  N5  UNL     1       1.726  -1.905   5.679  1.00  0.00    -0.348 N 
HETATM   69  N6  UNL     1      -2.999  -0.535   4.970  1.00  0.00    -0.361 N 
HETATM   70  N7  UNL     1      -6.344   1.451  -1.172  1.00  0.00    -0.361 N 
HETATM   71  N8  UNL     1      -9.249   2.552  -3.685  1.00  0.00    -0.329 N 
HETATM   72  N9  UNL     1     -10.585   0.740  -3.602  1.00  0.00    -0.329 N 
HETATM   73  S1  UNL     1      -0.710  -2.374   3.312  1.00  0.00    -0.096 SA
HETATM   74  H66 UNL     1       4.386   4.357   6.039  1.00  0.00     0.167 HD
HETATM   75  H67 UNL     1     -11.246   5.479  -4.490  1.00  0.00     0.167 HD
HETATM   76  H68 UNL     1     -11.631   0.582   0.369  1.00  0.00     0.167 HD
HETATM   77  H69 UNL     1      -8.703  -2.271  -4.392  1.00  0.00     0.167 HD
HETATM   78  H70 UNL     1      14.604   0.391  -3.060  1.00  0.00     0.315 HD
HETATM   79  H71 UNL     1       7.880  -1.092  -4.826  1.00  0.00     0.163 HD
HETATM   80  H72 UNL     1       3.783  -0.529   1.512  1.00  0.00     0.162 HD
HETATM   81  H73 UNL     1       0.942  -0.890   3.592  1.00  0.00     0.131 HD
HETATM   82  H74 UNL     1       1.027  -2.231   4.997  1.00  0.00     0.163 HD
HETATM   83  H75 UNL     1      -2.322  -1.072   4.407  1.00  0.00     0.162 HD
HETATM   84  H76 UNL     1      -5.603   1.122  -1.778  1.00  0.00     0.162 HD
HETATM   85  H77 UNL     1      -9.578   2.703  -2.735  1.00  0.00     0.165 HD
HETATM   86  H78 UNL     1     -10.003   0.505  -2.800  1.00  0.00     0.165 HD
ENDROOT
TORSDOF 44
