REMARK  0 active torsions:
REMARK  status: ('A' for Active; 'I' for Inactive)
REMARK       I    between atoms: C2_2  and  O1_69 
REMARK       I    between atoms: C3_3  and  C14_14 
REMARK       I    between atoms: C5_5  and  N1_84 
REMARK       I    between atoms: C8_8  and  C9_9 
REMARK       I    between atoms: C8_8  and  N1_84 
REMARK       I    between atoms: C9_9  and  C10_10 
REMARK       I    between atoms: C9_9  and  N5_89 
REMARK       I    between atoms: C10_10  and  C11_11 
REMARK       I    between atoms: C11_11  and  C12_12 
REMARK       I    between atoms: C12_12  and  N2_85 
REMARK       I    between atoms: C13_13  and  N2_85 
REMARK       I    between atoms: C13_13  and  N3_86 
REMARK       I    between atoms: C13_13  and  N4_88 
REMARK       I    between atoms: C14_14  and  N6_90 
REMARK       I    between atoms: C15_15  and  C16_16 
REMARK       I    between atoms: C15_15  and  C20_20 
REMARK       I    between atoms: C15_15  and  N6_90 
REMARK       I    between atoms: C16_16  and  C17_17 
REMARK       I    between atoms: C17_17  and  C18_18 
REMARK       I    between atoms: C18_18  and  N7_91 
REMARK       I    between atoms: C19_19  and  N7_91 
REMARK       I    between atoms: C19_19  and  N8_92 
REMARK       I    between atoms: C19_19  and  N9_94 
REMARK       I    between atoms: C20_20  and  N10_95 
REMARK       I    between atoms: C21_21  and  N10_95 
REMARK       I    between atoms: C23_23  and  C28_28 
REMARK       I    between atoms: C24_24  and  O5_73 
REMARK       I    between atoms: C28_28  and  N11_96 
REMARK       I    between atoms: C29_29  and  C30_30 
REMARK       I    between atoms: C29_29  and  C34_34 
REMARK       I    between atoms: C29_29  and  N11_96 
REMARK       I    between atoms: C30_30  and  C31_31 
REMARK       I    between atoms: C31_31  and  C32_32 
REMARK       I    between atoms: C32_32  and  N12_97 
REMARK       I    between atoms: C33_33  and  N12_97 
REMARK       I    between atoms: C33_33  and  N13_98 
REMARK       I    between atoms: C33_33  and  N14_100 
REMARK       I    between atoms: C34_34  and  N15_101 
REMARK       I    between atoms: C35_35  and  N15_101 
REMARK       I    between atoms: C37_37  and  C43_43 
REMARK       I    between atoms: C38_38  and  O8_76 
REMARK       I    between atoms: C41_41  and  C42_42 
REMARK       I    between atoms: C41_41  and  O8_76 
REMARK       I    between atoms: C42_42  and  O10_78 
REMARK       I    between atoms: C43_43  and  N16_102 
REMARK       I    between atoms: C44_44  and  C45_45 
REMARK       I    between atoms: C44_44  and  C49_49 
REMARK       I    between atoms: C44_44  and  N16_102 
REMARK       I    between atoms: C45_45  and  C46_46 
REMARK       I    between atoms: C46_46  and  C47_47 
REMARK       I    between atoms: C47_47  and  N17_103 
REMARK       I    between atoms: C48_48  and  N17_103 
REMARK       I    between atoms: C48_48  and  N19_106 
REMARK       I    between atoms: C49_49  and  N20_107 
REMARK       I    between atoms: C50_50  and  N20_107 
REMARK       I    between atoms: C52_52  and  C57_57 
REMARK       I    between atoms: C53_53  and  O13_81 
REMARK       I    between atoms: C57_57  and  N21_108 
REMARK       I    between atoms: C58_58  and  C59_59 
REMARK       I    between atoms: C58_58  and  C68_68 
REMARK       I    between atoms: C58_58  and  N21_108 
REMARK       I    between atoms: C59_59  and  C60_60 
REMARK       I    between atoms: C68_68  and  N23_110 
ROOT
HETATM    1  C1  UNL     1      11.085   0.717  -4.829  1.00  0.00     0.210 C 
HETATM    2  C2  UNL     1      12.593   1.025  -2.988  1.00  0.00     0.084 A 
HETATM    3  C3  UNL     1      12.776   1.250  -1.609  1.00  0.00     0.067 A 
HETATM    4  C4  UNL     1      14.064   1.557  -1.119  1.00  0.00     0.049 A 
HETATM    5  C5  UNL     1      15.165   1.631  -1.972  1.00  0.00     0.035 A 
HETATM    6  C6  UNL     1      14.970   1.404  -3.336  1.00  0.00     0.032 A 
HETATM    7  C7  UNL     1      13.700   1.101  -3.840  1.00  0.00     0.040 A 
HETATM    8  C8  UNL     1      16.929   2.130  -0.260  1.00  0.00     0.255 C 
HETATM    9  C9  UNL     1      18.441   2.495  -0.176  1.00  0.00     0.309 C 
HETATM   10  C10 UNL     1      18.875   3.675  -1.062  1.00  0.00     0.047 C 
HETATM   11  C11 UNL     1      18.039   4.965  -1.010  1.00  0.00     0.022 C 
HETATM   12  C12 UNL     1      18.055   5.745   0.308  1.00  0.00     0.122 C 
HETATM   13  C13 UNL     1      16.601   5.665   2.329  1.00  0.00     0.143 C 
HETATM   14  C14 UNL     1      11.673   1.203  -0.589  1.00  0.00     0.255 C 
HETATM   15  C15 UNL     1       9.278   0.714  -0.135  1.00  0.00     0.177 C 
HETATM   16  C16 UNL     1       9.353  -0.320   1.006  1.00  0.00     0.036 C 
HETATM   17  C17 UNL     1       9.238  -1.779   0.540  1.00  0.00     0.022 C 
HETATM   18  C18 UNL     1       9.145  -2.776   1.701  1.00  0.00     0.122 C 
HETATM   19  C19 UNL     1       6.719  -2.707   2.149  1.00  0.00     0.143 C 
HETATM   20  C20 UNL     1       8.028   0.578  -1.055  1.00  0.00     0.245 C 
HETATM   21  C21 UNL     1       5.595   0.033  -0.905  1.00  0.00     0.035 A 
HETATM   22  C22 UNL     1       4.679  -0.525  -0.013  1.00  0.00     0.049 A 
HETATM   23  C23 UNL     1       3.461  -1.073  -0.449  1.00  0.00     0.067 A 
HETATM   24  C24 UNL     1       3.102  -0.951  -1.804  1.00  0.00     0.084 A 
HETATM   25  C25 UNL     1       4.002  -0.336  -2.688  1.00  0.00     0.040 A 
HETATM   26  C26 UNL     1       5.246   0.136  -2.244  1.00  0.00     0.032 A 
HETATM   27  C27 UNL     1       1.436  -1.168  -3.509  1.00  0.00     0.210 C 
HETATM   28  C28 UNL     1       2.681  -1.818   0.594  1.00  0.00     0.255 C 
HETATM   29  C29 UNL     1       0.540  -2.973   1.157  1.00  0.00     0.177 C 
HETATM   30  C30 UNL     1       0.670  -4.494   0.991  1.00  0.00     0.036 C 
HETATM   31  C31 UNL     1       2.066  -5.037   1.316  1.00  0.00     0.022 C 
HETATM   32  C32 UNL     1       2.111  -6.562   1.411  1.00  0.00     0.122 C 
HETATM   33  C33 UNL     1       0.561  -7.716  -0.110  1.00  0.00     0.143 C 
HETATM   34  C34 UNL     1      -0.914  -2.537   0.841  1.00  0.00     0.245 C 
HETATM   35  C35 UNL     1      -3.224  -2.763   1.800  1.00  0.00     0.035 A 
HETATM   36  C36 UNL     1      -3.926  -2.105   0.788  1.00  0.00     0.049 A 
HETATM   37  C37 UNL     1      -5.327  -1.961   0.844  1.00  0.00     0.067 A 
HETATM   38  C38 UNL     1      -6.027  -2.512   1.928  1.00  0.00     0.085 A 
HETATM   39  C39 UNL     1      -5.326  -3.147   2.957  1.00  0.00     0.040 A 
HETATM   40  C40 UNL     1      -3.937  -3.277   2.888  1.00  0.00     0.032 A 
HETATM   41  C41 UNL     1      -8.081  -3.606   2.255  1.00  0.00     0.285 C 
HETATM   42  C42 UNL     1      -9.415  -3.527   1.548  1.00  0.00     0.164 C 
HETATM   43  C43 UNL     1      -5.972  -1.243  -0.300  1.00  0.00     0.255 C 
HETATM   44  C44 UNL     1      -8.016  -0.244  -1.276  1.00  0.00     0.177 C 
HETATM   45  C45 UNL     1      -7.405   1.046  -1.858  1.00  0.00     0.036 C 
HETATM   46  C46 UNL     1      -7.654   1.236  -3.361  1.00  0.00     0.022 C 
HETATM   47  C47 UNL     1      -7.149   0.117  -4.279  1.00  0.00     0.122 C 
HETATM   48  C48 UNL     1      -4.958  -0.850  -4.881  1.00  0.00     0.143 C 
HETATM   49  C49 UNL     1      -9.473   0.053  -0.857  1.00  0.00     0.245 C 
HETATM   50  C50 UNL     1     -10.716   0.959   1.128  1.00  0.00     0.035 A 
HETATM   51  C51 UNL     1     -12.017   0.726   0.676  1.00  0.00     0.049 A 
HETATM   52  C52 UNL     1     -13.133   1.094   1.452  1.00  0.00     0.067 A 
HETATM   53  C53 UNL     1     -12.930   1.740   2.683  1.00  0.00     0.084 A 
HETATM   54  C54 UNL     1     -11.628   1.950   3.149  1.00  0.00     0.040 A 
HETATM   55  C55 UNL     1     -10.532   1.563   2.375  1.00  0.00     0.032 A 
HETATM   56  C56 UNL     1     -13.949   3.464   3.892  1.00  0.00     0.210 C 
HETATM   57  C57 UNL     1     -14.484   0.786   0.882  1.00  0.00     0.255 C 
HETATM   58  C58 UNL     1     -16.965   0.844   1.311  1.00  0.00     0.181 C 
HETATM   59  C59 UNL     1     -17.303   1.998   0.351  1.00  0.00     0.075 C 
HETATM   60  C60 UNL     1     -17.104   3.355   0.967  1.00  0.00    -0.028 A 
HETATM   61  C61 UNL     1     -17.964   3.982   1.849  1.00  0.00     0.096 A 
HETATM   62  C62 UNL     1     -16.238   5.389   1.524  1.00  0.00     0.042 A 
HETATM   63  C63 UNL     1     -15.354   6.475   1.559  1.00  0.00     0.030 A 
HETATM   64  C64 UNL     1     -14.197   6.394   0.777  1.00  0.00     0.002 A 
HETATM   65  C65 UNL     1     -13.941   5.275  -0.010  1.00  0.00     0.001 A 
HETATM   66  C66 UNL     1     -14.838   4.201  -0.036  1.00  0.00     0.014 A 
HETATM   67  C67 UNL     1     -16.007   4.250   0.750  1.00  0.00    -0.002 A 
HETATM   68  C68 UNL     1     -17.509  -0.477   0.729  1.00  0.00     0.238 C 
HETATM   69  O1  UNL     1      11.329   0.733  -3.428  1.00  0.00    -0.355 OA
HETATM   70  O2  UNL     1      16.267   1.965   0.764  1.00  0.00    -0.271 OA
HETATM   71  O3  UNL     1      11.856   1.626   0.549  1.00  0.00    -0.268 OA
HETATM   72  O4  UNL     1       8.134   0.644  -2.281  1.00  0.00    -0.271 OA
HETATM   73  O5  UNL     1       1.895  -1.469  -2.196  1.00  0.00    -0.355 OA
HETATM   74  O6  UNL     1       3.183  -2.054   1.694  1.00  0.00    -0.268 OA
HETATM   75  O7  UNL     1      -1.181  -1.907  -0.181  1.00  0.00    -0.271 OA
HETATM   76  O8  UNL     1      -7.387  -2.377   1.991  1.00  0.00    -0.340 OA
HETATM   77  O9  UNL     1      -9.780  -2.645   0.786  1.00  0.00    -0.648 OA
HETATM   78  O10 UNL     1     -10.218  -4.573   1.827  1.00  0.00    -0.775 OA
HETATM   79  O11 UNL     1      -5.364  -1.113  -1.359  1.00  0.00    -0.268 OA
HETATM   80  O12 UNL     1     -10.394  -0.053  -1.663  1.00  0.00    -0.271 OA
HETATM   81  O13 UNL     1     -14.009   2.106   3.448  1.00  0.00    -0.355 OA
HETATM   82  O14 UNL     1     -14.608   0.495  -0.305  1.00  0.00    -0.268 OA
HETATM   83  O15 UNL     1     -18.697  -0.790   0.807  1.00  0.00    -0.271 OA
HETATM   84  N1  UNL     1      16.479   1.935  -1.556  1.00  0.00    -0.325 N 
HETATM   85  N2  UNL     1      17.214   5.088   1.277  1.00  0.00    -0.367 N 
HETATM   86  N3  UNL     1      16.433   6.909   2.582  1.00  0.00    -0.376 N 
ATOM     87  H3  UNL     1      15.945   7.286   3.395  1.00  0.00     0.158 HD
HETATM   88  N4  UNL     1      16.092   4.735   3.159  1.00  0.00    -0.274 NA
HETATM   89  N5  UNL     1      18.813   2.757   1.229  1.00  0.00     0.092 N 
HETATM   90  N6  UNL     1      10.469   0.668  -0.975  1.00  0.00    -0.344 N 
HETATM   91  N7  UNL     1       7.994  -2.529   2.559  1.00  0.00    -0.367 N 
HETATM   92  N8  UNL     1       6.363  -3.307   1.074  1.00  0.00    -0.376 N 
ATOM     93  H8  UNL     1       6.995  -3.742   0.402  1.00  0.00     0.158 HD
HETATM   94  N9  UNL     1       5.839  -2.136   2.996  1.00  0.00    -0.274 NA
HETATM   95  N10 UNL     1       6.842   0.402  -0.363  1.00  0.00    -0.325 N 
HETATM   96  N11 UNL     1       1.424  -2.243   0.261  1.00  0.00    -0.344 N 
HETATM   97  N12 UNL     1       1.775  -7.174   0.137  1.00  0.00    -0.367 N 
HETATM   98  N13 UNL     1      -0.460  -7.637   0.662  1.00  0.00    -0.376 N 
ATOM     99  H13 UNL     1      -0.490  -7.141   1.553  1.00  0.00     0.158 HD
HETATM  100  N14 UNL     1       0.540  -8.345  -1.301  1.00  0.00    -0.274 NA
HETATM  101  N15 UNL     1      -1.826  -2.949   1.803  1.00  0.00    -0.325 N 
HETATM  102  N16 UNL     1      -7.248  -0.739  -0.121  1.00  0.00    -0.344 N 
HETATM  103  N17 UNL     1      -5.758  -0.201  -4.006  1.00  0.00    -0.367 N 
HETATM  104  N18 UNL     1      -4.962  -0.778  -6.161  1.00  0.00    -0.376 N 
ATOM    105  H18 UNL     1      -4.350  -1.300  -6.788  1.00  0.00     0.158 HD
HETATM  106  N19 UNL     1      -4.058  -1.635  -4.262  1.00  0.00    -0.274 NA
HETATM  107  N20 UNL     1      -9.558   0.596   0.418  1.00  0.00    -0.325 N 
HETATM  108  N21 UNL     1     -15.558   0.814   1.740  1.00  0.00    -0.343 N 
HETATM  109  N22 UNL     1     -17.437   5.203   2.170  1.00  0.00    -0.365 N 
HETATM  110  N23 UNL     1     -16.656  -1.245  -0.004  1.00  0.00    -0.368 N 
HETATM  111  H60 UNL     1     -11.031  -4.401   1.303  1.00  0.00     0.167 HD
HETATM  112  H61 UNL     1      17.169   1.992  -2.292  1.00  0.00     0.169 HD
HETATM  113  H62 UNL     1      17.599   4.172   1.535  1.00  0.00     0.162 HD
HETATM  114  H63 UNL     1      16.863   7.463   1.844  1.00  0.00     0.158 HD
HETATM  115  H64 UNL     1      15.662   3.963   2.656  1.00  0.00     0.127 HD
HETATM  116  H65 UNL     1      15.436   5.166   3.800  1.00  0.00     0.127 HD
HETATM  117  H66 UNL     1      18.322   2.073   1.818  1.00  0.00     0.313 HD
HETATM  118  H67 UNL     1      19.808   2.580   1.364  1.00  0.00     0.313 HD
HETATM  119  H68 UNL     1      10.317   0.494  -1.969  1.00  0.00     0.163 HD
HETATM  120  H69 UNL     1       8.124  -1.768   3.213  1.00  0.00     0.162 HD
HETATM  121  H70 UNL     1       5.342  -3.279   0.998  1.00  0.00     0.158 HD
HETATM  122  H71 UNL     1       4.857  -2.312   2.766  1.00  0.00     0.127 HD
HETATM  123  H72 UNL     1       6.014  -2.376   3.964  1.00  0.00     0.127 HD
HETATM  124  H73 UNL     1       6.917   0.269   0.638  1.00  0.00     0.169 HD
HETATM  125  H74 UNL     1       1.052  -2.002  -0.657  1.00  0.00     0.163 HD
HETATM  126  H75 UNL     1       2.544  -7.694  -0.270  1.00  0.00     0.162 HD
HETATM  127  H76 UNL     1      -1.238  -8.149   0.244  1.00  0.00     0.158 HD
HETATM  128  H77 UNL     1      -0.386  -8.541  -1.659  1.00  0.00     0.127 HD
HETATM  129  H78 UNL     1       1.094  -7.865  -2.001  1.00  0.00     0.127 HD
HETATM  130  H79 UNL     1      -1.448  -3.462   2.591  1.00  0.00     0.169 HD
HETATM  131  H80 UNL     1      -7.789  -1.198   0.611  1.00  0.00     0.163 HD
HETATM  132  H81 UNL     1      -5.638  -0.582  -3.061  1.00  0.00     0.162 HD
HETATM  133  H82 UNL     1      -5.678  -0.112  -6.448  1.00  0.00     0.158 HD
HETATM  134  H83 UNL     1      -3.691  -1.256  -3.396  1.00  0.00     0.127 HD
HETATM  135  H84 UNL     1      -3.328  -1.919  -4.903  1.00  0.00     0.127 HD
HETATM  136  H85 UNL     1      -8.667   0.754   0.876  1.00  0.00     0.169 HD
HETATM  137  H86 UNL     1     -15.376   1.212   2.656  1.00  0.00     0.163 HD
HETATM  138  H87 UNL     1     -17.867   5.879   2.785  1.00  0.00     0.165 HD
HETATM  139  H88 UNL     1     -15.802  -0.817  -0.365  1.00  0.00     0.159 HD
HETATM  140  H89 UNL     1     -17.055  -2.006  -0.534  1.00  0.00     0.159 HD
ENDROOT
TORSDOF 43
