REMARK  13 active torsions:
REMARK  status: ('A' for Active; 'I' for Inactive)
REMARK    1  A    between atoms: C5_5  and  C20_20 
REMARK    2  A    between atoms: C7_7  and  C8_8 
REMARK    3  A    between atoms: C8_8  and  C9_9 
REMARK    4  A    between atoms: C9_9  and  C10_10 
REMARK    5  A    between atoms: C16_16  and  N3_41 
REMARK    6  A    between atoms: C17_17  and  N3_41 
REMARK       I    between atoms: C20_20  and  N6_45 
REMARK    7  A    between atoms: C21_21  and  N6_45 
REMARK    8  A    between atoms: C23_23  and  C34_34 
REMARK    9  A    between atoms: C24_24  and  C27_27 
REMARK   10  A    between atoms: C27_27  and  N7_46 
REMARK   11  A    between atoms: C32_32  and  C33_33 
REMARK   12  A    between atoms: C32_32  and  N8_47 
REMARK   13  A    between atoms: C33_33  and  O2_50 
ROOT
HETATM    1  C34 UNL     1      -4.144  -1.445  -0.594  1.00  0.00     0.069 C 
HETATM    2  C35 UNL     1      -4.095  -2.134   0.785  1.00  0.00     0.036 C 
HETATM    3  C36 UNL     1      -2.981  -2.053  -1.438  1.00  0.00     0.036 C 
HETATM    4  C37 UNL     1      -5.367  -1.871  -1.324  1.00  0.00     0.073 C 
HETATM    5  N9  UNL     1      -6.279  -2.249  -1.940  1.00  0.00    -0.196 NA
ENDROOT
BRANCH   1   6
HETATM    6  C23 UNL     1      -4.001   0.096  -0.408  1.00  0.00    -0.026 A 
HETATM    7  C22 UNL     1      -2.683   0.638  -0.366  1.00  0.00     0.039 A 
HETATM    8  C21 UNL     1      -2.416   2.001  -0.208  1.00  0.00     0.035 A 
HETATM    9  C26 UNL     1      -3.486   2.874  -0.064  1.00  0.00     0.030 A 
HETATM   10  C25 UNL     1      -4.790   2.386  -0.061  1.00  0.00     0.012 A 
HETATM   11  C24 UNL     1      -5.076   1.009  -0.216  1.00  0.00    -0.022 A 
BRANCH   8  12
HETATM   12  N6  UNL     1      -1.121   2.563  -0.180  1.00  0.00    -0.323 N 
HETATM   13  C20 UNL     1       0.094   1.914  -0.314  1.00  0.00     0.259 C 
HETATM   14  O1  UNL     1       0.247   0.709  -0.486  1.00  0.00    -0.267 OA
HETATM   15  H37 UNL     1      -1.092   3.569  -0.051  1.00  0.00     0.169 HD
BRANCH  13  16
HETATM   16  C5  UNL     1       1.320   2.768  -0.245  1.00  0.00     0.072 A 
HETATM   17  C4  UNL     1       1.284   4.150  -0.060  1.00  0.00     0.132 A 
HETATM   18  C3  UNL     1       2.457   4.903  -0.003  1.00  0.00     0.051 A 
HETATM   19  F1  UNL     1       0.117   4.801   0.070  1.00  0.00    -0.205 F 
HETATM   20  C2  UNL     1       3.709   4.284  -0.131  1.00  0.00    -0.040 A 
HETATM   21  C1  UNL     1       4.960   5.118  -0.067  1.00  0.00     0.050 C 
HETATM   22  C7  UNL     1       3.757   2.892  -0.318  1.00  0.00     0.025 A 
HETATM   23  C6  UNL     1       2.572   2.146  -0.373  1.00  0.00     0.041 A 
BRANCH  22  24
HETATM   24  C8  UNL     1       5.005   2.200  -0.457  1.00  0.00    -0.059 C 
BRANCH  24  25
HETATM   25  C9  UNL     1       6.046   1.615  -0.576  1.00  0.00    -0.041 C 
BRANCH  25  26
HETATM   26  C10 UNL     1       7.276   0.919  -0.719  1.00  0.00     0.110 A 
HETATM   27  C11 UNL     1       8.543   1.381  -0.453  1.00  0.00     0.129 A 
HETATM   28  N1  UNL     1       9.482   0.419  -0.709  1.00  0.00    -0.347 N 
HETATM   29  C12 UNL     1       8.819  -0.635  -1.154  1.00  0.00     0.139 A 
ATOM     30  H1  UNL     1      10.491   0.499  -0.582  1.00  0.00     0.167 HD
HETATM   31  C16 UNL     1       9.264  -1.950  -1.578  1.00  0.00     0.077 A 
HETATM   32  N2  UNL     1       7.444  -0.381  -1.144  1.00  0.00    -0.298 N 
HETATM   33  C15 UNL     1       8.293  -2.853  -1.878  1.00  0.00     0.035 A 
HETATM   34  C14 UNL     1       6.874  -2.552  -1.856  1.00  0.00     0.020 A 
HETATM   35  C13 UNL     1       6.481  -1.324  -1.496  1.00  0.00     0.099 A 
BRANCH  31  36
HETATM   36  N3  UNL     1      10.601  -2.352  -1.636  1.00  0.00    -0.351 N 
HETATM   37  H35 UNL     1      10.694  -3.363  -1.622  1.00  0.00     0.166 HD
BRANCH  36  38
HETATM   38  C17 UNL     1      11.743  -1.648  -1.821  1.00  0.00     0.066 A 
HETATM   39  C18 UNL     1      12.997  -2.201  -1.729  1.00  0.00     0.138 A 
HETATM   40  N4  UNL     1      13.875  -1.195  -2.009  1.00  0.00    -0.310 N 
HETATM   41  N5  UNL     1      13.282  -0.033  -2.320  1.00  0.00    -0.310 N 
HETATM   42  H36 UNL     1      14.889  -1.232  -2.021  1.00  0.00     0.186 HD
HETATM   43  C19 UNL     1      11.977  -0.308  -2.191  1.00  0.00     0.138 A 
ATOM     44  H5  UNL     1      13.719   0.848  -2.590  1.00  0.00     0.186 HD
ENDBRANCH  36  38
ENDBRANCH  31  36
ENDBRANCH  25  26
ENDBRANCH  24  25
ENDBRANCH  22  24
ENDBRANCH  13  16
ENDBRANCH   8  12
BRANCH  11  45
HETATM   45  C27 UNL     1      -6.554   0.644  -0.139  1.00  0.00     0.311 C 
BRANCH  45  46
HETATM   46  N7  UNL     1      -6.871  -0.220   0.997  1.00  0.00     0.096 N 
HETATM   47  C28 UNL     1      -8.217  -0.796   0.894  1.00  0.00     0.303 C 
HETATM   48  C29 UNL     1      -8.506  -1.829   2.019  1.00  0.00     0.302 C 
HETATM   49  N8  UNL     1      -7.755  -1.614   3.274  1.00  0.00     0.093 N 
HETATM   50  C30 UNL     1      -7.492  -0.185   3.475  1.00  0.00     0.302 C 
HETATM   51  C31 UNL     1      -6.701   0.454   2.299  1.00  0.00     0.303 C 
BRANCH  49  52
HETATM   52  C32 UNL     1      -8.392  -2.230   4.446  1.00  0.00     0.298 C 
BRANCH  52  53
HETATM   53  C33 UNL     1      -8.575  -3.757   4.344  1.00  0.00     0.194 C 
BRANCH  53  54
HETATM   54  O2  UNL     1      -9.724  -4.113   3.579  1.00  0.00    -0.399 OA
HETATM   55  H38 UNL     1     -10.491  -3.672   3.981  1.00  0.00     0.209 HD
ENDBRANCH  53  54
ENDBRANCH  52  53
ENDBRANCH  49  52
ENDBRANCH  45  46
ENDBRANCH  11  45
ENDBRANCH   1   6
TORSDOF 13
