REMARK  0 active torsions:
REMARK  status: ('A' for Active; 'I' for Inactive)
REMARK       I    between atoms: C2_2  and  C3_3 
REMARK       I    between atoms: C3_3  and  C4_4 
REMARK       I    between atoms: C3_3  and  N12_110 
REMARK       I    between atoms: C4_4  and  N1_99 
REMARK       I    between atoms: C5_5  and  N1_99 
REMARK       I    between atoms: C6_6  and  C81_81 
REMARK       I    between atoms: C12_12  and  C14_14 
REMARK       I    between atoms: C14_14  and  N3_101 
REMARK       I    between atoms: C15_15  and  C16_16 
REMARK       I    between atoms: C15_15  and  C22_22 
REMARK       I    between atoms: C15_15  and  C28_28 
REMARK       I    between atoms: C15_15  and  N3_101 
REMARK       I    between atoms: C28_28  and  N4_102 
REMARK       I    between atoms: C29_29  and  C30_30 
REMARK       I    between atoms: C29_29  and  N4_102 
REMARK       I    between atoms: C30_30  and  C31_31 
REMARK       I    between atoms: C31_31  and  C32_32 
REMARK       I    between atoms: C32_32  and  C33_33 
REMARK       I    between atoms: C36_36  and  C39_39 
REMARK       I    between atoms: C39_39  and  C40_40 
REMARK       I    between atoms: C40_40  and  C41_41 
REMARK       I    between atoms: C41_41  and  C42_42 
REMARK       I    between atoms: C42_42  and  N5_103 
REMARK       I    between atoms: C43_43  and  C44_44 
REMARK       I    between atoms: C43_43  and  N5_103 
REMARK       I    between atoms: C44_44  and  C45_45 
REMARK       I    between atoms: C44_44  and  C51_51 
REMARK       I    between atoms: C44_44  and  N6_104 
REMARK       I    between atoms: C57_57  and  C58_58 
REMARK       I    between atoms: C57_57  and  N6_104 
REMARK       I    between atoms: C63_63  and  N9_107 
REMARK       I    between atoms: C64_64  and  C67_67 
REMARK       I    between atoms: C67_67  and  C68_68 
REMARK       I    between atoms: C68_68  and  N8_106 
REMARK       I    between atoms: C69_69  and  C70_70 
REMARK       I    between atoms: C69_69  and  N8_106 
REMARK       I    between atoms: C76_76  and  C77_77 
REMARK       I    between atoms: C76_76  and  N9_107 
REMARK       I    between atoms: C77_77  and  C78_78 
REMARK       I    between atoms: C77_77  and  N10_108 
REMARK       I    between atoms: C81_81  and  C82_82 
REMARK       I    between atoms: C82_82  and  N11_109 
REMARK       I    between atoms: C83_83  and  C84_84 
REMARK       I    between atoms: C83_83  and  N11_109 
ROOT
HETATM    1  C1  UNL     1      12.421  -1.610   0.337  1.00  0.00     0.007 C 
HETATM    2  C2  UNL     1      12.828  -2.840   1.140  1.00  0.00     0.041 C 
HETATM    3  C3  UNL     1      11.961  -4.090   0.914  1.00  0.00     0.310 C 
HETATM    4  C4  UNL     1      10.557  -3.885   1.532  1.00  0.00     0.251 C 
HETATM    5  C5  UNL     1       8.210  -3.611   0.837  1.00  0.00     0.181 C 
HETATM    6  C6  UNL     1       7.378  -2.452   0.236  1.00  0.00     0.019 C 
HETATM    7  C7  UNL     1       5.959  -2.380   0.844  1.00  0.00     0.009 C 
HETATM    8  C8  UNL     1       5.034  -3.584   0.626  1.00  0.00     0.026 C 
HETATM    9  C9  UNL     1       5.608  -4.874   1.210  1.00  0.00     0.088 C 
HETATM   10  C10 UNL     1       4.578  -5.987   1.423  1.00  0.00     0.028 C 
HETATM   11  C11 UNL     1       4.749  -6.911   0.230  1.00  0.00     0.037 C 
HETATM   12  C12 UNL     1       6.241  -6.817  -0.104  1.00  0.00     0.179 C 
HETATM   13  C13 UNL     1       7.897  -5.004   0.219  1.00  0.00     0.244 C 
HETATM   14  C14 UNL     1       6.431  -7.131  -1.602  1.00  0.00     0.242 C 
HETATM   15  C15 UNL     1       5.937  -6.165  -3.913  1.00  0.00     0.169 C 
HETATM   16  C16 UNL     1       4.813  -7.169  -4.273  1.00  0.00    -0.016 A 
HETATM   17  C17 UNL     1       5.089  -8.531  -4.502  1.00  0.00     0.010 A 
HETATM   18  C18 UNL     1       4.073  -9.444  -4.798  1.00  0.00     0.001 A 
HETATM   19  C19 UNL     1       2.749  -9.022  -4.845  1.00  0.00     0.000 A 
HETATM   20  C20 UNL     1       2.440  -7.693  -4.573  1.00  0.00     0.001 A 
HETATM   21  C21 UNL     1       3.458  -6.782  -4.276  1.00  0.00     0.010 A 
HETATM   22  C22 UNL     1       7.314  -6.368  -4.599  1.00  0.00    -0.016 A 
HETATM   23  C23 UNL     1       7.429  -6.884  -5.906  1.00  0.00     0.010 A 
HETATM   24  C24 UNL     1       8.672  -6.998  -6.536  1.00  0.00     0.001 A 
HETATM   25  C25 UNL     1       9.828  -6.585  -5.881  1.00  0.00     0.000 A 
HETATM   26  C26 UNL     1       9.741  -6.052  -4.600  1.00  0.00     0.001 A 
HETATM   27  C27 UNL     1       8.499  -5.937  -3.970  1.00  0.00     0.010 A 
HETATM   28  C28 UNL     1       5.482  -4.667  -4.264  1.00  0.00     0.255 C 
HETATM   29  C29 UNL     1       5.160  -2.960  -6.041  1.00  0.00     0.122 C 
HETATM   30  C30 UNL     1       3.719  -2.681  -6.473  1.00  0.00     0.020 C 
HETATM   31  C31 UNL     1       2.664  -2.787  -5.368  1.00  0.00     0.002 C 
HETATM   32  C32 UNL     1       2.832  -1.757  -4.244  1.00  0.00     0.005 C 
HETATM   33  C33 UNL     1       1.893  -2.028  -3.049  1.00  0.00    -0.014 C 
HETATM   34  C34 UNL     1       2.436  -1.315  -1.796  1.00  0.00     0.005 C 
HETATM   35  C35 UNL     1       1.340  -1.066  -0.769  1.00  0.00     0.005 C 
HETATM   36  C36 UNL     1       0.271  -0.102  -1.315  1.00  0.00    -0.014 C 
HETATM   37  C37 UNL     1       0.086  -0.245  -2.841  1.00  0.00     0.005 C 
HETATM   38  C38 UNL     1       0.429  -1.645  -3.343  1.00  0.00     0.005 C 
HETATM   39  C39 UNL     1      -1.074  -0.269  -0.581  1.00  0.00     0.005 C 
HETATM   40  C40 UNL     1      -1.021  -0.083   0.941  1.00  0.00     0.002 C 
HETATM   41  C41 UNL     1      -0.471   1.263   1.432  1.00  0.00     0.020 C 
HETATM   42  C42 UNL     1      -1.183   2.490   0.867  1.00  0.00     0.122 C 
HETATM   43  C43 UNL     1      -3.556   3.045   0.365  1.00  0.00     0.255 C 
HETATM   44  C44 UNL     1      -5.071   2.905   0.892  1.00  0.00     0.169 C 
HETATM   45  C45 UNL     1      -5.466   1.401   0.881  1.00  0.00    -0.016 A 
HETATM   46  C46 UNL     1      -5.057   0.567  -0.181  1.00  0.00     0.010 A 
HETATM   47  C47 UNL     1      -5.435  -0.777  -0.234  1.00  0.00     0.001 A 
HETATM   48  C48 UNL     1      -6.245  -1.314   0.762  1.00  0.00     0.000 A 
HETATM   49  C49 UNL     1      -6.682  -0.507   1.807  1.00  0.00     0.001 A 
HETATM   50  C50 UNL     1      -6.302   0.836   1.863  1.00  0.00     0.010 A 
HETATM   51  C51 UNL     1      -6.032   3.758  -0.003  1.00  0.00    -0.016 A 
HETATM   52  C52 UNL     1      -5.725   5.109  -0.276  1.00  0.00     0.010 A 
HETATM   53  C53 UNL     1      -6.593   5.923  -1.007  1.00  0.00     0.001 A 
HETATM   54  C54 UNL     1      -7.796   5.411  -1.477  1.00  0.00     0.000 A 
HETATM   55  C55 UNL     1      -8.129   4.086  -1.220  1.00  0.00     0.001 A 
HETATM   56  C56 UNL     1      -7.258   3.269  -0.492  1.00  0.00     0.010 A 
HETATM   57  C57 UNL     1      -4.610   3.095   3.418  1.00  0.00     0.242 C 
HETATM   58  C58 UNL     1      -4.767   4.039   4.641  1.00  0.00     0.179 C 
HETATM   59  C59 UNL     1      -4.791   3.169   5.904  1.00  0.00     0.037 C 
HETATM   60  C60 UNL     1      -5.477   4.040   6.937  1.00  0.00     0.028 C 
HETATM   61  C61 UNL     1      -6.510   4.832   6.136  1.00  0.00     0.088 C 
HETATM   62  C62 UNL     1      -6.287   5.882   3.893  1.00  0.00     0.244 C 
HETATM   63  C63 UNL     1      -7.566   6.706   4.175  1.00  0.00     0.181 C 
HETATM   64  C64 UNL     1      -8.852   5.848   4.318  1.00  0.00     0.019 C 
HETATM   65  C65 UNL     1      -8.985   5.231   5.729  1.00  0.00     0.009 C 
HETATM   66  C66 UNL     1      -7.911   4.225   6.155  1.00  0.00     0.026 C 
HETATM   67  C67 UNL     1      -9.025   4.822   3.171  1.00  0.00     0.037 C 
HETATM   68  C68 UNL     1     -10.439   4.219   3.132  1.00  0.00     0.270 C 
HETATM   69  C69 UNL     1      -9.952   2.156   1.879  1.00  0.00     0.308 C 
HETATM   70  C70 UNL     1     -10.421   1.119   2.873  1.00  0.00    -0.030 A 
HETATM   71  C71 UNL     1     -11.611   0.411   2.653  1.00  0.00     0.009 A 
HETATM   72  C72 UNL     1     -12.049  -0.543   3.574  1.00  0.00     0.001 A 
HETATM   73  C73 UNL     1     -11.304  -0.796   4.724  1.00  0.00     0.000 A 
HETATM   74  C74 UNL     1     -10.121  -0.098   4.955  1.00  0.00     0.001 A 
HETATM   75  C75 UNL     1      -9.682   0.856   4.035  1.00  0.00     0.009 A 
HETATM   76  C76 UNL     1      -8.443   8.857   3.273  1.00  0.00     0.251 C 
HETATM   77  C77 UNL     1      -8.484   9.732   1.988  1.00  0.00     0.310 C 
HETATM   78  C78 UNL     1      -9.565  10.823   2.091  1.00  0.00     0.041 C 
HETATM   79  C79 UNL     1      -9.142  11.987   2.981  1.00  0.00     0.007 C 
HETATM   80  C80 UNL     1      -8.330   9.409  -0.433  1.00  0.00     0.307 C 
HETATM   81  C81 UNL     1       7.398  -2.453  -1.310  1.00  0.00     0.037 C 
HETATM   82  C82 UNL     1       6.746  -1.238  -1.985  1.00  0.00     0.270 C 
HETATM   83  C83 UNL     1       6.908   1.171  -2.291  1.00  0.00     0.308 C 
HETATM   84  C84 UNL     1       5.570   1.649  -1.777  1.00  0.00    -0.030 A 
HETATM   85  C85 UNL     1       4.603   2.128  -2.674  1.00  0.00     0.009 A 
HETATM   86  C86 UNL     1       3.387   2.634  -2.206  1.00  0.00     0.001 A 
HETATM   87  C87 UNL     1       3.127   2.673  -0.838  1.00  0.00     0.000 A 
HETATM   88  C88 UNL     1       4.079   2.205   0.064  1.00  0.00     0.001 A 
HETATM   89  C89 UNL     1       5.296   1.704  -0.402  1.00  0.00     0.009 A 
HETATM   90  C90 UNL     1      13.042  -4.959  -1.098  1.00  0.00     0.307 C 
HETATM   91  O1  UNL     1      10.296  -4.145   2.702  1.00  0.00    -0.271 OA
HETATM   92  O2  UNL     1       8.765  -5.668  -0.356  1.00  0.00    -0.271 OA
HETATM   93  O3  UNL     1       6.752  -8.253  -1.985  1.00  0.00    -0.271 OA
HETATM   94  O4  UNL     1       5.210  -3.857  -3.369  1.00  0.00    -0.270 OA
HETATM   95  O5  UNL     1      -3.251   3.511  -0.734  1.00  0.00    -0.270 OA
HETATM   96  O6  UNL     1      -3.909   2.084   3.480  1.00  0.00    -0.271 OA
HETATM   97  O7  UNL     1      -5.579   6.085   2.902  1.00  0.00    -0.271 OA
HETATM   98  O8  UNL     1      -8.963   9.166   4.341  1.00  0.00    -0.271 OA
HETATM   99  N1  UNL     1       9.638  -3.376   0.631  1.00  0.00    -0.346 N 
HETATM  100  N2  UNL     1       6.594  -5.451   0.306  1.00  0.00    -0.332 N 
HETATM  101  N3  UNL     1       6.047  -6.114  -2.440  1.00  0.00    -0.334 N 
HETATM  102  N4  UNL     1       5.379  -4.324  -5.599  1.00  0.00    -0.358 N 
HETATM  103  N5  UNL     1      -2.590   2.492   1.188  1.00  0.00    -0.358 N 
HETATM  104  N6  UNL     1      -5.166   3.525   2.245  1.00  0.00    -0.334 N 
HETATM  105  N7  UNL     1      -5.982   4.865   4.775  1.00  0.00    -0.332 N 
HETATM  106  N8  UNL     1     -10.700   3.412   1.940  1.00  0.00     0.087 N 
HETATM  107  N9  UNL     1      -7.713   7.699   3.117  1.00  0.00    -0.346 N 
HETATM  108  N10 UNL     1      -8.719   8.819   0.839  1.00  0.00     0.092 N 
HETATM  109  N11 UNL     1       7.442  -0.008  -1.601  1.00  0.00     0.087 N 
HETATM  110  N12 UNL     1      11.794  -4.476  -0.518  1.00  0.00     0.092 N 
HETATM  111  HB1 UNL     1       9.976  -3.466  -0.326  1.00  0.00     0.163 HD
HETATM  112  HB2 UNL     1       5.767  -5.235  -2.017  1.00  0.00     0.164 HD
HETATM  113  HB3 UNL     1       5.607  -5.018  -6.298  1.00  0.00     0.162 HD
HETATM  114  HB4 UNL     1      -2.895   2.103   2.082  1.00  0.00     0.162 HD
HETATM  115  HB5 UNL     1      -5.379   4.520   2.225  1.00  0.00     0.164 HD
HETATM  116  HB6 UNL     1     -11.694   3.193   1.904  1.00  0.00     0.316 HD
HETATM  117  HB7 UNL     1      -7.456   7.452   2.161  1.00  0.00     0.163 HD
HETATM  118  HB8 UNL     1      -9.706   8.559   0.816  1.00  0.00     0.316 HD
HETATM  119  HB9 UNL     1       8.428  -0.100  -1.844  1.00  0.00     0.316 HD
HETATM  120  HC0 UNL     1      11.116  -5.252  -0.545  1.00  0.00     0.316 HD
ENDROOT
TORSDOF 38
