REMARK  0 active torsions:
REMARK  status: ('A' for Active; 'I' for Inactive)
REMARK       I    between atoms: C3_3  and  C28_28 
REMARK       I    between atoms: C5_5  and  C6_6 
REMARK       I    between atoms: C5_5  and  N1_59 
REMARK       I    between atoms: C6_6  and  C7_7 
REMARK       I    between atoms: C6_6  and  N3_61 
REMARK       I    between atoms: C7_7  and  C8_8 
REMARK       I    between atoms: C8_8  and  C9_9 
REMARK       I    between atoms: C9_9  and  N2_60 
REMARK       I    between atoms: C10_10  and  C11_11 
REMARK       I    between atoms: C10_10  and  N3_61 
REMARK       I    between atoms: C11_11  and  C12_12 
REMARK       I    between atoms: C12_12  and  C13_13 
REMARK       I    between atoms: C13_13  and  C14_14 
REMARK       I    between atoms: C14_14  and  C15_15 
REMARK       I    between atoms: C14_14  and  N5_63 
REMARK       I    between atoms: C15_15  and  C16_16 
REMARK       I    between atoms: C15_15  and  O4_83 
REMARK       I    between atoms: C16_16  and  N4_62 
REMARK       I    between atoms: C17_17  and  C18_18 
REMARK       I    between atoms: C17_17  and  N5_63 
REMARK       I    between atoms: C18_18  and  C19_19 
REMARK       I    between atoms: C18_18  and  C26_26 
REMARK       I    between atoms: C19_19  and  C20_20 
REMARK       I    between atoms: C20_20  and  C21_21 
REMARK       I    between atoms: C21_21  and  C22_22 
REMARK       I    between atoms: C21_21  and  N7_65 
REMARK       I    between atoms: C22_22  and  C23_23 
REMARK       I    between atoms: C23_23  and  C24_24 
REMARK       I    between atoms: C24_24  and  C25_25 
REMARK       I    between atoms: C25_25  and  N6_64 
REMARK       I    between atoms: C26_26  and  C27_27 
REMARK       I    between atoms: C26_26  and  O7_86 
REMARK       I    between atoms: C27_27  and  N8_66 
REMARK       I    between atoms: C28_28  and  N9_67 
REMARK       I    between atoms: C29_29  and  C30_30 
REMARK       I    between atoms: C29_29  and  C34_34 
REMARK       I    between atoms: C29_29  and  N9_67 
REMARK       I    between atoms: C30_30  and  C31_31 
REMARK       I    between atoms: C34_34  and  C35_35 
REMARK       I    between atoms: C35_35  and  C36_36 
REMARK       I    between atoms: C36_36  and  C37_37 
REMARK       I    between atoms: C36_36  and  C41_41 
REMARK       I    between atoms: C37_37  and  C38_38 
REMARK       I    between atoms: C38_38  and  C39_39 
REMARK       I    between atoms: C39_39  and  C40_40 
REMARK       I    between atoms: C40_40  and  N12_71 
REMARK       I    between atoms: C41_41  and  N13_72 
REMARK       I    between atoms: C42_42  and  C47_47 
REMARK       I    between atoms: C42_42  and  N13_72 
REMARK       I    between atoms: C43_43  and  C44_44 
REMARK       I    between atoms: C44_44  and  C45_45 
REMARK       I    between atoms: C45_45  and  N14_73 
REMARK       I    between atoms: C46_46  and  N15_75 
REMARK       I    between atoms: C46_46  and  N16_76 
REMARK       I    between atoms: C47_47  and  C48_48 
REMARK       I    between atoms: C48_48  and  C49_49 
REMARK       I    between atoms: C49_49  and  C50_50 
REMARK       I    between atoms: C49_49  and  C54_54 
REMARK       I    between atoms: C50_50  and  C51_51 
REMARK       I    between atoms: C51_51  and  C52_52 
REMARK       I    between atoms: C52_52  and  C53_53 
REMARK       I    between atoms: C52_52  and  O12_91 
REMARK       I    between atoms: C53_53  and  N17_77 
REMARK       I    between atoms: C54_54  and  N18_78 
REMARK       I    between atoms: C55_55  and  C56_56 
REMARK       I    between atoms: C55_55  and  N18_78 
REMARK       I    between atoms: C56_56  and  C57_57 
REMARK       I    between atoms: C57_57  and  C58_58 
REMARK       I    between atoms: C58_58  and  N19_79 
ROOT
HETATM    1  C1  UNL     1      -1.680  -9.931   0.949  1.00  0.00     0.022 C 
HETATM    2  C2  UNL     1      -2.108  -8.741   1.803  1.00  0.00     0.037 C 
HETATM    3  C3  UNL     1      -1.549  -7.534   1.043  1.00  0.00     0.179 C 
HETATM    4  C4  UNL     1      -0.318  -9.502   0.433  1.00  0.00     0.127 C 
HETATM    5  C5  UNL     1       0.583  -7.339  -0.308  1.00  0.00     0.243 C 
HETATM    6  C6  UNL     1       0.328  -5.847  -0.621  1.00  0.00     0.176 C 
HETATM    7  C7  UNL     1       0.223  -5.666  -2.143  1.00  0.00     0.036 C 
HETATM    8  C8  UNL     1      -0.653  -4.478  -2.564  1.00  0.00     0.032 C 
HETATM    9  C9  UNL     1      -0.115  -3.122  -2.117  1.00  0.00     0.267 C 
HETATM   10  C10 UNL     1       1.329  -4.585   1.228  1.00  0.00     0.218 C 
HETATM   11  C11 UNL     1       2.564  -3.850   1.689  1.00  0.00     0.110 C 
HETATM   12  C12 UNL     1       2.243  -2.964   2.885  1.00  0.00     0.090 C 
HETATM   13  C13 UNL     1       3.425  -2.105   3.276  1.00  0.00     0.152 C 
HETATM   14  C14 UNL     1       3.144  -0.924   4.215  1.00  0.00     0.184 C 
HETATM   15  C15 UNL     1       2.964  -1.410   5.669  1.00  0.00     0.176 C 
HETATM   16  C16 UNL     1       4.245  -1.931   6.360  1.00  0.00     0.300 C 
HETATM   17  C17 UNL     1       4.156   1.077   3.137  1.00  0.00     0.225 C 
HETATM   18  C18 UNL     1       5.462   1.871   3.018  1.00  0.00     0.115 C 
HETATM   19  C19 UNL     1       5.272   3.045   2.048  1.00  0.00     0.097 C 
HETATM   20  C20 UNL     1       6.469   3.980   2.024  1.00  0.00     0.160 C 
HETATM   21  C21 UNL     1       6.530   4.999   0.872  1.00  0.00     0.286 C 
HETATM   22  C22 UNL     1       5.633   6.193   1.211  1.00  0.00     0.043 C 
HETATM   23  C23 UNL     1       5.565   7.290   0.142  1.00  0.00     0.004 C 
HETATM   24  C24 UNL     1       5.072   6.765  -1.209  1.00  0.00     0.030 C 
HETATM   25  C25 UNL     1       4.559   7.859  -2.150  1.00  0.00     0.267 C 
HETATM   26  C26 UNL     1       6.661   0.952   2.675  1.00  0.00     0.159 C 
HETATM   27  C27 UNL     1       6.494   0.089   1.406  1.00  0.00     0.298 C 
HETATM   28  C28 UNL     1      -2.642  -6.844   0.209  1.00  0.00     0.241 C 
HETATM   29  C29 UNL     1      -4.378  -5.082   0.274  1.00  0.00     0.160 C 
HETATM   30  C30 UNL     1      -5.676  -5.781  -0.154  1.00  0.00     0.091 C 
HETATM   31  C31 UNL     1      -6.441  -5.009  -1.176  1.00  0.00     0.028 A 
HETATM   32  C32 UNL     1      -6.100  -4.564  -2.436  1.00  0.00     0.114 A 
HETATM   33  C33 UNL     1      -8.138  -3.994  -2.158  1.00  0.00     0.180 A 
HETATM   34  C34 UNL     1      -4.669  -3.976   1.295  1.00  0.00     0.150 C 
HETATM   35  C35 UNL     1      -4.611  -2.521   0.852  1.00  0.00     0.094 C 
HETATM   36  C36 UNL     1      -3.251  -2.069   0.293  1.00  0.00     0.085 C 
HETATM   37  C37 UNL     1      -2.050  -2.415   1.208  1.00  0.00     0.014 C 
HETATM   38  C38 UNL     1      -2.160  -2.135   2.717  1.00  0.00     0.002 C 
HETATM   39  C39 UNL     1      -2.209  -0.672   3.165  1.00  0.00     0.030 C 
HETATM   40  C40 UNL     1      -0.845   0.018   3.292  1.00  0.00     0.267 C 
HETATM   41  C41 UNL     1      -3.242  -0.592  -0.162  1.00  0.00     0.226 C 
HETATM   42  C42 UNL     1      -4.510   0.963  -1.605  1.00  0.00     0.077 C 
HETATM   43  C43 UNL     1      -5.645   1.251  -2.266  1.00  0.00     0.008 C 
HETATM   44  C44 UNL     1      -6.882   0.402  -2.380  1.00  0.00     0.049 C 
HETATM   45  C45 UNL     1      -6.787  -0.755  -3.372  1.00  0.00     0.125 C 
HETATM   46  C46 UNL     1      -6.377  -1.151  -5.628  1.00  0.00     0.121 C 
HETATM   47  C47 UNL     1      -3.513   2.084  -1.563  1.00  0.00     0.176 C 
HETATM   48  C48 UNL     1      -2.184   1.888  -2.278  1.00  0.00     0.099 C 
HETATM   49  C49 UNL     1      -1.098   2.822  -1.690  1.00  0.00     0.085 C 
HETATM   50  C50 UNL     1       0.270   2.107  -1.645  1.00  0.00     0.017 C 
HETATM   51  C51 UNL     1       1.234   2.574  -0.536  1.00  0.00     0.034 C 
HETATM   52  C52 UNL     1       1.869   3.968  -0.633  1.00  0.00     0.146 C 
HETATM   53  C53 UNL     1       0.994   5.087  -0.031  1.00  0.00     0.298 C 
HETATM   54  C54 UNL     1      -1.060   4.081  -2.566  1.00  0.00     0.222 C 
HETATM   55  C55 UNL     1      -2.465   5.974  -3.365  1.00  0.00     0.122 C 
HETATM   56  C56 UNL     1      -2.123   7.319  -2.727  1.00  0.00     0.021 C 
HETATM   57  C57 UNL     1      -0.693   7.782  -3.027  1.00  0.00     0.031 C 
HETATM   58  C58 UNL     1      -0.449   9.177  -2.448  1.00  0.00     0.267 C 
HETATM   59  N1  UNL     1      -0.453  -8.074   0.233  1.00  0.00    -0.337 N 
HETATM   60  N2  UNL     1      -1.002  -2.058  -2.582  1.00  0.00     0.078 N 
HETATM   61  N3  UNL     1       1.424  -5.065  -0.061  1.00  0.00    -0.348 N 
HETATM   62  N4  UNL     1       4.752  -3.187   5.817  1.00  0.00     0.080 N 
HETATM   63  N5  UNL     1       4.221   0.059   4.065  1.00  0.00    -0.347 N 
HETATM   64  N6  UNL     1       3.413   8.588  -1.603  1.00  0.00     0.078 N 
HETATM   65  N7  UNL     1       7.930   5.437   0.687  1.00  0.00     0.090 N 
HETATM   66  N8  UNL     1       6.704   0.858   0.178  1.00  0.00     0.080 N 
HETATM   67  N9  UNL     1      -3.465  -6.013   0.938  1.00  0.00    -0.348 N 
HETATM   68  N10 UNL     1      -7.152  -3.908  -3.022  1.00  0.00    -0.360 N 
ATOM     69  H10 UNL     1      -7.166  -3.451  -3.934  1.00  0.00     0.166 HD
HETATM   70  N11 UNL     1      -7.756  -4.647  -1.021  1.00  0.00    -0.354 N 
HETATM   71  N12 UNL     1      -0.071   0.010   2.061  1.00  0.00     0.078 N 
HETATM   72  N13 UNL     1      -4.286  -0.259  -1.009  1.00  0.00    -0.324 N 
HETATM   73  N14 UNL     1      -6.560  -0.259  -4.727  1.00  0.00    -0.371 N 
ATOM     74  H14 UNL     1      -6.548   0.738  -4.943  1.00  0.00     0.161 HD
HETATM   75  N15 UNL     1      -6.158  -0.776  -6.907  1.00  0.00    -0.279 NA
HETATM   76  N16 UNL     1      -6.340  -2.500  -5.532  1.00  0.00    -0.279 NA
HETATM   77  N17 UNL     1       1.596   6.408  -0.247  1.00  0.00     0.080 N 
HETATM   78  N18 UNL     1      -2.197   4.848  -2.496  1.00  0.00    -0.361 N 
HETATM   79  N19 UNL     1       0.841   9.724  -2.840  1.00  0.00     0.078 N 
HETATM   80  O1  UNL     1       1.672  -7.853  -0.584  1.00  0.00    -0.271 OA
HETATM   81  O2  UNL     1       0.335  -4.744   1.930  1.00  0.00    -0.274 OA
HETATM   82  O3  UNL     1       4.574  -2.389   2.920  1.00  0.00    -0.296 OA
HETATM   83  O4  UNL     1       2.417  -0.334   6.454  1.00  0.00    -0.391 OA
HETATM   84  O5  UNL     1       3.139   1.342   2.503  1.00  0.00    -0.273 OA
HETATM   85  O6  UNL     1       7.334   3.952   2.906  1.00  0.00    -0.296 OA
HETATM   86  O7  UNL     1       6.928   0.094   3.802  1.00  0.00    -0.393 OA
HETATM   87  O8  UNL     1      -2.759  -6.978  -1.007  1.00  0.00    -0.271 OA
HETATM   88  O9  UNL     1      -4.970  -4.263   2.459  1.00  0.00    -0.296 OA
HETATM   89  O10 UNL     1      -2.360   0.201   0.159  1.00  0.00    -0.273 OA
HETATM   90  O11 UNL     1      -3.835   3.173  -1.076  1.00  0.00    -0.291 OA
HETATM   91  O12 UNL     1       2.262   4.266  -1.974  1.00  0.00    -0.394 OA
HETATM   92  O13 UNL     1      -0.096   4.381  -3.264  1.00  0.00    -0.273 OA
HETATM   93  H77 UNL     1      -0.984  -2.030  -3.602  1.00  0.00     0.312 HD
HETATM   94  H78 UNL     1      -0.614  -1.164  -2.276  1.00  0.00     0.312 HD
HETATM   95  H79 UNL     1       2.354  -5.291  -0.400  1.00  0.00     0.163 HD
HETATM   96  H80 UNL     1       5.139  -3.034   4.877  1.00  0.00     0.312 HD
HETATM   97  H81 UNL     1       5.553  -3.494   6.372  1.00  0.00     0.312 HD
HETATM   98  H82 UNL     1       5.165  -0.290   4.235  1.00  0.00     0.163 HD
HETATM   99  H83 UNL     1       2.972   8.011  -0.877  1.00  0.00     0.312 HD
HETATM  100  H84 UNL     1       3.759   9.402  -1.093  1.00  0.00     0.312 HD
HETATM  101  H85 UNL     1       8.502   4.612   0.502  1.00  0.00     0.313 HD
HETATM  102  H86 UNL     1       8.267   5.772   1.594  1.00  0.00     0.313 HD
HETATM  103  H87 UNL     1       7.701   1.055   0.077  1.00  0.00     0.312 HD
HETATM  104  H88 UNL     1       6.467   0.265  -0.620  1.00  0.00     0.312 HD
HETATM  105  H89 UNL     1      -3.328  -5.906   1.941  1.00  0.00     0.163 HD
HETATM  106  H90 UNL     1      -8.351  -4.851  -0.227  1.00  0.00     0.166 HD
HETATM  107  H91 UNL     1      -0.663   0.364   1.300  1.00  0.00     0.312 HD
HETATM  108  H92 UNL     1       0.713   0.664   2.143  1.00  0.00     0.312 HD
HETATM  109  H93 UNL     1      -4.963  -0.975  -1.226  1.00  0.00     0.169 HD
HETATM  110  H94 UNL     1      -5.382  -1.275  -7.324  1.00  0.00     0.126 HD
HETATM  111  H95 UNL     1      -6.007   0.227  -6.951  1.00  0.00     0.126 HD
HETATM  112  H96 UNL     1      -6.788  -2.959  -6.315  1.00  0.00     0.126 HD
HETATM  113  H97 UNL     1      -6.697  -2.893  -4.657  1.00  0.00     0.126 HD
HETATM  114  H98 UNL     1       0.870   7.118  -0.157  1.00  0.00     0.312 HD
HETATM  115  H99 UNL     1       1.884   6.424  -1.233  1.00  0.00     0.312 HD
HETATM  116  HA0 UNL     1      -2.937   4.557  -1.853  1.00  0.00     0.162 HD
HETATM  117  HA1 UNL     1       0.979   9.620  -3.844  1.00  0.00     0.312 HD
HETATM  118  HA2 UNL     1       1.615   9.188  -2.420  1.00  0.00     0.312 HD
HETATM  119  HA3 UNL     1       2.217  -0.688   7.337  1.00  0.00     0.210 HD
HETATM  120  HA4 UNL     1       7.459   0.627   4.425  1.00  0.00     0.210 HD
HETATM  121  HA5 UNL     1       1.455   4.395  -2.517  1.00  0.00     0.210 HD
ENDROOT
TORSDOF 61
