REMARK  0 active torsions:
REMARK  status: ('A' for Active; 'I' for Inactive)
REMARK       I    between atoms: C2_2  and  C3_3 
REMARK       I    between atoms: C3_3  and  C5_5 
REMARK       I    between atoms: C5_5  and  C6_6 
REMARK       I    between atoms: C5_5  and  C8_8 
REMARK       I    between atoms: C6_6  and  C7_7 
REMARK       I    between atoms: C7_7  and  N1_51 
REMARK       I    between atoms: C8_8  and  N2_52 
REMARK       I    between atoms: C9_9  and  C10_10 
REMARK       I    between atoms: C9_9  and  C14_14 
REMARK       I    between atoms: C9_9  and  N2_52 
REMARK       I    between atoms: C10_10  and  C11_11 
REMARK       I    between atoms: C14_14  and  N5_56 
REMARK       I    between atoms: C15_15  and  C16_16 
REMARK       I    between atoms: C15_15  and  C20_20 
REMARK       I    between atoms: C15_15  and  N5_56 
REMARK       I    between atoms: C16_16  and  C17_17 
REMARK       I    between atoms: C17_17  and  C18_18 
REMARK       I    between atoms: C18_18  and  C19_19 
REMARK       I    between atoms: C19_19  and  N6_57 
REMARK       I    between atoms: C20_20  and  N7_58 
REMARK       I    between atoms: C21_21  and  C22_22 
REMARK       I    between atoms: C21_21  and  N7_58 
REMARK       I    between atoms: C22_22  and  N8_59 
REMARK       I    between atoms: C23_23  and  C24_24 
REMARK       I    between atoms: C23_23  and  N8_59 
REMARK       I    between atoms: C24_24  and  N9_60 
REMARK       I    between atoms: C25_25  and  C26_26 
REMARK       I    between atoms: C25_25  and  C40_40 
REMARK       I    between atoms: C25_25  and  N9_60 
REMARK       I    between atoms: C26_26  and  C27_27 
REMARK       I    between atoms: C27_27  and  C28_28 
REMARK       I    between atoms: C28_28  and  C29_29 
REMARK       I    between atoms: C29_29  and  N10_61 
REMARK       I    between atoms: C30_30  and  C31_31 
REMARK       I    between atoms: C30_30  and  N10_61 
REMARK       I    between atoms: C31_31  and  C32_32 
REMARK       I    between atoms: C32_32  and  C33_33 
REMARK       I    between atoms: C33_33  and  C34_34 
REMARK       I    between atoms: C34_34  and  C35_35 
REMARK       I    between atoms: C40_40  and  N13_64 
REMARK       I    between atoms: O2_42  and  N1_51 
ROOT
HETATM    1  C1  UNL     1      -9.962  -1.161   1.295  1.00  0.00     0.005 C 
HETATM    2  C2  UNL     1      -8.885  -0.293   1.926  1.00  0.00     0.000 C 
HETATM    3  C3  UNL     1      -8.472   0.944   1.096  1.00  0.00    -0.005 C 
HETATM    4  C4  UNL     1      -7.557   1.826   1.962  1.00  0.00     0.011 C 
HETATM    5  C5  UNL     1      -7.816   0.665  -0.290  1.00  0.00     0.090 C 
HETATM    6  C6  UNL     1      -8.853   0.580  -1.427  1.00  0.00     0.119 C 
HETATM    7  C7  UNL     1      -9.334   1.943  -1.880  1.00  0.00     0.241 C 
HETATM    8  C8  UNL     1      -6.930  -0.578  -0.306  1.00  0.00     0.223 C 
HETATM    9  C9  UNL     1      -4.870  -1.622   0.633  1.00  0.00     0.182 C 
HETATM   10  C10 UNL     1      -4.042  -1.442   1.925  1.00  0.00     0.093 C 
HETATM   11  C11 UNL     1      -3.117  -0.268   1.898  1.00  0.00     0.028 A 
HETATM   12  C12 UNL     1      -3.259   1.024   2.358  1.00  0.00     0.114 A 
HETATM   13  C13 UNL     1      -1.320   0.948   1.473  1.00  0.00     0.180 A 
HETATM   14  C14 UNL     1      -3.952  -2.013  -0.555  1.00  0.00     0.241 C 
HETATM   15  C15 UNL     1      -3.728  -2.026  -3.040  1.00  0.00     0.176 C 
HETATM   16  C16 UNL     1      -2.845  -0.776  -3.255  1.00  0.00     0.035 C 
HETATM   17  C17 UNL     1      -3.597   0.560  -3.203  1.00  0.00     0.004 C 
HETATM   18  C18 UNL     1      -3.485   1.214  -1.827  1.00  0.00     0.030 C 
HETATM   19  C19 UNL     1      -4.433   2.395  -1.655  1.00  0.00     0.267 C 
HETATM   20  C20 UNL     1      -2.865  -3.306  -3.203  1.00  0.00     0.240 C 
HETATM   21  C21 UNL     1      -2.617  -5.682  -2.623  1.00  0.00     0.225 C 
HETATM   22  C22 UNL     1      -1.386  -5.661  -1.704  1.00  0.00     0.235 C 
HETATM   23  C23 UNL     1      -0.340  -4.552   0.232  1.00  0.00     0.225 C 
HETATM   24  C24 UNL     1       0.290  -3.260  -0.292  1.00  0.00     0.236 C 
HETATM   25  C25 UNL     1       1.593  -2.294  -2.181  1.00  0.00     0.176 C 
HETATM   26  C26 UNL     1       2.865  -1.783  -1.487  1.00  0.00     0.035 C 
HETATM   27  C27 UNL     1       3.201  -0.337  -1.869  1.00  0.00     0.004 C 
HETATM   28  C28 UNL     1       4.484   0.134  -1.185  1.00  0.00     0.020 C 
HETATM   29  C29 UNL     1       4.837   1.563  -1.591  1.00  0.00     0.122 C 
HETATM   30  C30 UNL     1       6.090   2.527   0.308  1.00  0.00     0.217 C 
HETATM   31  C31 UNL     1       7.495   2.848   0.785  1.00  0.00     0.103 C 
HETATM   32  C32 UNL     1       7.495   3.529   2.153  1.00  0.00     0.009 C 
HETATM   33  C33 UNL     1       8.892   3.953   2.618  1.00  0.00     0.002 C 
HETATM   34  C34 UNL     1       9.808   2.763   2.931  1.00  0.00     0.017 C 
HETATM   35  C35 UNL     1      11.148   3.178   3.550  1.00  0.00     0.072 C 
HETATM   36  C36 UNL     1      11.973   2.002   4.074  1.00  0.00     0.123 C 
HETATM   37  C37 UNL     1      13.457   2.382   4.088  1.00  0.00     0.119 C 
HETATM   38  C38 UNL     1      13.749   3.210   2.834  1.00  0.00     0.101 C 
HETATM   39  C39 UNL     1      13.223   0.161   3.446  1.00  0.00     0.316 C 
HETATM   40  C40 UNL     1       1.869  -2.725  -3.640  1.00  0.00     0.238 C 
HETATM   41  O1  UNL     1      -8.913   3.013  -1.449  1.00  0.00    -0.271 OA
HETATM   42  O2  UNL     1     -10.867   3.131  -3.215  1.00  0.00    -0.287 OA
HETATM   43  O3  UNL     1      -7.229  -1.612  -0.900  1.00  0.00    -0.273 OA
HETATM   44  O4  UNL     1      -2.823  -2.478  -0.396  1.00  0.00    -0.271 OA
HETATM   45  O5  UNL     1      -1.843  -3.343  -3.888  1.00  0.00    -0.271 OA
HETATM   46  O6  UNL     1      -0.409  -6.381  -1.899  1.00  0.00    -0.272 OA
HETATM   47  O7  UNL     1       0.104  -2.170   0.248  1.00  0.00    -0.272 OA
HETATM   48  O8  UNL     1       5.084   2.704   0.986  1.00  0.00    -0.274 OA
HETATM   49  O9  UNL     1      13.498  -0.979   3.129  1.00  0.00    -0.247 OA
HETATM   50  O10 UNL     1       2.807  -2.320  -4.321  1.00  0.00    -0.271 OA
HETATM   51  N1  UNL     1     -10.301   1.882  -2.859  1.00  0.00    -0.237 N 
HETATM   52  N2  UNL     1      -5.751  -0.472   0.384  1.00  0.00    -0.347 N 
HETATM   53  N3  UNL     1      -2.159   1.779   2.048  1.00  0.00    -0.360 N 
ATOM     54  H3  UNL     1      -2.021   2.774   2.226  1.00  0.00     0.166 HD
HETATM   55  N4  UNL     1      -1.847  -0.308   1.366  1.00  0.00    -0.354 N 
HETATM   56  N5  UNL     1      -4.523  -2.006  -1.807  1.00  0.00    -0.346 N 
HETATM   57  N6  UNL     1      -4.656   2.625  -0.230  1.00  0.00     0.078 N 
HETATM   58  N7  UNL     1      -3.372  -4.439  -2.600  1.00  0.00    -0.351 N 
HETATM   59  N8  UNL     1      -1.496  -4.854  -0.593  1.00  0.00    -0.351 N 
HETATM   60  N9  UNL     1       1.013  -3.422  -1.453  1.00  0.00    -0.346 N 
HETATM   61  N10 UNL     1       6.068   2.003  -0.967  1.00  0.00    -0.361 N 
HETATM   62  N11 UNL     1      14.087   1.082   4.020  1.00  0.00    -0.336 N 
HETATM   63  N12 UNL     1      11.982   0.771   3.312  1.00  0.00    -0.335 N 
HETATM   64  N13 UNL     1       0.919  -3.530  -4.208  1.00  0.00    -0.368 N 
HETATM   65  S1  UNL     1      12.227   4.083   2.390  1.00  0.00    -0.160 SA
HETATM   66  H53 UNL     1     -10.353   3.763  -2.665  1.00  0.00     0.244 HD
HETATM   67  H54 UNL     1     -10.911   1.077  -2.959  1.00  0.00     0.197 HD
HETATM   68  H55 UNL     1      -5.359   0.467   0.501  1.00  0.00     0.163 HD
HETATM   69  H56 UNL     1      -1.378  -1.105   0.937  1.00  0.00     0.166 HD
HETATM   70  H57 UNL     1      -5.483  -1.674  -1.866  1.00  0.00     0.163 HD
HETATM   71  H58 UNL     1      -3.750   2.735   0.245  1.00  0.00     0.312 HD
HETATM   72  H59 UNL     1      -5.125   3.525  -0.110  1.00  0.00     0.312 HD
HETATM   73  H60 UNL     1      -4.125  -4.319  -1.933  1.00  0.00     0.163 HD
HETATM   74  H61 UNL     1      -2.179  -4.099  -0.647  1.00  0.00     0.163 HD
HETATM   75  H62 UNL     1       1.028  -4.338  -1.899  1.00  0.00     0.163 HD
HETATM   76  H63 UNL     1       6.943   1.783  -1.425  1.00  0.00     0.162 HD
HETATM   77  H64 UNL     1      15.079   0.884   4.059  1.00  0.00     0.164 HD
HETATM   78  H65 UNL     1      11.186   0.160   3.183  1.00  0.00     0.164 HD
HETATM   79  H66 UNL     1      -0.050  -3.474  -3.887  1.00  0.00     0.159 HD
HETATM   80  H67 UNL     1       1.018  -3.679  -5.204  1.00  0.00     0.159 HD
ENDROOT
TORSDOF 33
