REMARK  0 active torsions:
REMARK  status: ('A' for Active; 'I' for Inactive)
REMARK       I    between atoms: C2_2  and  C3_3 
REMARK       I    between atoms: C2_2  and  N8_82 
REMARK       I    between atoms: C3_3  and  N1_74 
REMARK       I    between atoms: C4_4  and  N1_74 
REMARK       I    between atoms: C6_6  and  C11_11 
REMARK       I    between atoms: C7_7  and  O2_62 
REMARK       I    between atoms: C11_11  and  N2_75 
REMARK       I    between atoms: C12_12  and  C13_13 
REMARK       I    between atoms: C12_12  and  C17_17 
REMARK       I    between atoms: C12_12  and  N2_75 
REMARK       I    between atoms: C13_13  and  C14_14 
REMARK       I    between atoms: C14_14  and  C15_15 
REMARK       I    between atoms: C15_15  and  N3_76 
REMARK       I    between atoms: C16_16  and  N3_76 
REMARK       I    between atoms: C16_16  and  N4_77 
REMARK       I    between atoms: C16_16  and  N5_79 
REMARK       I    between atoms: C17_17  and  N6_80 
REMARK       I    between atoms: C18_18  and  N6_80 
REMARK       I    between atoms: C20_20  and  C25_25 
REMARK       I    between atoms: C21_21  and  O5_65 
REMARK       I    between atoms: C25_25  and  N7_81 
REMARK       I    between atoms: C26_26  and  C27_27 
REMARK       I    between atoms: C26_26  and  N8_82 
REMARK       I    between atoms: C27_27  and  C28_28 
REMARK       I    between atoms: C27_27  and  N12_87 
REMARK       I    between atoms: C28_28  and  C29_29 
REMARK       I    between atoms: C29_29  and  C30_30 
REMARK       I    between atoms: C30_30  and  N9_83 
REMARK       I    between atoms: C31_31  and  N9_83 
REMARK       I    between atoms: C31_31  and  N10_84 
REMARK       I    between atoms: C31_31  and  N11_86 
REMARK       I    between atoms: C32_32  and  C33_33 
REMARK       I    between atoms: C32_32  and  N12_87 
REMARK       I    between atoms: C34_34  and  O13_73 
REMARK       I    between atoms: C37_37  and  N13_88 
REMARK       I    between atoms: C39_39  and  C40_40 
REMARK       I    between atoms: C39_39  and  N13_88 
REMARK       I    between atoms: C40_40  and  C41_41 
REMARK       I    between atoms: C40_40  and  N17_93 
REMARK       I    between atoms: C41_41  and  C42_42 
REMARK       I    between atoms: C42_42  and  C43_43 
REMARK       I    between atoms: C43_43  and  N14_89 
REMARK       I    between atoms: C44_44  and  N14_89 
REMARK       I    between atoms: C44_44  and  N15_90 
REMARK       I    between atoms: C44_44  and  N16_92 
REMARK       I    between atoms: C45_45  and  C46_46 
REMARK       I    between atoms: C45_45  and  N17_93 
REMARK       I    between atoms: C47_47  and  O12_72 
REMARK       I    between atoms: C50_50  and  N18_94 
REMARK       I    between atoms: C52_52  and  C53_53 
REMARK       I    between atoms: C52_52  and  N18_94 
REMARK       I    between atoms: C53_53  and  C54_54 
REMARK       I    between atoms: C53_53  and  N22_99 
REMARK       I    between atoms: C54_54  and  C55_55 
REMARK       I    between atoms: C55_55  and  C56_56 
REMARK       I    between atoms: C56_56  and  C57_57 
REMARK       I    between atoms: C57_57  and  N19_95 
REMARK       I    between atoms: C58_58  and  N19_95 
REMARK       I    between atoms: C58_58  and  N20_96 
REMARK       I    between atoms: C58_58  and  N21_98 
ROOT
HETATM    1  C1  UNL     1      -1.608  -4.201  -7.106  1.00  0.00     0.042 C 
HETATM    2  C2  UNL     1      -0.210  -4.273  -6.506  1.00  0.00     0.172 C 
HETATM    3  C3  UNL     1       0.003  -3.162  -5.440  1.00  0.00     0.244 C 
HETATM    4  C4  UNL     1       1.705  -2.486  -3.726  1.00  0.00     0.035 A 
HETATM    5  C5  UNL     1       0.909  -1.596  -3.002  1.00  0.00     0.049 A 
HETATM    6  C6  UNL     1       1.466  -0.859  -1.947  1.00  0.00     0.067 A 
HETATM    7  C7  UNL     1       2.809  -1.018  -1.599  1.00  0.00     0.084 A 
HETATM    8  C8  UNL     1       3.605  -1.908  -2.318  1.00  0.00     0.040 A 
HETATM    9  C9  UNL     1       3.051  -2.646  -3.368  1.00  0.00     0.032 A 
HETATM   10  C10 UNL     1       3.516  -0.881   0.587  1.00  0.00     0.210 C 
HETATM   11  C11 UNL     1       0.629   0.144  -1.258  1.00  0.00     0.255 C 
HETATM   12  C12 UNL     1      -0.442   2.374  -1.550  1.00  0.00     0.177 C 
HETATM   13  C13 UNL     1      -1.040   3.173  -2.722  1.00  0.00     0.036 C 
HETATM   14  C14 UNL     1      -1.715   4.476  -2.273  1.00  0.00     0.023 C 
HETATM   15  C15 UNL     1      -1.436   5.632  -3.234  1.00  0.00     0.138 C 
HETATM   16  C16 UNL     1      -0.548   7.621  -2.044  1.00  0.00     0.665 C 
HETATM   17  C17 UNL     1       0.610   3.225  -0.787  1.00  0.00     0.245 C 
HETATM   18  C18 UNL     1       1.680   3.276   1.484  1.00  0.00     0.035 A 
HETATM   19  C19 UNL     1       2.323   4.511   1.379  1.00  0.00     0.049 A 
HETATM   20  C20 UNL     1       3.123   4.995   2.427  1.00  0.00     0.067 A 
HETATM   21  C21 UNL     1       3.232   4.246   3.607  1.00  0.00     0.084 A 
HETATM   22  C22 UNL     1       2.607   3.002   3.711  1.00  0.00     0.040 A 
HETATM   23  C23 UNL     1       1.832   2.524   2.654  1.00  0.00     0.032 A 
HETATM   24  C24 UNL     1       3.145   5.342   5.628  1.00  0.00     0.210 C 
HETATM   25  C25 UNL     1       3.777   6.318   2.231  1.00  0.00     0.252 C 
HETATM   26  C26 UNL     1       1.271  -6.149  -5.801  1.00  0.00     0.241 C 
HETATM   27  C27 UNL     1       1.315  -7.406  -4.907  1.00  0.00     0.177 C 
HETATM   28  C28 UNL     1       2.509  -8.289  -5.280  1.00  0.00     0.036 C 
HETATM   29  C29 UNL     1       2.495  -9.623  -4.526  1.00  0.00     0.022 C 
HETATM   30  C30 UNL     1       3.711 -10.497  -4.840  1.00  0.00     0.122 C 
HETATM   31  C31 UNL     1       2.928 -11.864  -6.723  1.00  0.00     0.143 C 
HETATM   32  C32 UNL     1       0.353  -6.354  -2.888  1.00  0.00     0.255 C 
HETATM   33  C33 UNL     1       0.614  -5.544  -1.651  1.00  0.00     0.067 A 
HETATM   34  C34 UNL     1       1.894  -5.317  -1.102  1.00  0.00     0.084 A 
HETATM   35  C35 UNL     1       2.011  -4.485   0.016  1.00  0.00     0.040 A 
HETATM   36  C36 UNL     1       0.881  -3.893   0.587  1.00  0.00     0.032 A 
HETATM   37  C37 UNL     1      -0.391  -4.131   0.068  1.00  0.00     0.035 A 
HETATM   38  C38 UNL     1      -0.518  -4.955  -1.048  1.00  0.00     0.049 A 
HETATM   39  C39 UNL     1      -2.826  -3.650   0.480  1.00  0.00     0.245 C 
HETATM   40  C40 UNL     1      -3.681  -3.059   1.631  1.00  0.00     0.177 C 
HETATM   41  C41 UNL     1      -5.101  -2.688   1.171  1.00  0.00     0.036 C 
HETATM   42  C42 UNL     1      -5.976  -1.987   2.218  1.00  0.00     0.022 C 
HETATM   43  C43 UNL     1      -6.123  -2.759   3.529  1.00  0.00     0.122 C 
HETATM   44  C44 UNL     1      -6.903  -2.192   5.813  1.00  0.00     0.143 C 
HETATM   45  C45 UNL     1      -2.834  -0.727   1.930  1.00  0.00     0.255 C 
HETATM   46  C46 UNL     1      -2.427   0.320   2.928  1.00  0.00     0.067 A 
HETATM   47  C47 UNL     1      -2.168   0.066   4.288  1.00  0.00     0.084 A 
HETATM   48  C48 UNL     1      -1.779   1.120   5.123  1.00  0.00     0.040 A 
HETATM   49  C49 UNL     1      -1.723   2.427   4.634  1.00  0.00     0.032 A 
HETATM   50  C50 UNL     1      -2.043   2.706   3.303  1.00  0.00     0.035 A 
HETATM   51  C51 UNL     1      -2.366   1.646   2.454  1.00  0.00     0.049 A 
HETATM   52  C52 UNL     1      -2.428   4.595   1.697  1.00  0.00     0.255 C 
HETATM   53  C53 UNL     1      -2.485   6.148   1.704  1.00  0.00     0.309 C 
HETATM   54  C54 UNL     1      -1.079   6.751   1.852  1.00  0.00     0.045 C 
HETATM   55  C55 UNL     1      -1.073   8.286   1.872  1.00  0.00     0.004 C 
HETATM   56  C56 UNL     1       0.338   8.878   1.945  1.00  0.00     0.020 C 
HETATM   57  C57 UNL     1       1.004   8.688   3.307  1.00  0.00     0.122 C 
HETATM   58  C58 UNL     1       3.183   9.233   4.339  1.00  0.00     0.143 C 
HETATM   59  C59 UNL     1      -2.899  -1.328   6.043  1.00  0.00     0.210 C 
HETATM   60  C60 UNL     1       4.222  -5.873  -1.025  1.00  0.00     0.210 C 
HETATM   61  O1  UNL     1      -0.802  -2.248  -5.278  1.00  0.00    -0.271 OA
HETATM   62  O2  UNL     1       3.401  -0.211  -0.666  1.00  0.00    -0.355 OA
HETATM   63  O3  UNL     1       0.395   0.070  -0.057  1.00  0.00    -0.268 OA
HETATM   64  O4  UNL     1       1.155   4.201  -1.302  1.00  0.00    -0.271 OA
HETATM   65  O5  UNL     1       3.980   4.677   4.674  1.00  0.00    -0.355 OA
HETATM   66  O6  UNL     1       3.320   7.152   1.455  1.00  0.00    -0.268 OA
HETATM   67  O7  UNL     1       2.278  -5.574  -6.213  1.00  0.00    -0.271 OA
HETATM   68  O8  UNL     1      -0.780  -6.456  -3.355  1.00  0.00    -0.268 OA
HETATM   69  O9  UNL     1      -3.334  -4.307  -0.424  1.00  0.00    -0.271 OA
HETATM   70  O10 UNL     1      -3.044  -0.435   0.759  1.00  0.00    -0.268 OA
HETATM   71  O11 UNL     1      -2.746   3.943   0.705  1.00  0.00    -0.271 OA
HETATM   72  O12 UNL     1      -2.258  -1.218   4.768  1.00  0.00    -0.355 OA
HETATM   73  O13 UNL     1       2.977  -5.896  -1.717  1.00  0.00    -0.355 OA
HETATM   74  N1  UNL     1       1.233  -3.255  -4.805  1.00  0.00    -0.325 N 
HETATM   75  N2  UNL     1       0.235   1.185  -2.068  1.00  0.00    -0.344 N 
HETATM   76  N3  UNL     1      -1.577   6.900  -2.540  1.00  0.00    -0.227 N 
HETATM   77  N4  UNL     1      -0.593   8.904  -2.112  1.00  0.00    -0.235 N 
ATOM     78  H4  UNL     1      -1.329   9.452  -2.558  1.00  0.00     0.174 HD
HETATM   79  N5  UNL     1       0.449   6.962  -1.436  1.00  0.00    -0.235 N 
HETATM   80  N6  UNL     1       0.862   2.730   0.482  1.00  0.00    -0.325 N 
HETATM   81  N7  UNL     1       4.888   6.594   2.974  1.00  0.00    -0.366 N 
HETATM   82  N8  UNL     1       0.011  -5.600  -5.931  1.00  0.00    -0.346 N 
HETATM   83  N9  UNL     1       3.751 -10.910  -6.234  1.00  0.00    -0.367 N 
HETATM   84  N10 UNL     1       2.147 -12.596  -6.021  1.00  0.00    -0.376 N 
ATOM     85  H10 UNL     1       2.066 -12.558  -5.005  1.00  0.00     0.158 HD
HETATM   86  N11 UNL     1       3.034 -11.966  -8.063  1.00  0.00    -0.274 NA
HETATM   87  N12 UNL     1       1.435  -6.901  -3.542  1.00  0.00    -0.344 N 
HETATM   88  N13 UNL     1      -1.469  -3.528   0.735  1.00  0.00    -0.325 N 
HETATM   89  N14 UNL     1      -6.840  -1.942   4.489  1.00  0.00    -0.367 N 
HETATM   90  N15 UNL     1      -6.227  -3.032   6.505  1.00  0.00    -0.376 N 
ATOM     91  H15 UNL     1      -6.292  -3.147   7.516  1.00  0.00     0.158 HD
HETATM   92  N16 UNL     1      -7.798  -1.395   6.425  1.00  0.00    -0.274 NA
HETATM   93  N17 UNL     1      -2.992  -2.014   2.393  1.00  0.00    -0.344 N 
HETATM   94  N18 UNL     1      -2.048   4.064   2.921  1.00  0.00    -0.325 N 
HETATM   95  N19 UNL     1       2.368   9.186   3.263  1.00  0.00    -0.367 N 
HETATM   96  N20 UNL     1       2.878   9.123   5.578  1.00  0.00    -0.376 N 
ATOM     97  H20 UNL     1       3.538   9.142   6.355  1.00  0.00     0.158 HD
HETATM   98  N21 UNL     1       4.467   9.446   3.988  1.00  0.00    -0.274 NA
HETATM   99  N22 UNL     1      -3.171   6.632   0.493  1.00  0.00     0.092 N 
HETATM  100  H59 UNL     1       1.888  -3.916  -5.222  1.00  0.00     0.169 HD
HETATM  101  H60 UNL     1       0.659   1.250  -2.986  1.00  0.00     0.163 HD
HETATM  102  H61 UNL     1      -2.232   7.531  -2.995  1.00  0.00     0.177 HD
HETATM  103  H62 UNL     1       0.233   9.282  -1.644  1.00  0.00     0.174 HD
HETATM  104  H63 UNL     1       1.312   7.451  -1.243  1.00  0.00     0.174 HD
HETATM  105  H64 UNL     1       0.602   5.974  -1.630  1.00  0.00     0.174 HD
HETATM  106  H65 UNL     1       0.471   1.801   0.659  1.00  0.00     0.169 HD
HETATM  107  H66 UNL     1       5.112   7.580   3.079  1.00  0.00     0.159 HD
HETATM  108  H67 UNL     1       5.115   6.007   3.769  1.00  0.00     0.159 HD
HETATM  109  H68 UNL     1      -0.663  -5.901  -5.220  1.00  0.00     0.163 HD
HETATM  110  H69 UNL     1       3.925 -10.152  -6.881  1.00  0.00     0.162 HD
HETATM  111  H70 UNL     1       1.618 -13.223  -6.627  1.00  0.00     0.158 HD
HETATM  112  H71 UNL     1       3.989 -11.856  -8.384  1.00  0.00     0.127 HD
HETATM  113  H72 UNL     1       2.627 -12.807  -8.451  1.00  0.00     0.127 HD
HETATM  114  H73 UNL     1       2.352  -6.604  -3.223  1.00  0.00     0.163 HD
HETATM  115  H74 UNL     1      -1.248  -2.879   1.483  1.00  0.00     0.169 HD
HETATM  116  H75 UNL     1      -7.719  -1.585   4.128  1.00  0.00     0.162 HD
HETATM  117  H76 UNL     1      -5.615  -3.568   5.892  1.00  0.00     0.158 HD
HETATM  118  H77 UNL     1      -7.721  -1.504   7.431  1.00  0.00     0.127 HD
HETATM  119  H78 UNL     1      -7.708  -0.422   6.162  1.00  0.00     0.127 HD
HETATM  120  H79 UNL     1      -2.883  -2.155   3.393  1.00  0.00     0.163 HD
HETATM  121  H80 UNL     1      -1.832   4.731   3.650  1.00  0.00     0.169 HD
HETATM  122  H81 UNL     1       2.857   8.807   2.444  1.00  0.00     0.162 HD
HETATM  123  H82 UNL     1       1.867   9.013   5.661  1.00  0.00     0.158 HD
HETATM  124  H83 UNL     1       4.993   9.708   4.817  1.00  0.00     0.127 HD
HETATM  125  H84 UNL     1       4.540  10.174   3.284  1.00  0.00     0.127 HD
HETATM  126  H85 UNL     1      -3.822   5.905   0.183  1.00  0.00     0.313 HD
HETATM  127  H86 UNL     1      -2.495   6.690  -0.280  1.00  0.00     0.313 HD
ENDROOT
TORSDOF 39
