REMARK  16 active torsions:
REMARK  status: ('A' for Active; 'I' for Inactive)
REMARK    1  A    between atoms: C3_3  and  N4_36 
REMARK    2  A    between atoms: C5_5  and  C6_6 
REMARK       I    between atoms: C6_6  and  N2_34 
REMARK    3  A    between atoms: C7_7  and  C8_8 
REMARK    4  A    between atoms: C7_7  and  N2_34 
REMARK    5  A    between atoms: C8_8  and  C9_9 
REMARK    6  A    between atoms: C9_9  and  C10_10 
REMARK    7  A    between atoms: C10_10  and  N3_35 
REMARK    8  A    between atoms: C11_11  and  C12_12 
REMARK       I    between atoms: C11_11  and  N4_36 
REMARK    9  A    between atoms: C14_14  and  N6_38 
REMARK   10  A    between atoms: C17_17  and  C18_18 
REMARK       I    between atoms: C17_17  and  N6_38 
REMARK   11  A    between atoms: C20_20  and  N8_40 
REMARK   12  A    between atoms: C23_23  and  C24_24 
REMARK       I    between atoms: C23_23  and  N8_40 
REMARK   13  A    between atoms: C25_25  and  N10_43 
REMARK   14  A    between atoms: C27_27  and  C28_28 
REMARK   15  A    between atoms: C27_27  and  N10_43 
REMARK   16  A    between atoms: C28_28  and  N11_44 
ROOT
HETATM    1  C17 UNL     1       0.105  -0.403   1.173  1.00  0.00     0.273 C 
HETATM    2  N6  UNL     1       0.482   0.873   0.796  1.00  0.00    -0.320 N 
HETATM    3  O3  UNL     1       0.900  -1.298   1.454  1.00  0.00    -0.266 OA
HETATM    4  H40 UNL     1      -0.237   1.556   0.609  1.00  0.00     0.169 HD
ENDROOT
BRANCH   1   5
HETATM    5  C18 UNL     1      -1.342  -0.613   1.225  1.00  0.00     0.105 A 
HETATM    6  C19 UNL     1      -2.382   0.212   0.803  1.00  0.00     0.066 A 
HETATM    7  C20 UNL     1      -3.615  -0.427   1.064  1.00  0.00     0.053 A 
HETATM    8  C21 UNL     1      -3.319  -1.640   1.636  1.00  0.00     0.120 A 
HETATM    9  N7  UNL     1      -1.953  -1.751   1.727  1.00  0.00    -0.354 N 
HETATM   10  C22 UNL     1      -1.275  -2.903   2.286  1.00  0.00     0.156 C 
BRANCH   7  11
HETATM   11  N8  UNL     1      -4.910  -0.008   0.829  1.00  0.00    -0.320 N 
HETATM   12  C23 UNL     1      -5.270   1.201   0.253  1.00  0.00     0.275 C 
HETATM   13  O4  UNL     1      -4.459   2.056  -0.100  1.00  0.00    -0.266 OA
HETATM   14  H41 UNL     1      -5.639  -0.653   1.102  1.00  0.00     0.169 HD
BRANCH  12  15
HETATM   15  C24 UNL     1      -6.732   1.421   0.116  1.00  0.00     0.132 A 
HETATM   16  C26 UNL     1      -7.793   0.434   0.004  1.00  0.00     0.101 A 
HETATM   17  C25 UNL     1      -9.045   1.033  -0.094  1.00  0.00     0.111 A 
HETATM   18 CL1  UNL     1      -7.501  -1.262  -0.035  1.00  0.00    -0.079 Cl
HETATM   19  S1  UNL     1      -8.790   2.736  -0.079  1.00  0.00     0.006 SA
HETATM   20  N9  UNL     1      -7.159   2.690   0.080  1.00  0.00    -0.319 N 
ATOM     21  H9  UNL     1      -6.556   3.510   0.143  1.00  0.00     0.174 HD
BRANCH  17  22
HETATM   22  N10 UNL     1     -10.316   0.550  -0.212  1.00  0.00    -0.380 N 
HETATM   23  H42 UNL     1     -11.066   1.234  -0.107  1.00  0.00     0.160 HD
BRANCH  22  24
HETATM   24  C27 UNL     1     -10.704  -0.798   0.196  1.00  0.00     0.150 C 
BRANCH  24  25
HETATM   25  C28 UNL     1     -12.241  -0.991   0.138  1.00  0.00     0.292 C 
BRANCH  25  26
HETATM   26  N11 UNL     1     -12.789  -1.425  -1.166  1.00  0.00     0.093 N 
HETATM   27  C29 UNL     1     -12.479  -0.510  -2.280  1.00  0.00     0.302 C 
HETATM   28  C30 UNL     1     -13.168   0.878  -2.221  1.00  0.00     0.299 C 
HETATM   29  N12 UNL     1     -14.361   0.941  -1.362  1.00  0.00     0.086 N 
HETATM   30  C31 UNL     1     -15.104  -0.322  -1.437  1.00  0.00     0.299 C 
HETATM   31  H43 UNL     1     -14.955   1.714  -1.657  1.00  0.00     0.315 HD
HETATM   32  C32 UNL     1     -14.262  -1.576  -1.075  1.00  0.00     0.302 C 
ENDBRANCH  25  26
ENDBRANCH  24  25
ENDBRANCH  22  24
ENDBRANCH  17  22
ENDBRANCH  12  15
ENDBRANCH   7  11
ENDBRANCH   1   5
BRANCH   2  33
HETATM   33  C14 UNL     1       1.783   1.320   0.669  1.00  0.00     0.053 A 
HETATM   34  C13 UNL     1       3.010   0.647   0.868  1.00  0.00     0.066 A 
HETATM   35  C12 UNL     1       4.060   1.525   0.609  1.00  0.00     0.105 A 
HETATM   36  N5  UNL     1       3.460   2.727   0.267  1.00  0.00    -0.354 N 
HETATM   37  C15 UNL     1       2.093   2.605   0.297  1.00  0.00     0.120 A 
HETATM   38  C16 UNL     1       4.150   3.953  -0.084  1.00  0.00     0.156 C 
BRANCH  35  39
HETATM   39  C11 UNL     1       5.506   1.310   0.671  1.00  0.00     0.273 C 
HETATM   40  N4  UNL     1       5.876  -0.001   0.917  1.00  0.00    -0.320 N 
HETATM   41  H39 UNL     1       5.153  -0.700   0.991  1.00  0.00     0.169 HD
HETATM   42  O2  UNL     1       6.306   2.226   0.500  1.00  0.00    -0.266 OA
BRANCH  40  43
HETATM   43  C3  UNL     1       7.174  -0.456   1.043  1.00  0.00     0.053 A 
HETATM   44  C2  UNL     1       7.478  -1.784   1.239  1.00  0.00     0.120 A 
HETATM   45  N1  UNL     1       8.843  -1.903   1.332  1.00  0.00    -0.354 N 
HETATM   46  C1  UNL     1       9.532  -3.136   1.644  1.00  0.00     0.156 C 
HETATM   47  C5  UNL     1       9.434  -0.671   1.153  1.00  0.00     0.104 A 
HETATM   48  C4  UNL     1       8.401   0.245   1.018  1.00  0.00     0.066 A 
BRANCH  47  49
HETATM   49  C6  UNL     1      10.850  -0.387   1.147  1.00  0.00     0.268 C 
HETATM   50  N2  UNL     1      11.540  -1.102   0.195  1.00  0.00    -0.356 N 
HETATM   51  H36 UNL     1      11.024  -1.727  -0.408  1.00  0.00     0.162 HD
HETATM   52  O1  UNL     1      11.377   0.443   1.878  1.00  0.00    -0.266 OA
BRANCH  50  53
HETATM   53  C7  UNL     1      12.965  -0.961  -0.017  1.00  0.00     0.123 C 
BRANCH  53  54
HETATM   54  C8  UNL     1      13.302  -0.595  -1.462  1.00  0.00     0.021 C 
BRANCH  54  55
HETATM   55  C9  UNL     1      13.301   0.908  -1.767  1.00  0.00     0.031 C 
BRANCH  55  56
HETATM   56  C10 UNL     1      11.991   1.665  -1.553  1.00  0.00     0.267 C 
BRANCH  56  57
HETATM   57  N3  UNL     1      10.882   1.082  -2.302  1.00  0.00     0.078 N 
HETATM   58  H37 UNL     1      10.607   0.212  -1.850  1.00  0.00     0.312 HD
HETATM   59  H38 UNL     1      10.069   1.693  -2.201  1.00  0.00     0.312 HD
ENDBRANCH  56  57
ENDBRANCH  55  56
ENDBRANCH  54  55
ENDBRANCH  53  54
ENDBRANCH  50  53
ENDBRANCH  47  49
ENDBRANCH  40  43
ENDBRANCH  35  39
ENDBRANCH   2  33
TORSDOF 16
