REMARK  29 active torsions:
REMARK  status: ('A' for Active; 'I' for Inactive)
REMARK    1  A    between atoms: C5_5  and  C6_6 
REMARK    2  A    between atoms: C5_5  and  O3_51 
REMARK    3  A    between atoms: C9_9  and  C12_12 
REMARK    4  A    between atoms: C12_12  and  C13_13 
REMARK    5  A    between atoms: C12_12  and  C19_19 
REMARK    6  A    between atoms: C12_12  and  O11_59 
REMARK    7  A    between atoms: C21_21  and  O5_53 
REMARK    8  A    between atoms: C25_25  and  C26_26 
REMARK    9  A    between atoms: C25_25  and  O5_53 
REMARK   10  A    between atoms: C26_26  and  O6_54 
REMARK   11  A    between atoms: C27_27  and  C28_28 
REMARK   12  A    between atoms: C27_27  and  O6_54 
REMARK   13  A    between atoms: C28_28  and  C29_29 
REMARK   14  A    between atoms: C29_29  and  C30_30 
REMARK   15  A    between atoms: C30_30  and  C31_31 
REMARK   16  A    between atoms: C31_31  and  C32_32 
REMARK   17  A    between atoms: C32_32  and  N2_61 
REMARK   18  A    between atoms: C33_33  and  C34_34 
REMARK       I    between atoms: C33_33  and  N2_61 
REMARK   19  A    between atoms: C34_34  and  C35_35 
REMARK   20  A    between atoms: C35_35  and  C36_36 
REMARK   21  A    between atoms: C36_36  and  C37_37 
REMARK   22  A    between atoms: C37_37  and  C38_38 
REMARK   23  A    between atoms: C38_38  and  N3_62 
REMARK   24  A    between atoms: C39_39  and  C40_40 
REMARK       I    between atoms: C39_39  and  N3_62 
REMARK   25  A    between atoms: C40_40  and  C41_41 
REMARK   26  A    between atoms: C41_41  and  C42_42 
REMARK   27  A    between atoms: C42_42  and  C43_43 
REMARK   28  A    between atoms: C43_43  and  C44_44 
REMARK   29  A    between atoms: O3_51  and  N1_60 
ROOT
HETATM    1  C27 UNL     1      -3.283   4.311  -4.697  1.00  0.00     0.258 C 
HETATM    2  O7  UNL     1      -4.370   3.788  -4.496  1.00  0.00    -0.265 OA
ENDROOT
BRANCH   1   3
HETATM    3  C28 UNL     1      -2.630   5.318  -3.781  1.00  0.00     0.111 C 
BRANCH   3   4
HETATM    4  C29 UNL     1      -2.925   4.980  -2.321  1.00  0.00     0.010 C 
BRANCH   4   5
HETATM    5  C30 UNL     1      -2.088   5.824  -1.362  1.00  0.00     0.002 C 
BRANCH   5   6
HETATM    6  C31 UNL     1      -2.391   5.553   0.116  1.00  0.00     0.020 C 
BRANCH   6   7
HETATM    7  C32 UNL     1      -2.237   4.096   0.563  1.00  0.00     0.122 C 
BRANCH   7   8
HETATM    8  N2  UNL     1      -0.954   3.527   0.213  1.00  0.00    -0.361 N 
HETATM    9  C33 UNL     1       0.197   3.831   0.909  1.00  0.00     0.217 C 
HETATM   10  O8  UNL     1       0.227   4.590   1.870  1.00  0.00    -0.274 OA
HETATM   11  H56 UNL     1      -0.927   2.825  -0.525  1.00  0.00     0.162 HD
BRANCH   9  12
HETATM   12  C34 UNL     1       1.426   3.155   0.332  1.00  0.00     0.103 C 
BRANCH  12  13
HETATM   13  C35 UNL     1       2.675   3.372   1.184  1.00  0.00     0.009 C 
BRANCH  13  14
HETATM   14  C36 UNL     1       3.972   2.922   0.503  1.00  0.00     0.002 C 
BRANCH  14  15
HETATM   15  C37 UNL     1       3.954   1.460   0.048  1.00  0.00     0.020 C 
BRANCH  15  16
HETATM   16  C38 UNL     1       5.314   0.996  -0.475  1.00  0.00     0.122 C 
BRANCH  16  17
HETATM   17  N3  UNL     1       6.272   0.808   0.596  1.00  0.00    -0.361 N 
HETATM   18  C39 UNL     1       6.327  -0.370   1.311  1.00  0.00     0.217 C 
HETATM   19  O9  UNL     1       5.682  -1.372   1.020  1.00  0.00    -0.274 OA
HETATM   20  H57 UNL     1       6.754   1.621   0.955  1.00  0.00     0.162 HD
BRANCH  18  21
HETATM   21  C40 UNL     1       7.301  -0.315   2.475  1.00  0.00     0.103 C 
BRANCH  21  22
HETATM   22  C41 UNL     1       7.112  -1.481   3.446  1.00  0.00     0.009 C 
BRANCH  22  23
HETATM   23  C42 UNL     1       5.874  -1.291   4.333  1.00  0.00     0.002 C 
BRANCH  23  24
HETATM   24  C43 UNL     1       5.523  -2.556   5.127  1.00  0.00     0.017 C 
BRANCH  24  25
HETATM   25  C44 UNL     1       4.805  -3.632   4.300  1.00  0.00     0.072 C 
HETATM   26  C45 UNL     1       4.734  -4.991   4.993  1.00  0.00     0.123 C 
HETATM   27  C46 UNL     1       3.568  -5.799   4.414  1.00  0.00     0.119 C 
HETATM   28  N5  UNL     1       4.454  -5.029   6.413  1.00  0.00    -0.335 N 
HETATM   29  C47 UNL     1       2.398  -4.844   4.159  1.00  0.00     0.101 C 
HETATM   30  N4  UNL     1       3.281  -6.708   5.502  1.00  0.00    -0.336 N 
HETATM   31  S1  UNL     1       3.081  -3.186   3.900  1.00  0.00    -0.160 SA
HETATM   32  C48 UNL     1       3.717  -6.170   6.704  1.00  0.00     0.316 C 
HETATM   33  H58 UNL     1       2.593  -7.450   5.506  1.00  0.00     0.164 HD
HETATM   34  O10 UNL     1       3.505  -6.623   7.811  1.00  0.00    -0.247 OA
HETATM   35  H59 UNL     1       5.061  -4.673   7.140  1.00  0.00     0.164 HD
ENDBRANCH  24  25
ENDBRANCH  23  24
ENDBRANCH  22  23
ENDBRANCH  21  22
ENDBRANCH  18  21
ENDBRANCH  16  17
ENDBRANCH  15  16
ENDBRANCH  14  15
ENDBRANCH  13  14
ENDBRANCH  12  13
ENDBRANCH   9  12
ENDBRANCH   7   8
ENDBRANCH   6   7
ENDBRANCH   5   6
ENDBRANCH   4   5
ENDBRANCH   3   4
ENDBRANCH   1   3
BRANCH   1  36
HETATM   36  O6  UNL     1      -2.486   4.073  -5.773  1.00  0.00    -0.319 OA
BRANCH  36  37
HETATM   37  C26 UNL     1      -2.938   3.011  -6.630  1.00  0.00     0.205 C 
BRANCH  37  38
HETATM   38  C25 UNL     1      -1.762   2.522  -7.480  1.00  0.00     0.202 C 
BRANCH  38  39
HETATM   39  O5  UNL     1      -0.646   2.080  -6.688  1.00  0.00    -0.349 OA
BRANCH  39  40
HETATM   40  C21 UNL     1      -0.900   0.952  -5.958  1.00  0.00     0.069 A 
HETATM   41  C20 UNL     1      -0.770   1.058  -4.572  1.00  0.00     0.047 A 
HETATM   42  C19 UNL     1      -1.014  -0.045  -3.734  1.00  0.00    -0.012 A 
HETATM   43  C24 UNL     1      -1.370  -1.263  -4.350  1.00  0.00     0.011 A 
HETATM   44  C23 UNL     1      -1.466  -1.372  -5.740  1.00  0.00     0.003 A 
HETATM   45  C22 UNL     1      -1.224  -0.264  -6.548  1.00  0.00     0.037 A 
BRANCH  42  46
HETATM   46  C12 UNL     1      -0.921   0.063  -2.196  1.00  0.00     0.140 C 
BRANCH  46  47
HETATM   47  C9  UNL     1      -2.308  -0.253  -1.587  1.00  0.00    -0.015 A 
HETATM   48  C8  UNL     1      -3.333   0.711  -1.628  1.00  0.00     0.012 A 
HETATM   49  C7  UNL     1      -4.607   0.441  -1.119  1.00  0.00     0.018 A 
HETATM   50  C6  UNL     1      -4.895  -0.810  -0.565  1.00  0.00     0.041 A 
HETATM   51  C11 UNL     1      -3.897  -1.791  -0.539  1.00  0.00     0.018 A 
HETATM   52  C10 UNL     1      -2.624  -1.517  -1.053  1.00  0.00     0.012 A 
BRANCH  50  53
HETATM   53  C5  UNL     1      -6.266  -1.044  -0.038  1.00  0.00     0.315 C 
HETATM   54  O4  UNL     1      -7.151  -0.199  -0.042  1.00  0.00    -0.257 OA
BRANCH  53  55
HETATM   55  O3  UNL     1      -6.388  -2.313   0.439  1.00  0.00    -0.182 OA
BRANCH  55  56
HETATM   56  N1  UNL     1      -7.669  -2.545   0.933  1.00  0.00    -0.145 N 
HETATM   57  C3  UNL     1      -8.583  -3.229   0.207  1.00  0.00     0.251 C 
HETATM   58  C2  UNL     1      -9.788  -3.429   1.081  1.00  0.00     0.115 C 
HETATM   59  O1  UNL     1      -8.476  -3.657  -0.933  1.00  0.00    -0.271 OA
HETATM   60  C1  UNL     1      -9.345  -2.945   2.458  1.00  0.00     0.115 C 
HETATM   61  C4  UNL     1      -7.922  -2.506   2.262  1.00  0.00     0.251 C 
HETATM   62  O2  UNL     1      -7.155  -2.214   3.168  1.00  0.00    -0.271 OA
ENDBRANCH  55  56
ENDBRANCH  53  55
ENDBRANCH  50  53
ENDBRANCH  46  47
BRANCH  46  63
HETATM   63  C13 UNL     1       0.259  -0.703  -1.556  1.00  0.00    -0.015 A 
HETATM   64  C14 UNL     1       0.388  -0.730  -0.149  1.00  0.00     0.011 A 
HETATM   65  C15 UNL     1       1.464  -1.364   0.472  1.00  0.00     0.001 A 
HETATM   66  C16 UNL     1       2.452  -1.969  -0.297  1.00  0.00     0.000 A 
HETATM   67  C17 UNL     1       2.364  -1.937  -1.685  1.00  0.00     0.001 A 
HETATM   68  C18 UNL     1       1.283  -1.305  -2.310  1.00  0.00     0.011 A 
ENDBRANCH  46  63
BRANCH  46  69
HETATM   69  O11 UNL     1      -0.631   1.447  -1.860  1.00  0.00    -0.376 OA
HETATM   70  H55 UNL     1       0.337   1.518  -1.941  1.00  0.00     0.211 HD
ENDBRANCH  46  69
ENDBRANCH  42  46
ENDBRANCH  39  40
ENDBRANCH  38  39
ENDBRANCH  37  38
ENDBRANCH  36  37
ENDBRANCH   1  36
TORSDOF 29
