REMARK  22 active torsions:
REMARK  status: ('A' for Active; 'I' for Inactive)
REMARK    1  A    between atoms: C2_2  and  C3_3 
REMARK    2  A    between atoms: C4_4  and  O16_69 
REMARK    3  A    between atoms: C5_5  and  O15_68 
REMARK    4  A    between atoms: C10_10  and  O14_67 
REMARK    5  A    between atoms: C11_11  and  O11_64 
REMARK    6  A    between atoms: C13_13  and  O4_57 
REMARK    7  A    between atoms: C17_17  and  O4_57 
REMARK    8  A    between atoms: C19_19  and  O10_63 
REMARK    9  A    between atoms: C20_20  and  O6_59 
REMARK   10  A    between atoms: C23_23  and  O6_59 
REMARK       I    between atoms: C23_23  and  N1_70 
REMARK   11  A    between atoms: C24_24  and  C25_25 
REMARK   12  A    between atoms: C24_24  and  N1_70 
REMARK   13  A    between atoms: C25_25  and  C26_26 
REMARK   14  A    between atoms: C26_26  and  C27_27 
REMARK   15  A    between atoms: C27_27  and  C28_28 
REMARK   16  A    between atoms: C28_28  and  C29_29 
REMARK       I    between atoms: C29_29  and  N2_71 
REMARK   17  A    between atoms: C30_30  and  C32_32 
REMARK   18  A    between atoms: C30_30  and  N2_71 
REMARK   19  A    between atoms: C35_35  and  O9_62 
REMARK   20  A    between atoms: C41_41  and  O11_64 
REMARK   21  A    between atoms: C42_42  and  O13_66 
REMARK   22  A    between atoms: C43_43  and  N3_72 
ROOT
HETATM    1  C3  UNL     1      -4.838  -3.872  -3.299  1.00  0.00     0.168 C 
HETATM    2  C4  UNL     1      -6.283  -3.976  -2.660  1.00  0.00     0.107 C 
HETATM    3  C5  UNL     1      -6.228  -3.939  -1.096  1.00  0.00     0.165 C 
HETATM    4  C6  UNL     1      -7.516  -3.751  -0.254  1.00  0.00     0.083 C 
HETATM    5  C7  UNL     1      -7.223  -3.770   1.263  1.00  0.00     0.137 C 
HETATM    6  C8  UNL     1      -5.900  -3.200   1.813  1.00  0.00     0.054 C 
HETATM    7  C9  UNL     1      -5.829  -1.673   1.593  1.00  0.00     0.052 C 
HETATM    8  C10 UNL     1      -4.417  -1.000   1.677  1.00  0.00     0.084 C 
HETATM    9  C11 UNL     1      -4.361   0.282   0.735  1.00  0.00     0.165 C 
HETATM   10  C12 UNL     1      -4.447  -0.010  -0.827  1.00  0.00     0.043 C 
HETATM   11  C13 UNL     1      -3.057  -0.390  -1.446  1.00  0.00     0.144 C 
HETATM   12  C14 UNL     1      -2.992  -0.654  -2.977  1.00  0.00     0.111 C 
HETATM   13  C15 UNL     1      -4.066  -1.595  -3.496  1.00  0.00     0.265 C 
HETATM   14  C16 UNL     1      -2.894   0.596  -3.864  1.00  0.00     0.023 C 
HETATM   15  C40 UNL     1      -5.118   1.147  -1.583  1.00  0.00     0.015 C 
HETATM   16  C49 UNL     1      -4.202  -0.556   3.147  1.00  0.00     0.049 C 
HETATM   17  C51 UNL     1      -5.731  -3.591   3.283  1.00  0.00     0.018 C 
HETATM   18  C52 UNL     1      -8.377  -2.517  -0.527  1.00  0.00     0.020 C 
HETATM   19  C53 UNL     1      -7.149  -2.878  -3.285  1.00  0.00     0.051 C 
HETATM   20  O1  UNL     1      -8.092  -4.207   2.027  1.00  0.00    -0.297 OA
HETATM   21  O2  UNL     1      -4.750  -1.393  -4.490  1.00  0.00    -0.265 OA
HETATM   22  O3  UNL     1      -4.101  -2.740  -2.762  1.00  0.00    -0.312 OA
ENDROOT
BRANCH  11  23
HETATM   23  O4  UNL     1      -2.125   0.640  -1.071  1.00  0.00    -0.355 OA
BRANCH  23  24
HETATM   24  C17 UNL     1      -0.761   0.222  -0.981  1.00  0.00     0.263 C 
HETATM   25  C18 UNL     1      -0.036   1.286  -0.155  1.00  0.00     0.101 C 
HETATM   26  C19 UNL     1       1.457   0.934  -0.005  1.00  0.00     0.090 C 
HETATM   27  C20 UNL     1       2.034   0.771  -1.442  1.00  0.00     0.196 C 
HETATM   28  C38 UNL     1       2.140   2.064   0.780  1.00  0.00     0.049 C 
HETATM   29  C21 UNL     1       1.205  -0.271  -2.218  1.00  0.00     0.153 C 
HETATM   30  C22 UNL     1       1.686  -0.415  -3.659  1.00  0.00     0.042 C 
HETATM   31  O5  UNL     1      -0.170   0.126  -2.272  1.00  0.00    -0.354 OA
BRANCH  26  32
HETATM   32  O10 UNL     1       1.454  -0.277   0.785  1.00  0.00    -0.382 OA
HETATM   33  C39 UNL     1       2.700  -0.900   1.052  1.00  0.00     0.202 C 
ENDBRANCH  26  32
BRANCH  27  34
HETATM   34  O6  UNL     1       3.417   0.364  -1.433  1.00  0.00    -0.293 OA
BRANCH  34  35
HETATM   35  C23 UNL     1       4.339   1.339  -1.605  1.00  0.00     0.361 C 
HETATM   36  O7  UNL     1       4.099   2.526  -1.752  1.00  0.00    -0.239 OA
HETATM   37  N1  UNL     1       5.579   0.782  -1.559  1.00  0.00    -0.337 N 
HETATM   38  H88 UNL     1       5.620  -0.209  -1.371  1.00  0.00     0.164 HD
BRANCH  37  39
HETATM   39  C24 UNL     1       6.791   1.565  -1.595  1.00  0.00     0.125 C 
BRANCH  39  40
HETATM   40  C25 UNL     1       7.114   2.220  -0.251  1.00  0.00     0.020 C 
BRANCH  40  41
HETATM   41  C26 UNL     1       7.234   1.251   0.931  1.00  0.00     0.002 C 
BRANCH  41  42
HETATM   42  C27 UNL     1       8.258   0.126   0.764  1.00  0.00     0.009 C 
BRANCH  42  43
HETATM   43  C28 UNL     1       9.691   0.628   0.595  1.00  0.00     0.103 C 
BRANCH  43  44
HETATM   44  C29 UNL     1      10.685  -0.516   0.503  1.00  0.00     0.218 C 
HETATM   45  O8  UNL     1      10.359  -1.697   0.463  1.00  0.00    -0.274 OA
HETATM   46  N2  UNL     1      11.990  -0.086   0.454  1.00  0.00    -0.353 N 
HETATM   47  H89 UNL     1      12.192   0.905   0.471  1.00  0.00     0.163 HD
BRANCH  46  48
HETATM   48  C30 UNL     1      13.107  -1.010   0.339  1.00  0.00     0.113 C 
HETATM   49  C31 UNL     1      13.256  -1.526  -1.096  1.00  0.00     0.037 C 
BRANCH  48  50
HETATM   50  C32 UNL     1      14.366  -0.341   0.862  1.00  0.00    -0.036 A 
HETATM   51  C33 UNL     1      14.840  -0.663   2.146  1.00  0.00     0.012 A 
HETATM   52  C34 UNL     1      15.981  -0.046   2.666  1.00  0.00     0.037 A 
HETATM   53  C35 UNL     1      16.649   0.906   1.905  1.00  0.00     0.065 A 
HETATM   54  C36 UNL     1      16.194   1.251   0.639  1.00  0.00     0.037 A 
HETATM   55  C37 UNL     1      15.054   0.634   0.119  1.00  0.00     0.012 A 
BRANCH  53  56
HETATM   56  O9  UNL     1      17.765   1.535   2.372  1.00  0.00    -0.361 OA
HETATM   57  H84 UNL     1      17.974   1.182   3.252  1.00  0.00     0.217 HD
ENDBRANCH  53  56
ENDBRANCH  48  50
ENDBRANCH  46  48
ENDBRANCH  43  44
ENDBRANCH  42  43
ENDBRANCH  41  42
ENDBRANCH  40  41
ENDBRANCH  39  40
ENDBRANCH  37  39
ENDBRANCH  34  35
ENDBRANCH  27  34
ENDBRANCH  23  24
ENDBRANCH  11  23
BRANCH   9  58
HETATM   58  O11 UNL     1      -5.450   1.144   1.133  1.00  0.00    -0.350 OA
BRANCH  58  59
HETATM   59  C41 UNL     1      -5.009   2.407   1.665  1.00  0.00     0.291 C 
HETATM   60  C42 UNL     1      -6.276   3.177   2.100  1.00  0.00     0.206 C 
HETATM   61  C43 UNL     1      -5.881   4.584   2.618  1.00  0.00     0.257 C 
HETATM   62  C44 UNL     1      -4.979   5.283   1.581  1.00  0.00     0.070 C 
HETATM   63  C45 UNL     1      -3.799   4.386   1.205  1.00  0.00     0.122 C 
HETATM   64  C46 UNL     1      -2.942   5.028   0.122  1.00  0.00     0.040 C 
HETATM   65  O12 UNL     1      -4.278   3.143   0.694  1.00  0.00    -0.354 OA
BRANCH  60  66
HETATM   66  O13 UNL     1      -6.963   2.419   3.107  1.00  0.00    -0.388 OA
HETATM   67  H85 UNL     1      -7.123   1.545   2.702  1.00  0.00     0.210 HD
ENDBRANCH  60  66
BRANCH  61  68
HETATM   68  N3  UNL     1      -6.970   5.515   3.016  1.00  0.00     0.087 N 
HETATM   69  C47 UNL     1      -7.499   5.203   4.347  1.00  0.00     0.310 C 
HETATM   70  C48 UNL     1      -8.073   5.594   2.058  1.00  0.00     0.310 C 
ENDBRANCH  61  68
ENDBRANCH  58  59
ENDBRANCH   9  58
BRANCH   8  71
HETATM   71  O14 UNL     1      -3.451  -1.974   1.255  1.00  0.00    -0.383 OA
HETATM   72  C50 UNL     1      -2.126  -1.820   1.744  1.00  0.00     0.202 C 
ENDBRANCH   8  71
BRANCH   1  73
HETATM   73  C2  UNL     1      -3.931  -5.104  -3.100  1.00  0.00     0.031 C 
HETATM   74  C1  UNL     1      -2.636  -4.996  -3.902  1.00  0.00     0.007 C 
ENDBRANCH   1  73
BRANCH   2  75
HETATM   75  O16 UNL     1      -6.905  -5.217  -3.053  1.00  0.00    -0.385 OA
HETATM   76  H87 UNL     1      -6.378  -5.931  -2.652  1.00  0.00     0.210 HD
ENDBRANCH   2  75
BRANCH   3  77
HETATM   77  O15 UNL     1      -5.652  -5.204  -0.679  1.00  0.00    -0.392 OA
HETATM   78  H86 UNL     1      -6.376  -5.842  -0.537  1.00  0.00     0.210 HD
ENDBRANCH   3  77
TORSDOF 22
