REMARK  18 active torsions:
REMARK  status: ('A' for Active; 'I' for Inactive)
REMARK    1  A    between atoms: C3_3  and  C35_35 
REMARK    2  A    between atoms: C5_5  and  N2_47 
REMARK    3  A    between atoms: C6_6  and  C7_7 
REMARK       I    between atoms: C6_6  and  N2_47 
REMARK    4  A    between atoms: C9_9  and  N4_49 
REMARK       I    between atoms: C11_11  and  N4_49 
REMARK       I    between atoms: C11_11  and  N5_50 
REMARK    5  A    between atoms: C12_12  and  N5_50 
REMARK    6  A    between atoms: C14_14  and  C17_17 
REMARK       I    between atoms: C17_17  and  N7_52 
REMARK    7  A    between atoms: C18_18  and  N7_52 
REMARK    8  A    between atoms: C20_20  and  C23_23 
REMARK       I    between atoms: C23_23  and  N9_54 
REMARK    9  A    between atoms: C24_24  and  N9_54 
REMARK   10  A    between atoms: C28_28  and  S2_74 
REMARK   11  A    between atoms: C29_29  and  S1_73 
REMARK       I    between atoms: C35_35  and  N10_55 
REMARK   12  A    between atoms: C36_36  and  N10_55 
REMARK   13  A    between atoms: C40_40  and  S4_76 
REMARK   14  A    between atoms: C41_41  and  S3_75 
REMARK   15  A    between atoms: O7_62  and  S1_73 
REMARK   16  A    between atoms: O10_65  and  S2_74 
REMARK   17  A    between atoms: O14_69  and  S3_75 
REMARK   18  A    between atoms: O17_72  and  S4_76 
ROOT
HETATM    1  C11 UNL     1      -0.539  -0.317   0.392  1.00  0.00     0.327 C 
HETATM    2  N4  UNL     1       0.236  -0.335  -0.761  1.00  0.00    -0.294 N 
HETATM    3  N5  UNL     1      -1.847  -0.658   0.072  1.00  0.00    -0.294 N 
HETATM    4  O2  UNL     1      -0.133  -0.044   1.514  1.00  0.00    -0.247 OA
HETATM    5  H32 UNL     1      -0.059  -1.017  -1.448  1.00  0.00     0.172 HD
HETATM    6  H33 UNL     1      -2.136  -0.368  -0.853  1.00  0.00     0.172 HD
ENDROOT
BRANCH   2   7
HETATM    7  C9  UNL     1       1.569   0.039  -0.823  1.00  0.00     0.111 A 
HETATM    8  C10 UNL     1       2.494  -0.468  -1.716  1.00  0.00     0.067 A 
HETATM    9  C7  UNL     1       3.767   0.115  -1.452  1.00  0.00     0.051 A 
HETATM   10  C8  UNL     1       3.552   1.024  -0.430  1.00  0.00     0.109 A 
HETATM   11  N3  UNL     1       2.215   1.003  -0.084  1.00  0.00    -0.346 N 
HETATM   12  C34 UNL     1       1.639   1.986   0.811  1.00  0.00     0.157 C 
BRANCH   9  13
HETATM   13  C6  UNL     1       5.016  -0.187  -2.161  1.00  0.00     0.258 C 
HETATM   14  N2  UNL     1       6.144   0.326  -1.549  1.00  0.00    -0.309 N 
HETATM   15  H31 UNL     1       6.031   0.618  -0.587  1.00  0.00     0.170 HD
HETATM   16  O1  UNL     1       4.996  -0.877  -3.174  1.00  0.00    -0.267 OA
BRANCH  14  17
HETATM   17  C5  UNL     1       7.452   0.201  -1.987  1.00  0.00     0.110 A 
HETATM   18  C4  UNL     1       8.561   0.331  -1.172  1.00  0.00     0.067 A 
HETATM   19  C3  UNL     1       9.740   0.081  -1.932  1.00  0.00     0.051 A 
HETATM   20  C2  UNL     1       9.301  -0.137  -3.226  1.00  0.00     0.109 A 
HETATM   21  N1  UNL     1       7.924  -0.015  -3.263  1.00  0.00    -0.346 N 
HETATM   22  C1  UNL     1       7.199   0.030  -4.516  1.00  0.00     0.157 C 
BRANCH  19  23
HETATM   23  C35 UNL     1      11.112   0.087  -1.406  1.00  0.00     0.257 C 
HETATM   24  N10 UNL     1      12.068  -0.355  -2.303  1.00  0.00    -0.323 N 
HETATM   25  H36 UNL     1      11.725  -0.679  -3.195  1.00  0.00     0.169 HD
HETATM   26  O11 UNL     1      11.328   0.453  -0.256  1.00  0.00    -0.267 OA
BRANCH  24  27
HETATM   27  C36 UNL     1      13.461  -0.451  -2.108  1.00  0.00     0.035 A 
HETATM   28  C37 UNL     1      14.119  -0.058  -0.940  1.00  0.00     0.042 A 
HETATM   29  C38 UNL     1      15.516  -0.180  -0.813  1.00  0.00    -0.022 A 
HETATM   30  C39 UNL     1      16.177   0.213   0.362  1.00  0.00     0.039 A 
HETATM   31  C43 UNL     1      16.268  -0.706  -1.884  1.00  0.00    -0.024 A 
HETATM   32  C40 UNL     1      17.569   0.085   0.483  1.00  0.00     0.096 A 
HETATM   33  C41 UNL     1      18.315  -0.429  -0.582  1.00  0.00     0.096 A 
HETATM   34  C42 UNL     1      17.660  -0.828  -1.758  1.00  0.00     0.039 A 
HETATM   35  C44 UNL     1      15.604  -1.098  -3.054  1.00  0.00     0.014 A 
HETATM   36  C45 UNL     1      14.217  -0.971  -3.163  1.00  0.00     0.030 A 
BRANCH  32  37
HETATM   37  S4  UNL     1      18.325   0.655   1.979  1.00  0.00     0.131 S 
HETATM   38  O15 UNL     1      18.319  -0.430   2.930  1.00  0.00    -0.598 OA
HETATM   39  O16 UNL     1      19.523   1.389   1.622  1.00  0.00    -0.598 OA
BRANCH  37  40
HETATM   40  O17 UNL     1      17.302   1.746   2.580  1.00  0.00    -0.292 OA
HETATM   41  H40 UNL     1      17.213   1.572   3.543  1.00  0.00     0.232 HD
ENDBRANCH  37  40
ENDBRANCH  32  37
BRANCH  33  42
HETATM   42  S3  UNL     1      20.077  -0.663  -0.490  1.00  0.00     0.131 S 
HETATM   43  O12 UNL     1      20.495  -1.331  -1.704  1.00  0.00    -0.598 OA
HETATM   44  O13 UNL     1      20.366  -1.227   0.807  1.00  0.00    -0.598 OA
BRANCH  42  45
HETATM   45  O14 UNL     1      20.679   0.833  -0.531  1.00  0.00    -0.292 OA
HETATM   46  H39 UNL     1      20.619   1.227   0.378  1.00  0.00     0.232 HD
ENDBRANCH  42  45
ENDBRANCH  33  42
ENDBRANCH  24  27
ENDBRANCH  19  23
ENDBRANCH  14  17
ENDBRANCH   9  13
ENDBRANCH   2   7
BRANCH   3  47
HETATM   47  C12 UNL     1      -2.869  -0.823   0.993  1.00  0.00     0.111 A 
HETATM   48  C13 UNL     1      -4.208  -0.596   0.741  1.00  0.00     0.067 A 
HETATM   49  C14 UNL     1      -4.956  -0.827   1.934  1.00  0.00     0.051 A 
HETATM   50  C15 UNL     1      -4.031  -1.252   2.872  1.00  0.00     0.109 A 
HETATM   51  N6  UNL     1      -2.780  -1.291   2.284  1.00  0.00    -0.346 N 
HETATM   52  C16 UNL     1      -1.640  -1.893   2.945  1.00  0.00     0.157 C 
BRANCH  49  53
HETATM   53  C17 UNL     1      -6.408  -0.653   2.075  1.00  0.00     0.258 C 
HETATM   54  N7  UNL     1      -6.874  -0.797   3.373  1.00  0.00    -0.309 N 
HETATM   55  H34 UNL     1      -6.195  -0.966   4.098  1.00  0.00     0.170 HD
HETATM   56  O3  UNL     1      -7.097  -0.394   1.093  1.00  0.00    -0.267 OA
BRANCH  54  57
HETATM   57  C18 UNL     1      -8.208  -0.684   3.727  1.00  0.00     0.110 A 
HETATM   58  C19 UNL     1      -9.335  -0.450   2.961  1.00  0.00     0.067 A 
HETATM   59  C20 UNL     1     -10.481  -0.424   3.812  1.00  0.00     0.051 A 
HETATM   60  C21 UNL     1      -9.994  -0.653   5.089  1.00  0.00     0.109 A 
HETATM   61  N8  UNL     1      -8.635  -0.807   5.030  1.00  0.00    -0.346 N 
HETATM   62  C22 UNL     1      -7.801  -1.057   6.186  1.00  0.00     0.157 C 
BRANCH  59  63
HETATM   63  C23 UNL     1     -11.903  -0.213   3.506  1.00  0.00     0.257 C 
HETATM   64  N9  UNL     1     -12.159   0.039   2.170  1.00  0.00    -0.323 N 
HETATM   65  H35 UNL     1     -11.358   0.062   1.556  1.00  0.00     0.169 HD
HETATM   66  O4  UNL     1     -12.746  -0.264   4.395  1.00  0.00    -0.267 OA
BRANCH  64  67
HETATM   67  C24 UNL     1     -13.407   0.279   1.557  1.00  0.00     0.035 A 
HETATM   68  C25 UNL     1     -13.404   0.517   0.175  1.00  0.00     0.042 A 
HETATM   69  C26 UNL     1     -14.596   0.766  -0.529  1.00  0.00    -0.022 A 
HETATM   70  C27 UNL     1     -14.593   1.004  -1.913  1.00  0.00     0.039 A 
HETATM   71  C31 UNL     1     -15.820   0.778   0.170  1.00  0.00    -0.024 A 
HETATM   72  C28 UNL     1     -15.789   1.248  -2.606  1.00  0.00     0.096 A 
HETATM   73  C29 UNL     1     -17.001   1.267  -1.909  1.00  0.00     0.096 A 
HETATM   74  C30 UNL     1     -17.013   1.027  -0.527  1.00  0.00     0.039 A 
HETATM   75  C32 UNL     1     -15.818   0.539   1.551  1.00  0.00     0.014 A 
HETATM   76  C33 UNL     1     -14.623   0.292   2.236  1.00  0.00     0.030 A 
BRANCH  72  77
HETATM   77  S2  UNL     1     -15.687   1.586  -4.351  1.00  0.00     0.131 S 
HETATM   78  O8  UNL     1     -14.285   1.618  -4.710  1.00  0.00    -0.598 OA
HETATM   79  O9  UNL     1     -16.549   2.713  -4.619  1.00  0.00    -0.598 OA
BRANCH  77  80
HETATM   80  O10 UNL     1     -16.334   0.283  -5.047  1.00  0.00    -0.292 OA
HETATM   81  H38 UNL     1     -17.322   0.368  -5.026  1.00  0.00     0.232 HD
ENDBRANCH  77  80
ENDBRANCH  72  77
BRANCH  73  82
HETATM   82  S1  UNL     1     -18.555   1.516  -2.719  1.00  0.00     0.131 S 
HETATM   83  O5  UNL     1     -18.541   0.763  -3.957  1.00  0.00    -0.598 OA
HETATM   84  O6  UNL     1     -18.878   2.921  -2.656  1.00  0.00    -0.598 OA
BRANCH  82  85
HETATM   85  O7  UNL     1     -19.644   0.791  -1.776  1.00  0.00    -0.292 OA
HETATM   86  H37 UNL     1     -20.448   1.356  -1.762  1.00  0.00     0.232 HD
ENDBRANCH  82  85
ENDBRANCH  73  82
ENDBRANCH  64  67
ENDBRANCH  59  63
ENDBRANCH  54  57
ENDBRANCH  49  53
ENDBRANCH   3  47
TORSDOF 18
