REMARK  0 active torsions:
REMARK  status: ('A' for Active; 'I' for Inactive)
REMARK       I    between atoms: C2_2  and  C3_3 
REMARK       I    between atoms: C2_2  and  N2_59 
REMARK       I    between atoms: C5_5  and  C6_6 
REMARK       I    between atoms: C5_5  and  N2_59 
REMARK       I    between atoms: C6_6  and  C7_7 
REMARK       I    between atoms: C7_7  and  O1_82 
REMARK       I    between atoms: C8_8  and  O1_82 
REMARK       I    between atoms: C9_9  and  C45_45 
REMARK       I    between atoms: C11_11  and  C14_14 
REMARK       I    between atoms: C14_14  and  N3_60 
REMARK       I    between atoms: C15_15  and  C16_16 
REMARK       I    between atoms: C15_15  and  N3_60 
REMARK       I    between atoms: C16_16  and  C17_17 
REMARK       I    between atoms: C17_17  and  C18_18 
REMARK       I    between atoms: C18_18  and  C19_19 
REMARK       I    between atoms: C19_19  and  C20_20 
REMARK       I    between atoms: C20_20  and  C21_21 
REMARK       I    between atoms: C21_21  and  C22_22 
REMARK       I    between atoms: C22_22  and  N4_61 
REMARK       I    between atoms: C23_23  and  C24_24 
REMARK       I    between atoms: C23_23  and  N4_61 
REMARK       I    between atoms: C26_26  and  C33_33 
REMARK       I    between atoms: C27_27  and  O4_85 
REMARK       I    between atoms: C30_30  and  C31_31 
REMARK       I    between atoms: C30_30  and  O4_85 
REMARK       I    between atoms: C31_31  and  N5_62 
REMARK       I    between atoms: C32_32  and  N6_64 
REMARK       I    between atoms: C32_32  and  N7_65 
REMARK       I    between atoms: C34_34  and  O6_87 
REMARK       I    between atoms: C35_35  and  O5_86 
REMARK       I    between atoms: C39_39  and  C40_40 
REMARK       I    between atoms: C39_39  and  O5_86 
REMARK       I    between atoms: C40_40  and  N8_66 
REMARK       I    between atoms: C41_41  and  N9_68 
REMARK       I    between atoms: C41_41  and  N10_69 
REMARK       I    between atoms: C42_42  and  C43_43 
REMARK       I    between atoms: C42_42  and  O6_87 
REMARK       I    between atoms: C43_43  and  N11_70 
REMARK       I    between atoms: C44_44  and  N12_72 
REMARK       I    between atoms: C44_44  and  N13_73 
REMARK       I    between atoms: C46_46  and  O8_89 
REMARK       I    between atoms: C47_47  and  O7_88 
REMARK       I    between atoms: C51_51  and  C52_52 
REMARK       I    between atoms: C51_51  and  O7_88 
REMARK       I    between atoms: C52_52  and  N14_74 
REMARK       I    between atoms: C53_53  and  N15_76 
REMARK       I    between atoms: C53_53  and  N16_77 
REMARK       I    between atoms: C54_54  and  C55_55 
REMARK       I    between atoms: C54_54  and  O8_89 
REMARK       I    between atoms: C55_55  and  N17_78 
REMARK       I    between atoms: C56_56  and  N18_80 
REMARK       I    between atoms: C56_56  and  N19_81 
ROOT
HETATM    1  C1  UNL     1      -7.492   6.322  -1.026  1.00  0.00     0.049 C 
HETATM    2  C2  UNL     1      -7.581   6.088   0.479  1.00  0.00     0.260 C 
HETATM    3  C3  UNL     1      -6.460   6.787   1.272  1.00  0.00     0.009 C 
HETATM    4  C4  UNL     1      -6.020   8.169   0.874  1.00  0.00     0.065 C 
HETATM    5  C5  UNL     1      -6.596   3.822   0.241  1.00  0.00     0.272 C 
HETATM    6  C6  UNL     1      -6.645   2.426   0.855  1.00  0.00     0.056 C 
HETATM    7  C7  UNL     1      -5.552   1.530   0.280  1.00  0.00     0.177 C 
HETATM    8  C8  UNL     1      -4.513  -0.449   0.873  1.00  0.00     0.080 A 
HETATM    9  C9  UNL     1      -4.003  -1.102  -0.262  1.00  0.00     0.011 A 
HETATM   10  C10 UNL     1      -2.760  -1.752  -0.133  1.00  0.00     0.024 A 
HETATM   11  C11 UNL     1      -2.060  -1.779   1.084  1.00  0.00    -0.040 A 
HETATM   12  C12 UNL     1      -2.612  -1.139   2.200  1.00  0.00     0.011 A 
HETATM   13  C13 UNL     1      -3.838  -0.487   2.097  1.00  0.00     0.038 A 
HETATM   14  C14 UNL     1      -0.703  -2.430   1.168  1.00  0.00     0.161 C 
HETATM   15  C15 UNL     1       0.862  -1.069  -0.158  1.00  0.00     0.217 C 
HETATM   16  C16 UNL     1       1.727   0.169  -0.087  1.00  0.00     0.103 C 
HETATM   17  C17 UNL     1       0.869   1.431  -0.051  1.00  0.00     0.009 C 
HETATM   18  C18 UNL     1       1.689   2.717   0.079  1.00  0.00     0.000 C 
HETATM   19  C19 UNL     1       2.480   2.890   1.382  1.00  0.00     0.000 C 
HETATM   20  C20 UNL     1       1.717   3.555   2.534  1.00  0.00     0.009 C 
HETATM   21  C21 UNL     1       0.590   2.740   3.163  1.00  0.00     0.103 C 
HETATM   22  C22 UNL     1       1.025   1.384   3.683  1.00  0.00     0.217 C 
HETATM   23  C23 UNL     1       2.513   0.248   5.289  1.00  0.00     0.161 C 
HETATM   24  C24 UNL     1       3.873   0.009   4.688  1.00  0.00    -0.040 A 
HETATM   25  C25 UNL     1       3.992  -0.670   3.463  1.00  0.00     0.024 A 
HETATM   26  C26 UNL     1       5.241  -0.886   2.855  1.00  0.00     0.011 A 
HETATM   27  C27 UNL     1       6.383  -0.416   3.521  1.00  0.00     0.080 A 
HETATM   28  C28 UNL     1       6.281   0.283   4.727  1.00  0.00     0.038 A 
HETATM   29  C29 UNL     1       5.031   0.492   5.309  1.00  0.00     0.011 A 
HETATM   30  C30 UNL     1       8.346  -1.649   3.548  1.00  0.00     0.195 C 
HETATM   31  C31 UNL     1       9.623  -1.871   2.735  1.00  0.00     0.148 C 
HETATM   32  C32 UNL     1      10.731   0.233   2.880  1.00  0.00     0.121 C 
HETATM   33  C33 UNL     1       5.299  -1.619   1.577  1.00  0.00     0.013 A 
HETATM   34  C34 UNL     1       5.189  -0.971   0.324  1.00  0.00     0.113 A 
HETATM   35  C35 UNL     1       5.088  -1.740  -0.848  1.00  0.00     0.103 A 
HETATM   36  C36 UNL     1       5.238  -3.131  -0.787  1.00  0.00     0.040 A 
HETATM   37  C37 UNL     1       5.400  -3.770   0.438  1.00  0.00     0.004 A 
HETATM   38  C38 UNL     1       5.409  -3.022   1.611  1.00  0.00     0.015 A 
HETATM   39  C39 UNL     1       3.838  -1.664  -2.871  1.00  0.00     0.195 C 
HETATM   40  C40 UNL     1       4.435  -2.250  -4.153  1.00  0.00     0.148 C 
HETATM   41  C41 UNL     1       5.926  -0.605  -4.984  1.00  0.00     0.121 C 
HETATM   42  C42 UNL     1       5.817   1.172  -0.584  1.00  0.00     0.195 C 
HETATM   43  C43 UNL     1       7.341   1.016  -0.474  1.00  0.00     0.148 C 
HETATM   44  C44 UNL     1       9.052  -0.307  -1.430  1.00  0.00     0.121 C 
HETATM   45  C45 UNL     1      -4.686  -1.126  -1.571  1.00  0.00     0.013 A 
HETATM   46  C46 UNL     1      -5.860  -1.881  -1.808  1.00  0.00     0.113 A 
HETATM   47  C47 UNL     1      -6.422  -1.942  -3.102  1.00  0.00     0.103 A 
HETATM   48  C48 UNL     1      -5.839  -1.202  -4.136  1.00  0.00     0.040 A 
HETATM   49  C49 UNL     1      -4.702  -0.429  -3.903  1.00  0.00     0.004 A 
HETATM   50  C50 UNL     1      -4.126  -0.401  -2.637  1.00  0.00     0.015 A 
HETATM   51  C51 UNL     1      -8.148  -2.876  -4.538  1.00  0.00     0.195 C 
HETATM   52  C52 UNL     1      -7.486  -3.917  -5.446  1.00  0.00     0.148 C 
HETATM   53  C53 UNL     1      -7.470  -5.928  -4.187  1.00  0.00     0.121 C 
HETATM   54  C54 UNL     1      -7.746  -2.641  -0.495  1.00  0.00     0.195 C 
HETATM   55  C55 UNL     1      -8.458  -1.283  -0.561  1.00  0.00     0.148 C 
HETATM   56  C56 UNL     1      -9.303  -0.957   1.619  1.00  0.00     0.121 C 
HETATM   57  N1  UNL     1      -5.923   6.225   2.314  1.00  0.00    -0.404 N 
ATOM     58  H1  UNL     1      -5.186   6.606   2.908  1.00  0.00     0.155 HD
HETATM   59  N2  UNL     1      -7.629   4.657   0.866  1.00  0.00     0.093 N 
HETATM   60  N3  UNL     1       0.334  -1.436   1.058  1.00  0.00    -0.357 N 
HETATM   61  N4  UNL     1       1.907   1.438   4.736  1.00  0.00    -0.357 N 
HETATM   62  N5  UNL     1      10.726  -1.008   3.181  1.00  0.00    -0.370 N 
ATOM     63  H5  UNL     1      11.489  -1.401   3.732  1.00  0.00     0.161 HD
HETATM   64  N6  UNL     1      11.772   1.012   3.241  1.00  0.00    -0.279 NA
HETATM   65  N7  UNL     1       9.813   0.968   2.213  1.00  0.00    -0.279 NA
HETATM   66  N8  UNL     1       4.803  -1.202  -5.115  1.00  0.00    -0.370 N 
ATOM     67  H8  UNL     1       4.171  -0.954  -5.877  1.00  0.00     0.161 HD
HETATM   68  N9  UNL     1       6.300   0.324  -5.890  1.00  0.00    -0.279 NA
HETATM   69  N10 UNL     1       6.889  -0.749  -4.045  1.00  0.00    -0.279 NA
HETATM   70  N11 UNL     1       7.820   0.030  -1.444  1.00  0.00    -0.370 N 
ATOM     71  H11 UNL     1       7.179  -0.382  -2.122  1.00  0.00     0.161 HD
HETATM   72  N12 UNL     1      10.071   0.111  -0.650  1.00  0.00    -0.279 NA
HETATM   73  N13 UNL     1       9.505  -1.208  -2.330  1.00  0.00    -0.279 NA
HETATM   74  N14 UNL     1      -7.977  -5.269  -5.158  1.00  0.00    -0.370 N 
ATOM     75  H14 UNL     1      -8.717  -5.680  -5.728  1.00  0.00     0.161 HD
HETATM   76  N15 UNL     1      -6.520  -5.579  -3.293  1.00  0.00    -0.279 NA
HETATM   77  N16 UNL     1      -7.883  -7.191  -3.947  1.00  0.00    -0.279 NA
HETATM   78  N17 UNL     1      -9.571  -1.200   0.392  1.00  0.00    -0.370 N 
ATOM     79  H17 UNL     1     -10.534  -1.333   0.084  1.00  0.00     0.161 HD
HETATM   80  N18 UNL     1     -10.311  -0.868   2.514  1.00  0.00    -0.279 NA
HETATM   81  N19 UNL     1      -8.119  -0.789   2.246  1.00  0.00    -0.279 NA
HETATM   82  O1  UNL     1      -5.706   0.228   0.865  1.00  0.00    -0.350 OA
HETATM   83  O2  UNL     1       0.645  -1.660  -1.211  1.00  0.00    -0.274 OA
HETATM   84  O3  UNL     1       0.600   0.335   3.206  1.00  0.00    -0.274 OA
HETATM   85  O4  UNL     1       7.623  -0.556   2.954  1.00  0.00    -0.349 OA
HETATM   86  O5  UNL     1       4.879  -1.114  -2.047  1.00  0.00    -0.347 OA
HETATM   87  O6  UNL     1       5.074   0.398   0.368  1.00  0.00    -0.346 OA
HETATM   88  O7  UNL     1      -7.481  -2.792  -3.274  1.00  0.00    -0.347 OA
HETATM   89  O8  UNL     1      -6.331  -2.597  -0.733  1.00  0.00    -0.346 OA
HETATM   90  H62 UNL     1      -6.398   5.309   2.417  1.00  0.00     0.155 HD
HETATM   91  H63 UNL     1      -8.545   4.282   0.610  1.00  0.00     0.316 HD
HETATM   92  H64 UNL     1       0.434  -0.788   1.842  1.00  0.00     0.162 HD
HETATM   93  H65 UNL     1       2.326   2.325   4.977  1.00  0.00     0.162 HD
HETATM   94  H66 UNL     1      12.111   1.588   2.480  1.00  0.00     0.126 HD
HETATM   95  H67 UNL     1      12.523   0.433   3.606  1.00  0.00     0.126 HD
HETATM   96  H68 UNL     1       8.886   0.540   2.276  1.00  0.00     0.126 HD
HETATM   97  H69 UNL     1       9.753   1.906   2.600  1.00  0.00     0.126 HD
HETATM   98  H70 UNL     1       5.662   0.300  -6.679  1.00  0.00     0.126 HD
HETATM   99  H71 UNL     1       7.255   0.192  -6.195  1.00  0.00     0.126 HD
HETATM  100  H72 UNL     1       7.266   0.155  -3.767  1.00  0.00     0.126 HD
HETATM  101  H73 UNL     1       6.514  -1.135  -3.175  1.00  0.00     0.126 HD
HETATM  102  H74 UNL     1      10.701  -0.648  -0.414  1.00  0.00     0.126 HD
HETATM  103  H75 UNL     1       9.792   0.576   0.213  1.00  0.00     0.126 HD
HETATM  104  H76 UNL     1       8.793  -1.399  -3.034  1.00  0.00     0.126 HD
HETATM  105  H77 UNL     1      10.370  -0.919  -2.768  1.00  0.00     0.126 HD
HETATM  106  H78 UNL     1      -6.710  -5.954  -2.371  1.00  0.00     0.126 HD
HETATM  107  H79 UNL     1      -6.396  -4.573  -3.212  1.00  0.00     0.126 HD
HETATM  108  H80 UNL     1      -8.461  -7.511  -4.718  1.00  0.00     0.126 HD
HETATM  109  H81 UNL     1      -7.103  -7.821  -3.801  1.00  0.00     0.126 HD
HETATM  110  H82 UNL     1     -11.175  -1.179   2.082  1.00  0.00     0.126 HD
HETATM  111  H83 UNL     1     -10.118  -1.406   3.350  1.00  0.00     0.126 HD
HETATM  112  H84 UNL     1      -8.148  -0.057   2.945  1.00  0.00     0.126 HD
HETATM  113  H85 UNL     1      -7.313  -0.654   1.637  1.00  0.00     0.126 HD
ENDROOT
TORSDOF 40
