REMARK  0 active torsions:
REMARK  status: ('A' for Active; 'I' for Inactive)
REMARK       I    between atoms: C3_3  and  C4_4 
REMARK       I    between atoms: C3_3  and  N1_65 
REMARK       I    between atoms: C4_4  and  N2_66 
REMARK       I    between atoms: C5_5  and  C6_6 
REMARK       I    between atoms: C5_5  and  N2_66 
REMARK       I    between atoms: C7_7  and  O12_88 
REMARK       I    between atoms: C9_9  and  O11_87 
REMARK       I    between atoms: C10_10  and  C12_12 
REMARK       I    between atoms: C12_12  and  N3_67 
REMARK       I    between atoms: C13_13  and  N3_67 
REMARK       I    between atoms: C16_16  and  N4_68 
REMARK       I    between atoms: C19_19  and  C20_20 
REMARK       I    between atoms: C19_19  and  N4_68 
REMARK       I    between atoms: C22_22  and  C26_26 
REMARK       I    between atoms: C23_23  and  O5_81 
REMARK       I    between atoms: C25_25  and  O4_80 
REMARK       I    between atoms: C26_26  and  N5_69 
REMARK       I    between atoms: C27_27  and  N5_69 
REMARK       I    between atoms: C30_30  and  N6_70 
REMARK       I    between atoms: C33_33  and  C34_34 
REMARK       I    between atoms: C33_33  and  N6_70 
REMARK       I    between atoms: C36_36  and  C50_50 
REMARK       I    between atoms: C37_37  and  O9_85 
REMARK       I    between atoms: C39_39  and  O8_84 
REMARK       I    between atoms: C40_40  and  C41_41 
REMARK       I    between atoms: C40_40  and  O8_84 
REMARK       I    between atoms: C41_41  and  C42_42 
REMARK       I    between atoms: C42_42  and  C43_43 
REMARK       I    between atoms: C43_43  and  C44_44 
REMARK       I    between atoms: C44_44  and  N7_71 
REMARK       I    between atoms: C45_45  and  C46_46 
REMARK       I    between atoms: C45_45  and  O9_85 
REMARK       I    between atoms: C46_46  and  C47_47 
REMARK       I    between atoms: C47_47  and  C48_48 
REMARK       I    between atoms: C48_48  and  C49_49 
REMARK       I    between atoms: C49_49  and  N8_72 
REMARK       I    between atoms: C50_50  and  N9_73 
REMARK       I    between atoms: C51_51  and  C52_52 
REMARK       I    between atoms: C51_51  and  N9_73 
REMARK       I    between atoms: C52_52  and  N10_74 
REMARK       I    between atoms: C55_55  and  C56_56 
REMARK       I    between atoms: C55_55  and  O11_87 
REMARK       I    between atoms: C56_56  and  C57_57 
REMARK       I    between atoms: C57_57  and  C58_58 
REMARK       I    between atoms: C58_58  and  C59_59 
REMARK       I    between atoms: C59_59  and  N11_75 
REMARK       I    between atoms: C60_60  and  C61_61 
REMARK       I    between atoms: C60_60  and  O12_88 
REMARK       I    between atoms: C61_61  and  C62_62 
REMARK       I    between atoms: C62_62  and  C63_63 
REMARK       I    between atoms: C63_63  and  C64_64 
REMARK       I    between atoms: C64_64  and  N12_76 
ROOT
HETATM    1  C1  UNL     1     -16.242  -1.700   0.664  1.00  0.00     0.309 C 
HETATM    2  C2  UNL     1     -18.345  -0.792   1.355  1.00  0.00     0.309 C 
HETATM    3  C3  UNL     1     -16.684  -1.265   3.029  1.00  0.00     0.291 C 
HETATM    4  C4  UNL     1     -15.634  -2.218   3.639  1.00  0.00     0.153 C 
HETATM    5  C5  UNL     1     -13.515  -0.948   3.486  1.00  0.00     0.254 C 
HETATM    6  C6  UNL     1     -12.164  -0.806   2.842  1.00  0.00     0.066 A 
HETATM    7  C7  UNL     1     -11.654  -1.648   1.837  1.00  0.00     0.087 A 
HETATM    8  C8  UNL     1     -10.373  -1.389   1.324  1.00  0.00     0.075 A 
HETATM    9  C9  UNL     1      -9.594  -0.302   1.762  1.00  0.00     0.087 A 
HETATM   10  C10 UNL     1     -10.098   0.532   2.775  1.00  0.00     0.066 A 
HETATM   11  C11 UNL     1     -11.376   0.267   3.298  1.00  0.00     0.040 A 
HETATM   12  C12 UNL     1      -9.366   1.692   3.390  1.00  0.00     0.254 C 
HETATM   13  C13 UNL     1      -7.233   2.921   3.632  1.00  0.00     0.084 C 
HETATM   14  C14 UNL     1      -6.163   3.498   2.705  1.00  0.00     0.027 C 
HETATM   15  C15 UNL     1      -5.070   2.504   2.304  1.00  0.00     0.027 C 
HETATM   16  C16 UNL     1      -5.016   1.246   3.177  1.00  0.00     0.084 C 
HETATM   17  C17 UNL     1      -5.256   1.593   4.644  1.00  0.00     0.027 C 
HETATM   18  C18 UNL     1      -6.607   2.275   4.882  1.00  0.00     0.027 C 
HETATM   19  C19 UNL     1      -3.641  -0.807   3.010  1.00  0.00     0.254 C 
HETATM   20  C20 UNL     1      -2.278  -1.406   2.961  1.00  0.00     0.066 A 
HETATM   21  C21 UNL     1      -1.173  -0.686   2.488  1.00  0.00     0.039 A 
HETATM   22  C22 UNL     1       0.113  -1.262   2.463  1.00  0.00     0.066 A 
HETATM   23  C23 UNL     1       0.273  -2.585   2.904  1.00  0.00     0.084 A 
HETATM   24  C24 UNL     1      -0.826  -3.318   3.356  1.00  0.00     0.075 A 
HETATM   25  C25 UNL     1      -2.091  -2.733   3.375  1.00  0.00     0.084 A 
HETATM   26  C26 UNL     1       1.224  -0.395   1.951  1.00  0.00     0.254 C 
HETATM   27  C27 UNL     1       3.642  -0.233   1.420  1.00  0.00     0.084 C 
HETATM   28  C28 UNL     1       3.700  -0.484  -0.092  1.00  0.00     0.027 C 
HETATM   29  C29 UNL     1       4.934   0.155  -0.724  1.00  0.00     0.027 C 
HETATM   30  C30 UNL     1       6.222  -0.313  -0.041  1.00  0.00     0.084 C 
HETATM   31  C31 UNL     1       6.167  -0.053   1.470  1.00  0.00     0.027 C 
HETATM   32  C32 UNL     1       4.934  -0.691   2.104  1.00  0.00     0.027 C 
HETATM   33  C33 UNL     1       8.636  -0.212  -0.588  1.00  0.00     0.254 C 
HETATM   34  C34 UNL     1       9.753   0.674  -1.002  1.00  0.00     0.066 A 
HETATM   35  C35 UNL     1      10.921   0.643  -0.233  1.00  0.00     0.040 A 
HETATM   36  C36 UNL     1      12.007   1.482  -0.536  1.00  0.00     0.066 A 
HETATM   37  C37 UNL     1      11.925   2.359  -1.640  1.00  0.00     0.087 A 
HETATM   38  C38 UNL     1      10.757   2.368  -2.415  1.00  0.00     0.075 A 
HETATM   39  C39 UNL     1       9.689   1.510  -2.118  1.00  0.00     0.087 A 
HETATM   40  C40 UNL     1       8.872   1.189  -4.276  1.00  0.00     0.175 C 
HETATM   41  C41 UNL     1       7.697   0.445  -4.910  1.00  0.00     0.027 C 
HETATM   42  C42 UNL     1       7.312  -0.866  -4.215  1.00  0.00     0.004 C 
HETATM   43  C43 UNL     1       8.462  -1.874  -4.115  1.00  0.00     0.030 C 
HETATM   44  C44 UNL     1       8.017  -3.261  -3.641  1.00  0.00     0.267 C 
HETATM   45  C45 UNL     1      13.057   3.975  -3.060  1.00  0.00     0.175 C 
HETATM   46  C46 UNL     1      13.441   3.216  -4.333  1.00  0.00     0.027 C 
HETATM   47  C47 UNL     1      14.837   2.581  -4.294  1.00  0.00     0.004 C 
HETATM   48  C48 UNL     1      14.875   1.219  -3.595  1.00  0.00     0.030 C 
HETATM   49  C49 UNL     1      16.266   0.589  -3.681  1.00  0.00     0.267 C 
HETATM   50  C50 UNL     1      13.202   1.363   0.364  1.00  0.00     0.254 C 
HETATM   51  C51 UNL     1      15.369   2.319   1.077  1.00  0.00     0.153 C 
HETATM   52  C52 UNL     1      16.400   1.416   0.373  1.00  0.00     0.291 C 
HETATM   53  C53 UNL     1      18.696   0.746   0.101  1.00  0.00     0.309 C 
HETATM   54  C54 UNL     1      17.782   0.910   2.308  1.00  0.00     0.309 C 
HETATM   55  C55 UNL     1      -7.809  -0.867   0.240  1.00  0.00     0.175 C 
HETATM   56  C56 UNL     1      -6.556  -0.222  -0.343  1.00  0.00     0.027 C 
HETATM   57  C57 UNL     1      -6.779   1.154  -0.987  1.00  0.00     0.004 C 
HETATM   58  C58 UNL     1      -7.649   1.138  -2.250  1.00  0.00     0.030 C 
HETATM   59  C59 UNL     1      -9.118   1.471  -1.978  1.00  0.00     0.267 C 
HETATM   60  C60 UNL     1     -12.069  -3.554   0.351  1.00  0.00     0.175 C 
HETATM   61  C61 UNL     1     -12.733  -3.172  -0.973  1.00  0.00     0.027 C 
HETATM   62  C62 UNL     1     -12.244  -1.841  -1.545  1.00  0.00     0.004 C 
HETATM   63  C63 UNL     1     -12.760  -1.527  -2.956  1.00  0.00     0.030 C 
HETATM   64  C64 UNL     1     -14.250  -1.190  -3.044  1.00  0.00     0.267 C 
HETATM   65  N1  UNL     1     -17.249  -1.691   1.727  1.00  0.00     0.081 N 
HETATM   66  N2  UNL     1     -14.290  -2.026   3.128  1.00  0.00    -0.355 N 
HETATM   67  N3  UNL     1      -8.100   1.985   2.926  1.00  0.00    -0.352 N 
HETATM   68  N4  UNL     1      -3.738   0.569   3.001  1.00  0.00    -0.352 N 
HETATM   69  N5  UNL     1       2.498  -0.907   2.008  1.00  0.00    -0.352 N 
HETATM   70  N6  UNL     1       7.376   0.344  -0.630  1.00  0.00    -0.352 N 
HETATM   71  N7  UNL     1       7.461  -3.268  -2.295  1.00  0.00     0.078 N 
HETATM   72  N8  UNL     1      16.258  -0.729  -3.061  1.00  0.00     0.078 N 
HETATM   73  N9  UNL     1      14.119   2.388   0.343  1.00  0.00    -0.355 N 
HETATM   74  N10 UNL     1      17.755   1.476   0.955  1.00  0.00     0.081 N 
HETATM   75  N11 UNL     1      -9.887   1.465  -3.219  1.00  0.00     0.078 N 
HETATM   76  N12 UNL     1     -15.094  -2.374  -2.944  1.00  0.00     0.078 N 
HETATM   77  O1  UNL     1     -13.903  -0.117   4.302  1.00  0.00    -0.268 OA
HETATM   78  O2  UNL     1      -9.885   2.332   4.301  1.00  0.00    -0.268 OA
HETATM   79  O3  UNL     1      -4.612  -1.557   3.084  1.00  0.00    -0.268 OA
HETATM   80  O4  UNL     1      -3.112  -3.533   3.817  1.00  0.00    -0.360 OA
HETATM   81  O5  UNL     1       1.503  -3.191   2.888  1.00  0.00    -0.360 OA
HETATM   82  O6  UNL     1       0.972   0.722   1.509  1.00  0.00    -0.268 OA
HETATM   83  O7  UNL     1       8.868  -1.349  -0.196  1.00  0.00    -0.268 OA
HETATM   84  O8  UNL     1       8.567   1.500  -2.909  1.00  0.00    -0.350 OA
HETATM   85  O9  UNL     1      13.015   3.148  -1.900  1.00  0.00    -0.350 OA
HETATM   86  O10 UNL     1      13.332   0.381   1.089  1.00  0.00    -0.268 OA
HETATM   87  O11 UNL     1      -8.363   0.000   1.232  1.00  0.00    -0.350 OA
HETATM   88  O12 UNL     1     -12.456  -2.669   1.403  1.00  0.00    -0.350 OA
HETATM   89  H87 UNL     1     -13.948  -2.648   2.404  1.00  0.00     0.162 HD
HETATM   90  H88 UNL     1      -7.712   1.353   2.234  1.00  0.00     0.163 HD
HETATM   91  H89 UNL     1      -2.905   1.123   3.157  1.00  0.00     0.163 HD
HETATM   92  H90 UNL     1       2.589  -1.884   2.280  1.00  0.00     0.163 HD
HETATM   93  H91 UNL     1       7.292   1.310  -0.927  1.00  0.00     0.163 HD
HETATM   94  H92 UNL     1       6.663  -2.639  -2.243  1.00  0.00     0.312 HD
HETATM   95  H93 UNL     1       8.142  -2.872  -1.633  1.00  0.00     0.312 HD
HETATM   96  H94 UNL     1      15.951  -0.661  -2.090  1.00  0.00     0.312 HD
HETATM   97  H95 UNL     1      17.205  -1.105  -3.038  1.00  0.00     0.312 HD
HETATM   98  H96 UNL     1      14.015   3.103  -0.369  1.00  0.00     0.162 HD
HETATM   99  H97 UNL     1      -9.753   0.581  -3.706  1.00  0.00     0.312 HD
HETATM  100  H98 UNL     1      -9.528   2.186  -3.844  1.00  0.00     0.312 HD
HETATM  101  H99 UNL     1     -16.071  -2.099  -3.043  1.00  0.00     0.312 HD
HETATM  102  HA0 UNL     1     -14.898  -3.000  -3.724  1.00  0.00     0.312 HD
HETATM  103  HA1 UNL     1      -3.959  -3.051   3.677  1.00  0.00     0.217 HD
HETATM  104  HA2 UNL     1       1.414  -4.099   3.231  1.00  0.00     0.217 HD
ENDROOT
TORSDOF 46
