REMARK  14 active torsions:
REMARK  status: ('A' for Active; 'I' for Inactive)
REMARK    1  A    between atoms: C3_3  and  C35_35 
REMARK    2  A    between atoms: C5_5  and  N2_47 
REMARK    3  A    between atoms: C6_6  and  C7_7 
REMARK       I    between atoms: C6_6  and  N2_47 
REMARK    4  A    between atoms: C9_9  and  N4_49 
REMARK       I    between atoms: C11_11  and  N4_49 
REMARK       I    between atoms: C11_11  and  N5_50 
REMARK    5  A    between atoms: C12_12  and  N5_50 
REMARK    6  A    between atoms: C14_14  and  C17_17 
REMARK       I    between atoms: C17_17  and  N7_52 
REMARK    7  A    between atoms: C18_18  and  N7_52 
REMARK    8  A    between atoms: C20_20  and  C23_23 
REMARK       I    between atoms: C23_23  and  N9_54 
REMARK    9  A    between atoms: C24_24  and  N9_54 
REMARK   10  A    between atoms: C27_27  and  S1_73 
REMARK   11  A    between atoms: C33_33  and  S2_74 
REMARK       I    between atoms: C35_35  and  N10_55 
REMARK   12  A    between atoms: C36_36  and  N10_55 
REMARK   13  A    between atoms: C39_39  and  S3_75 
REMARK   14  A    between atoms: C45_45  and  S4_76 
ROOT
HETATM    1  C11 UNL     1       0.393  -0.204   0.255  1.00  0.00     0.327 C 
HETATM    2  N4  UNL     1      -0.801  -0.780   0.678  1.00  0.00    -0.294 N 
HETATM    3  N5  UNL     1       1.462  -0.876   0.843  1.00  0.00    -0.294 N 
HETATM    4  O2  UNL     1       0.485   0.747  -0.509  1.00  0.00    -0.247 OA
HETATM    5  H32 UNL     1      -0.758  -1.776   0.842  1.00  0.00     0.172 HD
HETATM    6  H33 UNL     1       1.235  -1.519   1.585  1.00  0.00     0.172 HD
ENDROOT
BRANCH   2   7
HETATM    7  C9  UNL     1      -2.073  -0.278   0.451  1.00  0.00     0.111 A 
HETATM    8  C10 UNL     1      -3.230  -1.036   0.452  1.00  0.00     0.067 A 
HETATM    9  C7  UNL     1      -4.350  -0.195   0.182  1.00  0.00     0.051 A 
HETATM   10  C8  UNL     1      -3.825   1.080   0.055  1.00  0.00     0.109 A 
HETATM   11  N3  UNL     1      -2.458   1.030   0.260  1.00  0.00    -0.346 N 
HETATM   12  C34 UNL     1      -1.662   2.232   0.389  1.00  0.00     0.157 C 
BRANCH   9  13
HETATM   13  C6  UNL     1      -5.753  -0.635   0.101  1.00  0.00     0.258 C 
HETATM   14  N2  UNL     1      -6.624   0.347  -0.338  1.00  0.00    -0.309 N 
HETATM   15  H31 UNL     1      -6.233   1.232  -0.615  1.00  0.00     0.170 HD
HETATM   16  O1  UNL     1      -6.048  -1.787   0.400  1.00  0.00    -0.267 OA
BRANCH  14  17
HETATM   17  C5  UNL     1      -7.997   0.188  -0.435  1.00  0.00     0.110 A 
HETATM   18  C4  UNL     1      -8.829  -0.870  -0.118  1.00  0.00     0.067 A 
HETATM   19  C3  UNL     1     -10.186  -0.492  -0.381  1.00  0.00     0.051 A 
HETATM   20  C2  UNL     1     -10.113   0.779  -0.917  1.00  0.00     0.109 A 
HETATM   21  N1  UNL     1      -8.810   1.195  -0.908  1.00  0.00    -0.346 N 
HETATM   22  C1  UNL     1      -8.397   2.510  -1.343  1.00  0.00     0.157 C 
BRANCH  19  23
HETATM   23  C35 UNL     1     -11.392  -1.311  -0.176  1.00  0.00     0.257 C 
HETATM   24  N10 UNL     1     -12.578  -0.592  -0.107  1.00  0.00    -0.322 N 
HETATM   25  H36 UNL     1     -12.441   0.406   0.041  1.00  0.00     0.169 HD
HETATM   26  O11 UNL     1     -11.267  -2.527  -0.059  1.00  0.00    -0.267 OA
BRANCH  24  27
HETATM   27  C36 UNL     1     -13.922  -1.063  -0.020  1.00  0.00     0.047 A 
HETATM   28  C37 UNL     1     -15.058  -0.151   0.176  1.00  0.00     0.027 A 
HETATM   29  C38 UNL     1     -16.341  -0.774   0.427  1.00  0.00     0.002 A 
HETATM   30  C45 UNL     1     -15.099   1.309   0.153  1.00  0.00     0.094 A 
HETATM   31  C39 UNL     1     -16.471  -2.192   0.381  1.00  0.00     0.091 A 
HETATM   32  C42 UNL     1     -17.472   0.032   0.716  1.00  0.00     0.014 A 
HETATM   33  C40 UNL     1     -15.384  -3.010   0.098  1.00  0.00     0.029 A 
HETATM   34  C41 UNL     1     -14.133  -2.450  -0.095  1.00  0.00     0.032 A 
HETATM   35  C43 UNL     1     -17.439   1.417   0.743  1.00  0.00     0.003 A 
HETATM   36  C44 UNL     1     -16.259   2.054   0.447  1.00  0.00     0.027 A 
BRANCH  31  37
HETATM   37  S3  UNL     1     -18.073  -3.055   0.665  1.00  0.00     0.138 S 
HETATM   38  O12 UNL     1     -18.417  -2.671   2.033  1.00  0.00    -0.591 OA
HETATM   39  O13 UNL     1     -18.936  -2.511  -0.381  1.00  0.00    -0.591 OA
HETATM   40  O14 UNL     1     -17.758  -4.475   0.503  1.00  0.00    -0.591 OA
ENDBRANCH  31  37
BRANCH  30  41
HETATM   41  S4  UNL     1     -13.684   2.347  -0.351  1.00  0.00     0.138 S 
HETATM   42  O15 UNL     1     -13.434   1.923  -1.724  1.00  0.00    -0.591 OA
HETATM   43  O16 UNL     1     -14.139   3.729  -0.216  1.00  0.00    -0.591 OA
HETATM   44  O17 UNL     1     -12.655   1.961   0.610  1.00  0.00    -0.591 OA
ENDBRANCH  30  41
ENDBRANCH  24  27
ENDBRANCH  19  23
ENDBRANCH  14  17
ENDBRANCH   9  13
ENDBRANCH   2   7
BRANCH   3  45
HETATM   45  C12 UNL     1       2.794  -0.569   0.618  1.00  0.00     0.111 A 
HETATM   46  C13 UNL     1       3.395   0.315  -0.258  1.00  0.00     0.067 A 
HETATM   47  C14 UNL     1       4.814   0.259  -0.082  1.00  0.00     0.051 A 
HETATM   48  C15 UNL     1       5.025  -0.678   0.917  1.00  0.00     0.109 A 
HETATM   49  N6  UNL     1       3.811  -1.176   1.320  1.00  0.00    -0.346 N 
HETATM   50  C16 UNL     1       3.661  -2.182   2.350  1.00  0.00     0.157 C 
BRANCH  47  51
HETATM   51  C17 UNL     1       5.814   1.063  -0.806  1.00  0.00     0.258 C 
HETATM   52  N7  UNL     1       7.117   0.695  -0.543  1.00  0.00    -0.309 N 
HETATM   53  H34 UNL     1       7.258  -0.178  -0.051  1.00  0.00     0.170 HD
HETATM   54  O3  UNL     1       5.450   1.942  -1.579  1.00  0.00    -0.267 OA
BRANCH  52  55
HETATM   55  C18 UNL     1       8.292   1.290  -0.971  1.00  0.00     0.110 A 
HETATM   56  C19 UNL     1       9.533   0.683  -0.857  1.00  0.00     0.067 A 
HETATM   57  C20 UNL     1      10.541   1.555  -1.346  1.00  0.00     0.051 A 
HETATM   58  C21 UNL     1       9.856   2.679  -1.778  1.00  0.00     0.109 A 
HETATM   59  N8  UNL     1       8.512   2.536  -1.509  1.00  0.00    -0.346 N 
HETATM   60  C22 UNL     1       7.587   3.633  -1.674  1.00  0.00     0.157 C 
BRANCH  57  61
HETATM   61  C23 UNL     1      12.002   1.397  -1.438  1.00  0.00     0.257 C 
HETATM   62  N9  UNL     1      12.528   0.307  -0.758  1.00  0.00    -0.322 N 
HETATM   63  H35 UNL     1      11.881  -0.186  -0.145  1.00  0.00     0.169 HD
HETATM   64  O4  UNL     1      12.652   2.222  -2.078  1.00  0.00    -0.267 OA
BRANCH  62  65
HETATM   65  C24 UNL     1      13.881  -0.141  -0.738  1.00  0.00     0.047 A 
HETATM   66  C25 UNL     1      14.399  -1.027   0.309  1.00  0.00     0.027 A 
HETATM   67  C26 UNL     1      15.746  -1.522   0.117  1.00  0.00     0.002 A 
HETATM   68  C33 UNL     1      13.762  -1.473   1.543  1.00  0.00     0.094 A 
HETATM   69  C27 UNL     1      16.505  -1.113  -1.018  1.00  0.00     0.091 A 
HETATM   70  C30 UNL     1      16.308  -2.413   1.068  1.00  0.00     0.014 A 
HETATM   71  C28 UNL     1      15.985  -0.238  -1.963  1.00  0.00     0.029 A 
HETATM   72  C29 UNL     1      14.691   0.232  -1.824  1.00  0.00     0.032 A 
HETATM   73  C31 UNL     1      15.643  -2.834   2.208  1.00  0.00     0.003 A 
HETATM   74  C32 UNL     1      14.377  -2.358   2.451  1.00  0.00     0.027 A 
BRANCH  69  75
HETATM   75  S1  UNL     1      18.219  -1.709  -1.334  1.00  0.00     0.138 S 
HETATM   76  O5  UNL     1      18.956  -1.242  -0.163  1.00  0.00    -0.591 OA
HETATM   77  O6  UNL     1      18.051  -3.156  -1.442  1.00  0.00    -0.591 OA
HETATM   78  O7  UNL     1      18.606  -1.057  -2.586  1.00  0.00    -0.591 OA
ENDBRANCH  69  75
BRANCH  68  79
HETATM   79  S2  UNL     1      12.113  -0.906   2.084  1.00  0.00     0.138 S 
HETATM   80  O8  UNL     1      11.827  -1.644   3.312  1.00  0.00    -0.591 OA
HETATM   81  O9  UNL     1      11.272  -1.290   0.952  1.00  0.00    -0.591 OA
HETATM   82  O10 UNL     1      12.295   0.529   2.261  1.00  0.00    -0.591 OA
ENDBRANCH  68  79
ENDBRANCH  62  65
ENDBRANCH  57  61
ENDBRANCH  52  55
ENDBRANCH  47  51
ENDBRANCH   3  45
TORSDOF 14
