REMARK  20 active torsions:
REMARK  status: ('A' for Active; 'I' for Inactive)
REMARK    1  A    between atoms: C3_3  and  C21_21 
REMARK    2  A    between atoms: C5_5  and  C7_7 
REMARK       I    between atoms: C7_7  and  N1_41 
REMARK    3  A    between atoms: C8_8  and  N1_41 
REMARK    4  A    between atoms: C11_11  and  C14_14 
REMARK       I    between atoms: C14_14  and  N2_42 
REMARK    5  A    between atoms: C15_15  and  C16_16 
REMARK    6  A    between atoms: C15_15  and  N2_42 
REMARK    7  A    between atoms: C16_16  and  C17_17 
REMARK    8  A    between atoms: C17_17  and  C18_18 
REMARK    9  A    between atoms: C18_18  and  C19_19 
REMARK   10  A    between atoms: C19_19  and  C20_20 
REMARK   11  A    between atoms: C20_20  and  O3_37 
REMARK       I    between atoms: C21_21  and  N3_43 
REMARK   12  A    between atoms: C22_22  and  N3_43 
REMARK   13  A    between atoms: C25_25  and  C28_28 
REMARK       I    between atoms: C28_28  and  N4_44 
REMARK   14  A    between atoms: C29_29  and  C30_30 
REMARK   15  A    between atoms: C29_29  and  N4_44 
REMARK   16  A    between atoms: C30_30  and  C31_31 
REMARK   17  A    between atoms: C31_31  and  C32_32 
REMARK   18  A    between atoms: C32_32  and  C33_33 
REMARK   19  A    between atoms: C33_33  and  C34_34 
REMARK   20  A    between atoms: C34_34  and  O6_40 
ROOT
HETATM    1  C1  UNL     1      -0.123  -5.998   2.351  1.00  0.00     0.002 A 
HETATM    2  C2  UNL     1       1.167  -5.479   2.479  1.00  0.00     0.017 A 
HETATM    3  C3  UNL     1       1.486  -4.229   1.932  1.00  0.00     0.033 A 
HETATM    4  C4  UNL     1       0.494  -3.482   1.287  1.00  0.00     0.034 A 
HETATM    5  C5  UNL     1      -0.804  -3.998   1.172  1.00  0.00     0.033 A 
HETATM    6  C6  UNL     1      -1.108  -5.264   1.690  1.00  0.00     0.017 A 
ENDROOT
BRANCH   3   7
HETATM    7  C21 UNL     1       2.881  -3.723   2.083  1.00  0.00     0.256 C 
HETATM    8  O4  UNL     1       3.503  -4.050   3.086  1.00  0.00    -0.267 OA
HETATM    9  N3  UNL     1       3.343  -2.952   1.032  1.00  0.00    -0.323 N 
HETATM   10  H41 UNL     1       2.748  -2.873   0.217  1.00  0.00     0.169 HD
BRANCH   9  11
HETATM   11  C22 UNL     1       4.599  -2.317   0.927  1.00  0.00     0.035 A 
HETATM   12  C23 UNL     1       4.875  -1.644  -0.271  1.00  0.00     0.030 A 
HETATM   13  C24 UNL     1       6.095  -0.984  -0.460  1.00  0.00     0.019 A 
HETATM   14  C25 UNL     1       7.056  -0.990   0.555  1.00  0.00     0.032 A 
HETATM   15  C26 UNL     1       6.776  -1.641   1.760  1.00  0.00     0.019 A 
HETATM   16  C27 UNL     1       5.557  -2.306   1.941  1.00  0.00     0.030 A 
BRANCH  14  17
HETATM   17  C28 UNL     1       8.356  -0.280   0.416  1.00  0.00     0.251 C 
HETATM   18  O5  UNL     1       8.884   0.220   1.402  1.00  0.00    -0.268 OA
HETATM   19  N4  UNL     1       8.901  -0.244  -0.851  1.00  0.00    -0.357 N 
HETATM   20  H42 UNL     1       8.461  -0.759  -1.601  1.00  0.00     0.162 HD
BRANCH  19  21
HETATM   21  C29 UNL     1      10.155   0.425  -1.129  1.00  0.00     0.123 C 
BRANCH  21  22
HETATM   22  C30 UNL     1       9.980   1.743  -1.889  1.00  0.00     0.020 C 
BRANCH  22  23
HETATM   23  C31 UNL     1       9.232   2.824  -1.100  1.00  0.00     0.002 C 
BRANCH  23  24
HETATM   24  C32 UNL     1       7.724   2.809  -1.364  1.00  0.00     0.002 C 
BRANCH  24  25
HETATM   25  C33 UNL     1       6.970   3.709  -0.383  1.00  0.00     0.026 C 
BRANCH  25  26
HETATM   26  C34 UNL     1       5.464   3.671  -0.617  1.00  0.00     0.164 C 
BRANCH  26  27
HETATM   27  O6  UNL     1       4.956   2.354  -0.446  1.00  0.00    -0.401 OA
HETATM   28  H38 UNL     1       5.194   2.067   0.454  1.00  0.00     0.209 HD
ENDBRANCH  26  27
ENDBRANCH  25  26
ENDBRANCH  24  25
ENDBRANCH  23  24
ENDBRANCH  22  23
ENDBRANCH  21  22
ENDBRANCH  19  21
ENDBRANCH  14  17
ENDBRANCH   9  11
ENDBRANCH   3   7
BRANCH   5  29
HETATM   29  C7  UNL     1      -1.821  -3.180   0.455  1.00  0.00     0.256 C 
HETATM   30  O1  UNL     1      -1.441  -2.506  -0.494  1.00  0.00    -0.267 OA
HETATM   31  N1  UNL     1      -3.099  -3.248   0.978  1.00  0.00    -0.323 N 
HETATM   32  H39 UNL     1      -3.212  -3.747   1.851  1.00  0.00     0.169 HD
BRANCH  31  33
HETATM   33  C8  UNL     1      -4.258  -2.616   0.481  1.00  0.00     0.035 A 
HETATM   34  C9  UNL     1      -5.434  -2.755   1.231  1.00  0.00     0.030 A 
HETATM   35  C10 UNL     1      -6.630  -2.165   0.807  1.00  0.00     0.019 A 
HETATM   36  C11 UNL     1      -6.661  -1.422  -0.378  1.00  0.00     0.032 A 
HETATM   37  C12 UNL     1      -5.495  -1.299  -1.139  1.00  0.00     0.019 A 
HETATM   38  C13 UNL     1      -4.300  -1.888  -0.709  1.00  0.00     0.030 A 
BRANCH  36  39
HETATM   39  C14 UNL     1      -7.908  -0.781  -0.876  1.00  0.00     0.251 C 
HETATM   40  O2  UNL     1      -8.077  -0.624  -2.080  1.00  0.00    -0.268 OA
HETATM   41  N2  UNL     1      -8.805  -0.362   0.086  1.00  0.00    -0.357 N 
HETATM   42  H40 UNL     1      -8.518  -0.354   1.055  1.00  0.00     0.162 HD
BRANCH  41  43
HETATM   43  C15 UNL     1     -10.016   0.355  -0.259  1.00  0.00     0.123 C 
BRANCH  43  44
HETATM   44  C16 UNL     1      -9.876   1.867  -0.078  1.00  0.00     0.020 C 
BRANCH  44  45
HETATM   45  C17 UNL     1      -8.870   2.499  -1.044  1.00  0.00     0.002 C 
BRANCH  45  46
HETATM   46  C18 UNL     1      -8.846   4.023  -0.902  1.00  0.00     0.002 C 
BRANCH  46  47
HETATM   47  C19 UNL     1      -7.888   4.703  -1.886  1.00  0.00     0.026 C 
BRANCH  47  48
HETATM   48  C20 UNL     1      -6.415   4.376  -1.657  1.00  0.00     0.164 C 
BRANCH  48  49
HETATM   49  O3  UNL     1      -6.016   4.737  -0.341  1.00  0.00    -0.401 OA
HETATM   50  H37 UNL     1      -6.159   5.694  -0.248  1.00  0.00     0.209 HD
ENDBRANCH  48  49
ENDBRANCH  47  48
ENDBRANCH  46  47
ENDBRANCH  45  46
ENDBRANCH  44  45
ENDBRANCH  43  44
ENDBRANCH  41  43
ENDBRANCH  36  39
ENDBRANCH  31  33
ENDBRANCH   5  29
TORSDOF 20
