REMARK  12 active torsions:
REMARK  status: ('A' for Active; 'I' for Inactive)
REMARK       I    between atoms: C2_2  and  N1_30 
REMARK       I    between atoms: C2_2  and  N2_31 
REMARK       I    between atoms: C2_2  and  N3_32 
REMARK    1  A    between atoms: C3_3  and  C4_4 
REMARK    2  A    between atoms: C3_3  and  N3_32 
REMARK    3  A    between atoms: C4_4  and  C5_5 
REMARK    4  A    between atoms: C5_5  and  N4_33 
REMARK    5  A    between atoms: C6_6  and  C7_7 
REMARK       I    between atoms: C6_6  and  N4_33 
REMARK    6  A    between atoms: C13_13  and  C15_15 
REMARK       I    between atoms: C15_15  and  N6_35 
REMARK    7  A    between atoms: C16_16  and  N6_35 
REMARK    8  A    between atoms: C23_23  and  C24_24 
REMARK       I    between atoms: C24_24  and  N8_37 
REMARK    9  A    between atoms: C25_25  and  C26_26 
REMARK   10  A    between atoms: C25_25  and  N8_37 
REMARK   11  A    between atoms: C26_26  and  C27_27 
REMARK   12  A    between atoms: C27_27  and  N9_38 
REMARK       I    between atoms: C28_28  and  N9_38 
REMARK       I    between atoms: C28_28  and  N11_41 
ROOT
HETATM    1  C15 UNL     1      -0.228  -0.427  -0.246  1.00  0.00     0.272 C 
HETATM    2  N6  UNL     1      -1.065   0.657  -0.448  1.00  0.00    -0.322 N 
HETATM    3  O2  UNL     1      -0.528  -1.598  -0.441  1.00  0.00    -0.266 OA
HETATM    4  H34 UNL     1      -0.630   1.567  -0.467  1.00  0.00     0.169 HD
ENDROOT
BRANCH   1   5
HETATM    5  C13 UNL     1       1.106  -0.053   0.195  1.00  0.00     0.102 A 
HETATM    6  C14 UNL     1       2.280  -0.770   0.032  1.00  0.00     0.049 A 
HETATM    7  C9  UNL     1       3.346  -0.039   0.620  1.00  0.00    -0.006 A 
HETATM    8  C8  UNL     1       4.732  -0.260   0.747  1.00  0.00     0.030 A 
HETATM    9  C10 UNL     1       2.791   1.112   1.173  1.00  0.00     0.043 A 
HETATM   10  C7  UNL     1       5.518   0.694   1.414  1.00  0.00     0.033 A 
HETATM   11  C12 UNL     1       4.925   1.832   1.972  1.00  0.00     0.019 A 
HETATM   12  C11 UNL     1       3.550   2.064   1.861  1.00  0.00     0.031 A 
HETATM   13  N5  UNL     1       1.438   1.068   0.924  1.00  0.00    -0.351 N 
HETATM   14  H33 UNL     1       0.778   1.746   1.277  1.00  0.00     0.166 HD
BRANCH  10  15
HETATM   15  C6  UNL     1       6.989   0.518   1.577  1.00  0.00     0.251 C 
HETATM   16  N4  UNL     1       7.631  -0.215   0.600  1.00  0.00    -0.357 N 
HETATM   17  H32 UNL     1       7.136  -0.461  -0.245  1.00  0.00     0.162 HD
HETATM   18  O1  UNL     1       7.570   1.044   2.520  1.00  0.00    -0.268 OA
BRANCH  16  19
HETATM   19  C5  UNL     1       9.070  -0.412   0.617  1.00  0.00     0.124 C 
BRANCH  19  20
HETATM   20  C4  UNL     1       9.813   0.812   0.084  1.00  0.00     0.050 C 
BRANCH  20  21
HETATM   21  C3  UNL     1      11.331   0.619   0.091  1.00  0.00     0.276 C 
BRANCH  21  22
HETATM   22  N3  UNL     1      11.730  -0.396  -0.889  1.00  0.00     0.147 N 
HETATM   23  C2  UNL     1      13.145  -0.578  -0.950  1.00  0.00     0.675 C 
HETATM   24  N1  UNL     1      13.611  -1.252   0.214  1.00  0.00     0.142 N 
HETATM   25  N2  UNL     1      13.286  -1.588  -1.944  1.00  0.00     0.142 N 
HETATM   26  C1  UNL     1      14.515  -0.426   1.001  1.00  0.00     0.312 C 
HETATM   27  H28 UNL     1      14.140  -2.046  -0.140  1.00  0.00     0.320 HD
HETATM   28  H29 UNL     1      12.951  -1.222  -2.827  1.00  0.00     0.318 HD
HETATM   29  H30 UNL     1      12.600  -2.290  -1.670  1.00  0.00     0.318 HD
HETATM   30  H31 UNL     1      11.418  -0.086  -1.803  1.00  0.00     0.321 HD
ENDBRANCH  21  22
ENDBRANCH  20  21
ENDBRANCH  19  20
ENDBRANCH  16  19
ENDBRANCH  10  15
ENDBRANCH   1   5
BRANCH   2  31
HETATM   31  C16 UNL     1      -2.436   0.635  -0.789  1.00  0.00     0.037 A 
HETATM   32  C17 UNL     1      -3.205  -0.535  -0.821  1.00  0.00     0.059 A 
HETATM   33  C18 UNL     1      -4.561  -0.423  -1.163  1.00  0.00     0.045 A 
HETATM   34  C19 UNL     1      -5.168   0.790  -1.466  1.00  0.00    -0.007 A 
HETATM   35  N7  UNL     1      -5.528  -1.393  -1.271  1.00  0.00    -0.351 N 
HETATM   36  C20 UNL     1      -4.391   1.960  -1.426  1.00  0.00     0.016 A 
HETATM   37  C22 UNL     1      -6.533   0.515  -1.760  1.00  0.00     0.049 A 
HETATM   38  C21 UNL     1      -3.033   1.867  -1.086  1.00  0.00     0.030 A 
HETATM   39  C23 UNL     1      -6.742  -0.849  -1.634  1.00  0.00     0.102 A 
HETATM   40  H35 UNL     1      -5.385  -2.383  -1.110  1.00  0.00     0.166 HD
BRANCH  39  41
HETATM   41  C24 UNL     1      -7.910  -1.684  -1.806  1.00  0.00     0.268 C 
HETATM   42  N8  UNL     1      -9.061  -1.023  -2.173  1.00  0.00    -0.356 N 
HETATM   43  H36 UNL     1      -9.044  -0.017  -2.245  1.00  0.00     0.162 HD
HETATM   44  O3  UNL     1      -7.875  -2.898  -1.631  1.00  0.00    -0.266 OA
BRANCH  42  45
HETATM   45  C25 UNL     1     -10.326  -1.711  -2.320  1.00  0.00     0.124 C 
BRANCH  45  46
HETATM   46  C26 UNL     1     -11.042  -1.926  -0.988  1.00  0.00     0.039 C 
BRANCH  46  47
HETATM   47  C27 UNL     1     -11.531  -0.611  -0.386  1.00  0.00     0.123 C 
BRANCH  47  48
HETATM   48  N9  UNL     1     -12.220  -0.865   0.872  1.00  0.00    -0.367 N 
HETATM   49  C28 UNL     1     -12.695   0.171   1.619  1.00  0.00     0.145 C 
HETATM   50  N10 UNL     1     -12.459   1.400   1.346  1.00  0.00    -0.371 N 
HETATM   51  N11 UNL     1     -13.419  -0.337   2.648  1.00  0.00    -0.274 NA
HETATM   52  C29 UNL     1     -13.032   2.430   2.196  1.00  0.00     0.148 C 
ATOM     53  H10 UNL     1     -11.879   1.651   0.546  1.00  0.00     0.161 HD
HETATM   54  H38 UNL     1     -13.614   0.335   3.379  1.00  0.00     0.127 HD
HETATM   55  H39 UNL     1     -12.980  -1.163   3.040  1.00  0.00     0.127 HD
HETATM   56  H37 UNL     1     -12.887  -1.625   0.818  1.00  0.00     0.162 HD
ENDBRANCH  47  48
ENDBRANCH  46  47
ENDBRANCH  45  46
ENDBRANCH  42  45
ENDBRANCH  39  41
ENDBRANCH   2  31
TORSDOF 12
