REMARK  12 active torsions:
REMARK  status: ('A' for Active; 'I' for Inactive)
REMARK    1  A    between atoms: C2_2  and  C3_3 
REMARK    2  A    between atoms: C3_3  and  C4_4 
REMARK    3  A    between atoms: C3_3  and  N1_41 
REMARK       I    between atoms: C6_6  and  N1_41 
REMARK       I    between atoms: C6_6  and  N2_42 
REMARK    4  A    between atoms: C7_7  and  N2_42 
REMARK    5  A    between atoms: C10_10  and  O2_47 
REMARK    6  A    between atoms: C13_13  and  O2_47 
REMARK    7  A    between atoms: C16_16  and  N3_43 
REMARK    8  A    between atoms: C19_19  and  C20_20 
REMARK       I    between atoms: C19_19  and  N3_43 
REMARK    9  A    between atoms: C23_23  and  N4_44 
REMARK   10  A    between atoms: C27_27  and  C34_34 
REMARK   11  A    between atoms: C34_34  and  N5_45 
REMARK   12  A    between atoms: C37_37  and  O4_49 
ROOT
HETATM    1  C19 UNL     1       1.521  -2.793  -0.849  1.00  0.00     0.256 C 
HETATM    2  N3  UNL     1       0.523  -2.080  -0.210  1.00  0.00    -0.323 N 
HETATM    3  O3  UNL     1       1.452  -3.936  -1.282  1.00  0.00    -0.267 OA
HETATM    4  H44 UNL     1       0.786  -1.195   0.203  1.00  0.00     0.169 HD
ENDROOT
BRANCH   2   5
HETATM    5  C16 UNL     1      -0.808  -2.486   0.022  1.00  0.00     0.035 A 
HETATM    6  C15 UNL     1      -1.352  -3.688  -0.442  1.00  0.00     0.039 A 
HETATM    7  C14 UNL     1      -2.690  -4.030  -0.177  1.00  0.00    -0.026 A 
HETATM    8  C13 UNL     1      -3.488  -3.132   0.542  1.00  0.00     0.082 A 
HETATM    9  C40 UNL     1      -3.250  -5.330  -0.677  1.00  0.00     0.051 C 
HETATM   10  C18 UNL     1      -2.952  -1.938   1.027  1.00  0.00     0.040 A 
HETATM   11  C17 UNL     1      -1.620  -1.616   0.761  1.00  0.00     0.032 A 
BRANCH   8  12
HETATM   12  O2  UNL     1      -4.790  -3.485   0.822  1.00  0.00    -0.310 OA
BRANCH  12  13
HETATM   13  C10 UNL     1      -5.773  -2.604   0.431  1.00  0.00     0.076 A 
HETATM   14  C9  UNL     1      -5.790  -1.987  -0.820  1.00  0.00     0.039 A 
HETATM   15  C8  UNL     1      -6.842  -1.131  -1.158  1.00  0.00     0.032 A 
HETATM   16  C7  UNL     1      -7.892  -0.896  -0.259  1.00  0.00     0.036 A 
HETATM   17  C12 UNL     1      -7.871  -1.532   0.984  1.00  0.00     0.032 A 
HETATM   18  C11 UNL     1      -6.820  -2.391   1.324  1.00  0.00     0.039 A 
BRANCH  16  19
HETATM   19  N2  UNL     1      -8.908  -0.012  -0.673  1.00  0.00    -0.309 N 
HETATM   20  C6  UNL     1     -10.089   0.275  -0.023  1.00  0.00     0.321 C 
HETATM   21  N1  UNL     1     -10.785   1.261  -0.698  1.00  0.00    -0.338 N 
HETATM   22  O1  UNL     1     -10.511  -0.251   0.997  1.00  0.00    -0.247 OA
HETATM   23  H42 UNL     1     -10.235   1.884  -1.270  1.00  0.00     0.164 HD
HETATM   24  H43 UNL     1      -8.831   0.354  -1.609  1.00  0.00     0.170 HD
BRANCH  21  25
HETATM   25  C3  UNL     1     -12.058   1.786  -0.203  1.00  0.00     0.085 C 
BRANCH  25  26
HETATM   26  C2  UNL     1     -12.982   2.017  -1.412  1.00  0.00     0.021 C 
HETATM   27  C1  UNL     1     -14.417   2.355  -1.035  1.00  0.00     0.007 C 
ENDBRANCH  25  26
BRANCH  25  28
HETATM   28  C4  UNL     1     -11.843   3.078   0.610  1.00  0.00     0.021 C 
HETATM   29  C5  UNL     1     -11.009   2.881   1.870  1.00  0.00     0.007 C 
ENDBRANCH  25  28
ENDBRANCH  21  25
ENDBRANCH  16  19
ENDBRANCH  12  13
ENDBRANCH   8  12
ENDBRANCH   2   5
BRANCH   1  30
HETATM   30  C20 UNL     1       2.819  -2.072  -0.973  1.00  0.00     0.032 A 
HETATM   31  C21 UNL     1       4.004  -2.800  -0.829  1.00  0.00     0.019 A 
HETATM   32  C22 UNL     1       5.242  -2.158  -0.935  1.00  0.00     0.031 A 
HETATM   33  C23 UNL     1       5.307  -0.784  -1.214  1.00  0.00     0.039 A 
HETATM   34  C24 UNL     1       4.117  -0.060  -1.360  1.00  0.00     0.031 A 
HETATM   35  C25 UNL     1       2.877  -0.701  -1.248  1.00  0.00     0.019 A 
BRANCH  33  36
HETATM   36  N4  UNL     1       6.577  -0.135  -1.308  1.00  0.00    -0.321 N 
HETATM   37  C26 UNL     1       7.703  -0.541  -0.622  1.00  0.00     0.107 A 
HETATM   38  C27 UNL     1       8.719   0.379  -0.797  1.00  0.00    -0.002 A 
HETATM   39  C28 UNL     1       8.227   1.352  -1.717  1.00  0.00     0.000 A 
HETATM   40  C29 UNL     1       8.801   2.499  -2.308  1.00  0.00     0.014 A 
HETATM   41  C33 UNL     1       6.913   0.995  -2.059  1.00  0.00     0.050 A 
HETATM   42  C30 UNL     1       8.083   3.237  -3.252  1.00  0.00     0.001 A 
HETATM   43  C31 UNL     1       6.808   2.838  -3.627  1.00  0.00     0.002 A 
HETATM   44  C32 UNL     1       6.211   1.713  -3.050  1.00  0.00     0.031 A 
BRANCH  38  45
HETATM   45  C34 UNL     1      10.079   0.330  -0.167  1.00  0.00     0.313 C 
BRANCH  45  46
HETATM   46  N5  UNL     1       9.965   0.295   1.298  1.00  0.00     0.092 N 
HETATM   47  C35 UNL     1      11.199  -0.225   1.903  1.00  0.00     0.275 C 
HETATM   48  C36 UNL     1      11.322   0.157   3.373  1.00  0.00     0.062 C 
HETATM   49  C37 UNL     1      11.431   1.673   3.520  1.00  0.00     0.121 C 
HETATM   50  C38 UNL     1      10.643   2.425   2.445  1.00  0.00     0.062 C 
HETATM   51  C39 UNL     1       9.510   1.566   1.884  1.00  0.00     0.275 C 
BRANCH  49  52
HETATM   52  O4  UNL     1      10.972   2.034   4.822  1.00  0.00    -0.395 OA
HETATM   53  H45 UNL     1      11.109   2.990   4.930  1.00  0.00     0.210 HD
ENDBRANCH  49  52
ENDBRANCH  45  46
ENDBRANCH  38  45
ENDBRANCH  33  36
ENDBRANCH   1  30
TORSDOF 12
