REMARK  0 active torsions:
REMARK  status: ('A' for Active; 'I' for Inactive)
REMARK       I    between atoms: N1_1  and  C1_14 
REMARK       I    between atoms: N2_2  and  C2_15 
REMARK       I    between atoms: N2_2  and  C3_16 
REMARK       I    between atoms: N3_3  and  C4_17 
REMARK       I    between atoms: N3_3  and  C5_18 
REMARK       I    between atoms: N4_4  and  C6_19 
REMARK       I    between atoms: N4_4  and  C7_20 
REMARK       I    between atoms: N5_5  and  C8_21 
REMARK       I    between atoms: N5_5  and  C9_22 
REMARK       I    between atoms: N6_6  and  C10_23 
REMARK       I    between atoms: N6_6  and  C11_24 
REMARK       I    between atoms: N7_7  and  C12_25 
REMARK       I    between atoms: N7_7  and  C13_26 
REMARK       I    between atoms: N8_8  and  C14_27 
REMARK       I    between atoms: N8_8  and  C15_28 
REMARK       I    between atoms: N9_9  and  C16_29 
REMARK       I    between atoms: N10_10  and  C24_37 
REMARK       I    between atoms: N11_11  and  C32_45 
REMARK       I    between atoms: N12_12  and  C40_53 
REMARK       I    between atoms: N13_13  and  C48_61 
REMARK       I    between atoms: C1_14  and  C2_15 
REMARK       I    between atoms: C1_14  and  C45_58 
REMARK       I    between atoms: C3_16  and  C4_17 
REMARK       I    between atoms: C3_16  and  C41_54 
REMARK       I    between atoms: C5_18  and  C6_19 
REMARK       I    between atoms: C5_18  and  C37_50 
REMARK       I    between atoms: C7_20  and  C8_21 
REMARK       I    between atoms: C7_20  and  C33_46 
REMARK       I    between atoms: C9_22  and  C10_23 
REMARK       I    between atoms: C9_22  and  C29_42 
REMARK       I    between atoms: C11_24  and  C12_25 
REMARK       I    between atoms: C11_24  and  C25_38 
REMARK       I    between atoms: C13_26  and  C14_27 
REMARK       I    between atoms: C13_26  and  C21_34 
REMARK       I    between atoms: C15_28  and  C16_29 
REMARK       I    between atoms: C15_28  and  C17_30 
REMARK       I    between atoms: C17_30  and  C19_32 
REMARK       I    between atoms: C21_34  and  C22_35 
REMARK       I    between atoms: C22_35  and  C23_36 
REMARK       I    between atoms: C23_36  and  C24_37 
REMARK       I    between atoms: C25_38  and  C27_40 
REMARK       I    between atoms: C29_42  and  C30_43 
REMARK       I    between atoms: C30_43  and  C31_44 
REMARK       I    between atoms: C31_44  and  C32_45 
REMARK       I    between atoms: C33_46  and  C35_48 
REMARK       I    between atoms: C37_50  and  C38_51 
REMARK       I    between atoms: C38_51  and  C39_52 
REMARK       I    between atoms: C39_52  and  C40_53 
REMARK       I    between atoms: C41_54  and  C43_56 
REMARK       I    between atoms: C45_58  and  C46_59 
REMARK       I    between atoms: C46_59  and  C47_60 
REMARK       I    between atoms: C47_60  and  C48_61 
ROOT
HETATM    1  N1  UNL     1      -6.036   1.957   3.664  1.00  0.00     0.092 N 
HETATM    2  N2  UNL     1      -6.922   2.094   0.977  1.00  0.00    -0.346 N 
HETATM    3  N3  UNL     1      -4.427   1.859  -1.070  1.00  0.00    -0.346 N 
HETATM    4  N4  UNL     1      -1.215   1.423  -2.795  1.00  0.00    -0.346 N 
HETATM    5  N5  UNL     1      -0.368  -1.252  -2.221  1.00  0.00    -0.346 N 
HETATM    6  N6  UNL     1       2.517  -2.044  -1.205  1.00  0.00    -0.346 N 
HETATM    7  N7  UNL     1       4.340   0.016   1.225  1.00  0.00    -0.346 N 
HETATM    8  N8  UNL     1       6.107   1.958   0.445  1.00  0.00    -0.346 N 
HETATM    9  N9  UNL     1       5.334   2.515  -2.178  1.00  0.00    -0.368 N 
HETATM   10  N10 UNL     1       3.287  -1.558   6.366  1.00  0.00     0.078 N 
HETATM   11  N11 UNL     1       2.698  -7.321  -0.279  1.00  0.00     0.078 N 
HETATM   12  N12 UNL     1      -3.092  -2.943   1.028  1.00  0.00     0.078 N 
HETATM   13  N13 UNL     1      -7.054  -2.829   1.743  1.00  0.00     0.078 N 
HETATM   14  C1  UNL     1      -6.626   0.757   3.030  1.00  0.00     0.308 C 
HETATM   15  C2  UNL     1      -6.564   0.866   1.492  1.00  0.00     0.251 C 
HETATM   16  C3  UNL     1      -6.742   2.382  -0.444  1.00  0.00     0.180 C 
HETATM   17  C4  UNL     1      -5.261   2.812  -0.538  1.00  0.00     0.241 C 
HETATM   18  C5  UNL     1      -2.991   2.047  -1.200  1.00  0.00     0.176 C 
HETATM   19  C6  UNL     1      -2.453   1.095  -2.290  1.00  0.00     0.241 C 
HETATM   20  C7  UNL     1      -0.531   0.611  -3.810  1.00  0.00     0.180 C 
HETATM   21  C8  UNL     1       0.325  -0.511  -3.155  1.00  0.00     0.241 C 
HETATM   22  C9  UNL     1       0.116  -2.502  -1.631  1.00  0.00     0.176 C 
HETATM   23  C10 UNL     1       1.269  -2.223  -0.643  1.00  0.00     0.241 C 
HETATM   24  C11 UNL     1       3.656  -1.755  -0.348  1.00  0.00     0.180 C 
HETATM   25  C12 UNL     1       3.745  -0.247  -0.004  1.00  0.00     0.241 C 
HETATM   26  C13 UNL     1       4.170   1.349   1.828  1.00  0.00     0.176 C 
HETATM   27  C14 UNL     1       4.985   2.434   1.089  1.00  0.00     0.241 C 
HETATM   28  C15 UNL     1       6.982   2.816  -0.353  1.00  0.00     0.180 C 
HETATM   29  C16 UNL     1       6.641   2.745  -1.861  1.00  0.00     0.238 C 
HETATM   30  C17 UNL     1       8.479   2.507  -0.091  1.00  0.00     0.013 C 
HETATM   31  C18 UNL     1       8.854   2.896   1.346  1.00  0.00     0.012 C 
HETATM   32  C19 UNL     1       8.835   1.032  -0.387  1.00  0.00     0.002 C 
HETATM   33  C20 UNL     1      10.334   0.760  -0.377  1.00  0.00     0.005 C 
HETATM   34  C21 UNL     1       4.627   1.350   3.297  1.00  0.00     0.035 C 
HETATM   35  C22 UNL     1       3.681   0.564   4.211  1.00  0.00     0.004 C 
HETATM   36  C23 UNL     1       4.124   0.658   5.676  1.00  0.00     0.030 C 
HETATM   37  C24 UNL     1       3.214  -0.125   6.622  1.00  0.00     0.267 C 
HETATM   38  C25 UNL     1       5.004  -2.308  -0.882  1.00  0.00     0.013 C 
HETATM   39  C26 UNL     1       5.181  -3.764  -0.422  1.00  0.00     0.012 C 
HETATM   40  C27 UNL     1       5.201  -2.254  -2.412  1.00  0.00     0.002 C 
HETATM   41  C28 UNL     1       5.276  -0.850  -2.984  1.00  0.00     0.005 C 
HETATM   42  C29 UNL     1       0.400  -3.575  -2.695  1.00  0.00     0.035 C 
HETATM   43  C30 UNL     1       0.331  -5.017  -2.174  1.00  0.00     0.004 C 
HETATM   44  C31 UNL     1       1.566  -5.447  -1.380  1.00  0.00     0.030 C 
HETATM   45  C32 UNL     1       1.495  -6.927  -1.004  1.00  0.00     0.267 C 
HETATM   46  C33 UNL     1       0.238   1.474  -4.843  1.00  0.00     0.013 C 
HETATM   47  C34 UNL     1      -0.743   1.984  -5.914  1.00  0.00     0.012 C 
HETATM   48  C35 UNL     1       1.005   2.686  -4.276  1.00  0.00     0.002 C 
HETATM   49  C36 UNL     1       2.065   2.337  -3.248  1.00  0.00     0.005 C 
HETATM   50  C37 UNL     1      -2.225   1.920   0.131  1.00  0.00     0.035 C 
HETATM   51  C38 UNL     1      -2.691   0.840   1.120  1.00  0.00     0.004 C 
HETATM   52  C39 UNL     1      -2.675  -0.581   0.564  1.00  0.00     0.030 C 
HETATM   53  C40 UNL     1      -3.010  -1.618   1.634  1.00  0.00     0.267 C 
HETATM   54  C41 UNL     1      -7.696   3.499  -0.932  1.00  0.00     0.013 C 
HETATM   55  C42 UNL     1      -7.300   3.974  -2.341  1.00  0.00     0.012 C 
HETATM   56  C43 UNL     1      -9.177   3.054  -0.987  1.00  0.00     0.002 C 
HETATM   57  C44 UNL     1      -9.818   2.754   0.359  1.00  0.00     0.005 C 
HETATM   58  C45 UNL     1      -8.062   0.573   3.530  1.00  0.00     0.045 C 
HETATM   59  C46 UNL     1      -8.829  -0.626   2.954  1.00  0.00     0.004 C 
HETATM   60  C47 UNL     1      -8.511  -1.992   3.575  1.00  0.00     0.030 C 
HETATM   61  C48 UNL     1      -7.194  -2.662   3.182  1.00  0.00     0.267 C 
HETATM   62  O1  UNL     1      -6.248  -0.088   0.783  1.00  0.00    -0.271 OA
HETATM   63  O2  UNL     1      -4.851   3.876  -0.078  1.00  0.00    -0.271 OA
HETATM   64  O3  UNL     1      -3.066   0.097  -2.668  1.00  0.00    -0.271 OA
HETATM   65  O4  UNL     1       1.470  -0.796  -3.496  1.00  0.00    -0.271 OA
HETATM   66  O5  UNL     1       1.079  -2.122   0.569  1.00  0.00    -0.271 OA
HETATM   67  O6  UNL     1       3.398   0.656  -0.761  1.00  0.00    -0.271 OA
HETATM   68  O7  UNL     1       4.723   3.630   1.187  1.00  0.00    -0.271 OA
HETATM   69  O8  UNL     1       7.447   2.993  -2.755  1.00  0.00    -0.271 OA
HETATM   70  H1  UNL     1      -6.670   2.751   3.622  1.00  0.00     0.313 HD
HETATM   71  H2  UNL     1      -5.167   2.213   3.196  1.00  0.00     0.313 HD
HETATM   72  H3  UNL     1      -6.833   2.884   1.602  1.00  0.00     0.163 HD
HETATM   73  H4  UNL     1      -4.790   0.926  -1.257  1.00  0.00     0.163 HD
HETATM   74  H5  UNL     1      -0.649   2.078  -2.269  1.00  0.00     0.163 HD
HETATM   75  H6  UNL     1      -1.377  -1.119  -2.202  1.00  0.00     0.163 HD
HETATM   76  H7  UNL     1       2.496  -1.616  -2.134  1.00  0.00     0.163 HD
HETATM   77  H8  UNL     1       4.293  -0.759   1.878  1.00  0.00     0.163 HD
HETATM   78  H9  UNL     1       6.120   0.961   0.265  1.00  0.00     0.163 HD
HETATM   79  H10 UNL     1       5.101   2.425  -3.157  1.00  0.00     0.159 HD
HETATM   80  H11 UNL     1       4.672   2.129  -1.509  1.00  0.00     0.159 HD
HETATM   81  H12 UNL     1       4.225  -1.896   6.577  1.00  0.00     0.312 HD
HETATM   82  H13 UNL     1       2.662  -2.047   7.007  1.00  0.00     0.312 HD
HETATM   83  H14 UNL     1       2.649  -8.315  -0.061  1.00  0.00     0.312 HD
HETATM   84  H15 UNL     1       3.514  -7.201  -0.879  1.00  0.00     0.312 HD
HETATM   85  H16 UNL     1      -3.869  -2.964   0.368  1.00  0.00     0.312 HD
HETATM   86  H17 UNL     1      -3.303  -3.630   1.750  1.00  0.00     0.312 HD
HETATM   87  H18 UNL     1      -6.910  -1.916   1.294  1.00  0.00     0.312 HD
HETATM   88  H19 UNL     1      -6.202  -3.350   1.545  1.00  0.00     0.312 HD
ENDROOT
TORSDOF 44
