REMARK  19 active torsions:
REMARK  status: ('A' for Active; 'I' for Inactive)
REMARK    1  A    between atoms: C2_2  and  C4_4 
REMARK    2  A    between atoms: C2_2  and  C5_5 
REMARK    3  A    between atoms: C4_4  and  N1_41 
REMARK    4  A    between atoms: C5_5  and  N2_42 
REMARK    5  A    between atoms: C6_6  and  C7_7 
REMARK       I    between atoms: C6_6  and  N2_42 
REMARK    6  A    between atoms: C7_7  and  C8_8 
REMARK    7  A    between atoms: C8_8  and  N3_43 
REMARK    8  A    between atoms: C9_9  and  C10_10 
REMARK       I    between atoms: C9_9  and  N3_43 
REMARK    9  A    between atoms: C12_12  and  N5_45 
REMARK   10  A    between atoms: C15_15  and  C16_16 
REMARK       I    between atoms: C15_15  and  N5_45 
REMARK   11  A    between atoms: C18_18  and  N7_47 
REMARK   12  A    between atoms: C21_21  and  C22_22 
REMARK       I    between atoms: C21_21  and  N7_47 
REMARK   13  A    between atoms: C22_22  and  C23_23 
REMARK   14  A    between atoms: C23_23  and  N8_48 
REMARK   15  A    between atoms: C24_24  and  C25_25 
REMARK       I    between atoms: C24_24  and  N8_48 
REMARK   16  A    between atoms: C27_27  and  N10_50 
REMARK   17  A    between atoms: C30_30  and  C31_31 
REMARK       I    between atoms: C30_30  and  N10_50 
REMARK   18  A    between atoms: C33_33  and  N12_52 
REMARK   19  A    between atoms: C36_36  and  C37_37 
REMARK       I    between atoms: C36_36  and  N12_52 
ROOT
HETATM    1  C21 UNL     1       0.077  -0.632   0.599  1.00  0.00     0.223 C 
HETATM    2  N7  UNL     1      -0.675  -1.242   1.588  1.00  0.00    -0.326 N 
HETATM    3  O4  UNL     1      -0.292   0.285  -0.129  1.00  0.00    -0.273 OA
HETATM    4  H46 UNL     1      -0.251  -1.976   2.142  1.00  0.00     0.169 HD
ENDROOT
BRANCH   2   5
HETATM    5  C18 UNL     1      -1.972  -0.903   1.917  1.00  0.00     0.052 A 
HETATM    6  C17 UNL     1      -2.834   0.068   1.357  1.00  0.00     0.066 A 
HETATM    7  C16 UNL     1      -4.050   0.042   2.034  1.00  0.00     0.105 A 
HETATM    8  N6  UNL     1      -3.922  -0.954   2.989  1.00  0.00    -0.354 N 
HETATM    9  C19 UNL     1      -2.673  -1.520   2.924  1.00  0.00     0.120 A 
HETATM   10  C20 UNL     1      -4.938  -1.349   3.945  1.00  0.00     0.156 C 
BRANCH   7  11
HETATM   11  C15 UNL     1      -5.255   0.846   1.833  1.00  0.00     0.273 C 
HETATM   12  N5  UNL     1      -5.076   1.934   0.999  1.00  0.00    -0.320 N 
HETATM   13  H45 UNL     1      -4.157   2.110   0.622  1.00  0.00     0.169 HD
HETATM   14  O3  UNL     1      -6.319   0.562   2.376  1.00  0.00    -0.266 OA
BRANCH  12  15
HETATM   15  C12 UNL     1      -6.056   2.842   0.646  1.00  0.00     0.053 A 
HETATM   16  C11 UNL     1      -7.421   2.909   1.008  1.00  0.00     0.066 A 
HETATM   17  C10 UNL     1      -8.005   4.005   0.379  1.00  0.00     0.104 A 
HETATM   18  N4  UNL     1      -6.990   4.598  -0.352  1.00  0.00    -0.354 N 
HETATM   19  C13 UNL     1      -5.817   3.905  -0.191  1.00  0.00     0.120 A 
HETATM   20  C14 UNL     1      -7.120   5.789  -1.168  1.00  0.00     0.156 C 
BRANCH  17  21
HETATM   21  C9  UNL     1      -9.381   4.475   0.412  1.00  0.00     0.268 C 
HETATM   22  N3  UNL     1     -10.178   3.892   1.370  1.00  0.00    -0.355 N 
HETATM   23  H44 UNL     1      -9.807   3.139   1.934  1.00  0.00     0.162 HD
HETATM   24  O2  UNL     1      -9.825   5.319  -0.363  1.00  0.00    -0.266 OA
BRANCH  22  25
HETATM   25  C8  UNL     1     -11.614   4.097   1.416  1.00  0.00     0.132 C 
BRANCH  25  26
HETATM   26  C7  UNL     1     -12.347   3.247   0.385  1.00  0.00     0.122 C 
BRANCH  26  27
HETATM   27  C6  UNL     1     -12.203   1.770   0.688  1.00  0.00     0.219 C 
HETATM   28  N2  UNL     1     -12.378   0.967  -0.418  1.00  0.00    -0.360 N 
HETATM   29  H43 UNL     1     -12.519   1.401  -1.321  1.00  0.00     0.162 HD
HETATM   30  O1  UNL     1     -11.970   1.339   1.813  1.00  0.00    -0.274 OA
BRANCH  28  31
HETATM   31  C5  UNL     1     -12.179  -0.473  -0.379  1.00  0.00     0.133 C 
BRANCH  31  32
HETATM   32  C2  UNL     1     -10.745  -0.923  -0.772  1.00  0.00    -0.006 C 
HETATM   33  C1  UNL     1     -10.362  -0.345  -2.151  1.00  0.00     0.018 C 
HETATM   34  C3  UNL     1      -9.708  -0.437   0.260  1.00  0.00     0.018 C 
BRANCH  32  35
HETATM   35  C4  UNL     1     -10.700  -2.473  -0.888  1.00  0.00     0.276 C 
BRANCH  35  36
HETATM   36  N1  UNL     1     -11.086  -3.180   0.329  1.00  0.00     0.079 N 
HETATM   37  H41 UNL     1     -10.958  -4.183   0.195  1.00  0.00     0.312 HD
HETATM   38  H42 UNL     1     -10.465  -2.919   1.095  1.00  0.00     0.312 HD
ENDBRANCH  35  36
ENDBRANCH  32  35
ENDBRANCH  31  32
ENDBRANCH  28  31
ENDBRANCH  26  27
ENDBRANCH  25  26
ENDBRANCH  22  25
ENDBRANCH  17  21
ENDBRANCH  12  15
ENDBRANCH   7  11
ENDBRANCH   2   5
BRANCH   1  39
HETATM   39  C22 UNL     1       1.450  -1.261   0.473  1.00  0.00     0.123 C 
BRANCH  39  40
HETATM   40  C23 UNL     1       2.345  -0.450  -0.457  1.00  0.00     0.132 C 
BRANCH  40  41
HETATM   41  N8  UNL     1       3.634  -1.080  -0.690  1.00  0.00    -0.355 N 
HETATM   42  C24 UNL     1       4.594  -1.131   0.300  1.00  0.00     0.268 C 
HETATM   43  O5  UNL     1       4.374  -0.760   1.448  1.00  0.00    -0.266 OA
HETATM   44  H47 UNL     1       3.984  -1.059  -1.639  1.00  0.00     0.162 HD
BRANCH  42  45
HETATM   45  C25 UNL     1       5.892  -1.596  -0.143  1.00  0.00     0.104 A 
HETATM   46  C26 UNL     1       7.122  -1.117   0.290  1.00  0.00     0.066 A 
HETATM   47  C27 UNL     1       8.148  -1.811  -0.395  1.00  0.00     0.053 A 
HETATM   48  C28 UNL     1       7.527  -2.730  -1.204  1.00  0.00     0.120 A 
HETATM   49  N9  UNL     1       6.170  -2.624  -1.023  1.00  0.00    -0.354 N 
HETATM   50  C29 UNL     1       5.215  -3.538  -1.614  1.00  0.00     0.156 C 
BRANCH  47  51
HETATM   51  N10 UNL     1       9.501  -1.587  -0.234  1.00  0.00    -0.320 N 
HETATM   52  C30 UNL     1      10.515  -2.207  -0.939  1.00  0.00     0.273 C 
HETATM   53  O6  UNL     1      10.361  -2.978  -1.880  1.00  0.00    -0.266 OA
HETATM   54  H48 UNL     1       9.755  -0.846   0.404  1.00  0.00     0.169 HD
BRANCH  52  55
HETATM   55  C31 UNL     1      11.839  -1.807  -0.493  1.00  0.00     0.105 A 
HETATM   56  C32 UNL     1      12.914  -1.464  -1.303  1.00  0.00     0.066 A 
HETATM   57  C33 UNL     1      14.010  -1.115  -0.478  1.00  0.00     0.053 A 
HETATM   58  C34 UNL     1      13.596  -1.290   0.820  1.00  0.00     0.120 A 
HETATM   59  N11 UNL     1      12.303  -1.752   0.806  1.00  0.00    -0.354 N 
HETATM   60  C35 UNL     1      11.600  -2.195   1.992  1.00  0.00     0.156 C 
BRANCH  57  61
HETATM   61  N12 UNL     1      15.242  -0.695  -0.937  1.00  0.00    -0.321 N 
HETATM   62  C36 UNL     1      16.333  -0.344  -0.160  1.00  0.00     0.263 C 
HETATM   63  O7  UNL     1      16.343  -0.353   1.069  1.00  0.00    -0.267 OA
HETATM   64  H49 UNL     1      15.353  -0.645  -1.941  1.00  0.00     0.169 HD
BRANCH  62  65
HETATM   65  C37 UNL     1      17.519   0.056  -0.919  1.00  0.00     0.074 A 
HETATM   66  C38 UNL     1      18.740   0.451  -0.394  1.00  0.00     0.026 A 
HETATM   67  C39 UNL     1      19.696   0.779  -1.401  1.00  0.00     0.028 A 
HETATM   68  C40 UNL     1      19.162   0.621  -2.653  1.00  0.00     0.052 A 
HETATM   69  S1  UNL     1      17.555   0.093  -2.637  1.00  0.00    -0.077 SA
HETATM   70 BR1  UNL     1      20.132   0.963  -4.264  1.00  0.00    -0.043 Br
ENDBRANCH  62  65
ENDBRANCH  57  61
ENDBRANCH  52  55
ENDBRANCH  47  51
ENDBRANCH  42  45
ENDBRANCH  40  41
ENDBRANCH  39  40
ENDBRANCH   1  39
TORSDOF 19
