REMARK  0 active torsions:
REMARK  status: ('A' for Active; 'I' for Inactive)
REMARK       I    between atoms: C1_1  and  C2_2 
REMARK       I    between atoms: C1_1  and  C69_69 
REMARK       I    between atoms: C1_1  and  N18_101 
REMARK       I    between atoms: C2_2  and  N1_84 
REMARK       I    between atoms: C3_3  and  C4_4 
REMARK       I    between atoms: C3_3  and  C65_65 
REMARK       I    between atoms: C3_3  and  N1_84 
REMARK       I    between atoms: C4_4  and  N2_85 
REMARK       I    between atoms: C5_5  and  C6_6 
REMARK       I    between atoms: C5_5  and  C61_61 
REMARK       I    between atoms: C5_5  and  N2_85 
REMARK       I    between atoms: C6_6  and  N3_86 
REMARK       I    between atoms: C7_7  and  C8_8 
REMARK       I    between atoms: C7_7  and  C57_57 
REMARK       I    between atoms: C7_7  and  N3_86 
REMARK       I    between atoms: C8_8  and  N4_87 
REMARK       I    between atoms: C9_9  and  C10_10 
REMARK       I    between atoms: C9_9  and  C54_54 
REMARK       I    between atoms: C9_9  and  N4_87 
REMARK       I    between atoms: C10_10  and  N5_88 
REMARK       I    between atoms: C11_11  and  C12_12 
REMARK       I    between atoms: C11_11  and  N5_88 
REMARK       I    between atoms: C12_12  and  N6_89 
REMARK       I    between atoms: C13_13  and  C14_14 
REMARK       I    between atoms: C13_13  and  C50_50 
REMARK       I    between atoms: C13_13  and  N6_89 
REMARK       I    between atoms: C14_14  and  N7_90 
REMARK       I    between atoms: C15_15  and  C16_16 
REMARK       I    between atoms: C15_15  and  C46_46 
REMARK       I    between atoms: C15_15  and  N7_90 
REMARK       I    between atoms: C16_16  and  N8_91 
REMARK       I    between atoms: C17_17  and  C18_18 
REMARK       I    between atoms: C17_17  and  C42_42 
REMARK       I    between atoms: C17_17  and  N8_91 
REMARK       I    between atoms: C18_18  and  N9_92 
REMARK       I    between atoms: C19_19  and  C20_20 
REMARK       I    between atoms: C19_19  and  C33_33 
REMARK       I    between atoms: C19_19  and  N9_92 
REMARK       I    between atoms: C20_20  and  N10_93 
REMARK       I    between atoms: C21_21  and  C22_22 
REMARK       I    between atoms: C21_21  and  C29_29 
REMARK       I    between atoms: C21_21  and  N10_93 
REMARK       I    between atoms: C22_22  and  N11_94 
REMARK       I    between atoms: C23_23  and  C24_24 
REMARK       I    between atoms: C23_23  and  C25_25 
REMARK       I    between atoms: C23_23  and  N11_94 
REMARK       I    between atoms: C24_24  and  N12_95 
REMARK       I    between atoms: C25_25  and  C26_26 
REMARK       I    between atoms: C26_26  and  C27_27 
REMARK       I    between atoms: C27_27  and  C28_28 
REMARK       I    between atoms: C28_28  and  N13_96 
REMARK       I    between atoms: C29_29  and  C30_30 
REMARK       I    between atoms: C30_30  and  C31_31 
REMARK       I    between atoms: C31_31  and  C32_32 
REMARK       I    between atoms: C32_32  and  N14_97 
REMARK       I    between atoms: C33_33  and  C34_34 
REMARK       I    between atoms: C42_42  and  C44_44 
REMARK       I    between atoms: C46_46  and  C47_47 
REMARK       I    between atoms: C47_47  and  C48_48 
REMARK       I    between atoms: C48_48  and  C49_49 
REMARK       I    between atoms: C49_49  and  N16_99 
REMARK       I    between atoms: C57_57  and  C58_58 
REMARK       I    between atoms: C61_61  and  C62_62 
REMARK       I    between atoms: C65_65  and  C66_66 
REMARK       I    between atoms: C66_66  and  C67_67 
REMARK       I    between atoms: C67_67  and  C68_68 
REMARK       I    between atoms: C68_68  and  N17_100 
ROOT
HETATM    1  C1  UNL     1       8.517  -4.649  -8.807  1.00  0.00     0.312 C 
HETATM    2  C2  UNL     1       7.846  -3.271  -8.564  1.00  0.00     0.251 C 
HETATM    3  C3  UNL     1       8.231  -1.018  -7.534  1.00  0.00     0.176 C 
HETATM    4  C4  UNL     1       7.696  -1.239  -6.095  1.00  0.00     0.241 C 
HETATM    5  C5  UNL     1       7.069  -0.103  -3.972  1.00  0.00     0.177 C 
HETATM    6  C6  UNL     1       6.357   1.254  -3.836  1.00  0.00     0.241 C 
HETATM    7  C7  UNL     1       4.187   2.424  -4.214  1.00  0.00     0.180 C 
HETATM    8  C8  UNL     1       2.755   2.107  -3.714  1.00  0.00     0.241 C 
HETATM    9  C9  UNL     1       1.505   0.718  -2.051  1.00  0.00     0.180 C 
HETATM   10  C10 UNL     1       1.958   0.073  -0.723  1.00  0.00     0.241 C 
HETATM   11  C11 UNL     1       1.257  -0.502   1.586  1.00  0.00     0.172 C 
HETATM   12  C12 UNL     1      -0.088  -0.985   2.171  1.00  0.00     0.240 C 
HETATM   13  C13 UNL     1      -1.168  -2.011   4.151  1.00  0.00     0.180 C 
HETATM   14  C14 UNL     1      -1.014  -1.343   5.531  1.00  0.00     0.241 C 
HETATM   15  C15 UNL     1      -2.262  -0.483   7.507  1.00  0.00     0.176 C 
HETATM   16  C16 UNL     1      -3.278  -1.244   8.395  1.00  0.00     0.241 C 
HETATM   17  C17 UNL     1      -5.509  -2.416   8.343  1.00  0.00     0.180 C 
HETATM   18  C18 UNL     1      -6.495  -2.664   7.176  1.00  0.00     0.241 C 
HETATM   19  C19 UNL     1      -7.146  -1.613   5.026  1.00  0.00     0.181 C 
HETATM   20  C20 UNL     1      -5.804  -1.462   4.247  1.00  0.00     0.241 C 
HETATM   21  C21 UNL     1      -4.746  -1.120   2.051  1.00  0.00     0.176 C 
HETATM   22  C22 UNL     1      -4.522   0.412   2.073  1.00  0.00     0.241 C 
HETATM   23  C23 UNL     1      -2.916   2.214   1.508  1.00  0.00     0.176 C 
HETATM   24  C24 UNL     1      -2.038   2.391   0.261  1.00  0.00     0.238 C 
HETATM   25  C25 UNL     1      -2.153   2.490   2.807  1.00  0.00     0.035 C 
HETATM   26  C26 UNL     1      -1.681   3.937   2.997  1.00  0.00     0.004 C 
HETATM   27  C27 UNL     1      -2.818   4.956   3.150  1.00  0.00     0.030 C 
HETATM   28  C28 UNL     1      -3.083   5.744   1.867  1.00  0.00     0.267 C 
HETATM   29  C29 UNL     1      -4.870  -1.664   0.621  1.00  0.00     0.035 C 
HETATM   30  C30 UNL     1      -6.022  -1.051  -0.186  1.00  0.00     0.004 C 
HETATM   31  C31 UNL     1      -5.967  -1.498  -1.650  1.00  0.00     0.030 C 
HETATM   32  C32 UNL     1      -7.120  -0.957  -2.497  1.00  0.00     0.267 C 
HETATM   33  C33 UNL     1      -8.160  -0.510   4.691  1.00  0.00     0.075 C 
HETATM   34  C34 UNL     1      -9.005  -0.793   3.482  1.00  0.00    -0.028 A 
HETATM   35  C35 UNL     1      -9.819  -1.893   3.294  1.00  0.00     0.096 A 
HETATM   36  C36 UNL     1     -10.040  -0.616   1.456  1.00  0.00     0.042 A 
HETATM   37  C37 UNL     1      -9.151   0.029   2.316  1.00  0.00    -0.002 A 
HETATM   38  C38 UNL     1      -8.607   1.265   1.909  1.00  0.00     0.014 A 
HETATM   39  C39 UNL     1      -8.975   1.810   0.674  1.00  0.00     0.001 A 
HETATM   40  C40 UNL     1      -9.869   1.143  -0.158  1.00  0.00     0.002 A 
HETATM   41  C41 UNL     1     -10.416  -0.088   0.215  1.00  0.00     0.030 A 
HETATM   42  C42 UNL     1      -6.180  -1.818   9.605  1.00  0.00     0.013 C 
HETATM   43  C43 UNL     1      -6.756  -0.413   9.394  1.00  0.00     0.012 C 
HETATM   44  C44 UNL     1      -7.246  -2.792  10.156  1.00  0.00     0.002 C 
HETATM   45  C45 UNL     1      -7.773  -2.405  11.531  1.00  0.00     0.005 C 
HETATM   46  C46 UNL     1      -2.670   0.997   7.433  1.00  0.00     0.035 C 
HETATM   47  C47 UNL     1      -1.684   1.904   6.688  1.00  0.00     0.004 C 
HETATM   48  C48 UNL     1      -0.347   2.078   7.411  1.00  0.00     0.030 C 
HETATM   49  C49 UNL     1       0.590   2.986   6.613  1.00  0.00     0.267 C 
HETATM   50  C50 UNL     1      -1.408  -3.529   4.283  1.00  0.00     0.009 C 
HETATM   51  C51 UNL     1      -0.213  -4.279   4.880  1.00  0.00     0.012 C 
HETATM   52  C52 UNL     1      -1.783  -4.148   2.933  1.00  0.00     0.012 C 
HETATM   53  C53 UNL     1       1.917   0.530   2.494  1.00  0.00     0.042 C 
HETATM   54  C54 UNL     1       0.656  -0.227  -2.936  1.00  0.00     0.009 C 
HETATM   55  C55 UNL     1      -0.741  -0.476  -2.363  1.00  0.00     0.012 C 
HETATM   56  C56 UNL     1       1.349  -1.564  -3.221  1.00  0.00     0.012 C 
HETATM   57  C57 UNL     1       4.268   3.033  -5.635  1.00  0.00     0.013 C 
HETATM   58  C58 UNL     1       3.704   4.463  -5.759  1.00  0.00     0.002 C 
HETATM   59  C59 UNL     1       4.364   5.471  -4.829  1.00  0.00     0.005 C 
HETATM   60  C60 UNL     1       3.613   2.130  -6.691  1.00  0.00     0.012 C 
HETATM   61  C61 UNL     1       8.238  -0.267  -2.991  1.00  0.00     0.038 C 
HETATM   62  C62 UNL     1       7.822  -0.788  -1.599  1.00  0.00    -0.020 C 
HETATM   63  C63 UNL     1       6.873   0.156  -0.859  1.00  0.00     0.009 C 
HETATM   64  C64 UNL     1       9.070  -1.033  -0.746  1.00  0.00     0.009 C 
HETATM   65  C65 UNL     1       7.246  -0.289  -8.466  1.00  0.00     0.035 C 
HETATM   66  C66 UNL     1       7.044   1.215  -8.237  1.00  0.00     0.004 C 
HETATM   67  C67 UNL     1       8.313   2.058  -8.395  1.00  0.00     0.030 C 
HETATM   68  C68 UNL     1       8.067   3.551  -8.147  1.00  0.00     0.267 C 
HETATM   69  C69 UNL     1       9.202  -4.760 -10.190  1.00  0.00     0.020 C 
HETATM   70  C70 UNL     1       8.255  -4.522 -11.372  1.00  0.00     0.012 C 
HETATM   71  C71 UNL     1      10.415  -3.832 -10.308  1.00  0.00     0.012 C 
HETATM   72  O1  UNL     1       6.658  -3.079  -8.812  1.00  0.00    -0.271 OA
HETATM   73  O2  UNL     1       7.445  -2.348  -5.627  1.00  0.00    -0.271 OA
HETATM   74  O3  UNL     1       6.958   2.305  -3.630  1.00  0.00    -0.271 OA
HETATM   75  O4  UNL     1       1.751   2.726  -4.052  1.00  0.00    -0.271 OA
HETATM   76  O5  UNL     1       3.076  -0.426  -0.586  1.00  0.00    -0.271 OA
HETATM   77  O6  UNL     1      -1.174  -0.777   1.624  1.00  0.00    -0.271 OA
HETATM   78  O7  UNL     1       0.089  -1.105   6.020  1.00  0.00    -0.271 OA
HETATM   79  O8  UNL     1      -3.109  -1.398   9.600  1.00  0.00    -0.271 OA
HETATM   80  O9  UNL     1      -6.999  -3.756   6.938  1.00  0.00    -0.271 OA
HETATM   81  O10 UNL     1      -4.713  -1.369   4.828  1.00  0.00    -0.271 OA
HETATM   82  O11 UNL     1      -5.322   1.200   2.574  1.00  0.00    -0.271 OA
HETATM   83  O12 UNL     1      -0.835   2.141   0.219  1.00  0.00    -0.271 OA
HETATM   84  N1  UNL     1       8.700  -2.307  -8.062  1.00  0.00    -0.346 N 
HETATM   85  N2  UNL     1       7.555  -0.091  -5.352  1.00  0.00    -0.346 N 
HETATM   86  N3  UNL     1       5.009   1.206  -4.118  1.00  0.00    -0.346 N 
HETATM   87  N4  UNL     1       2.723   1.132  -2.742  1.00  0.00    -0.346 N 
HETATM   88  N5  UNL     1       1.011   0.063   0.268  1.00  0.00    -0.346 N 
HETATM   89  N6  UNL     1       0.009  -1.679   3.356  1.00  0.00    -0.346 N 
HETATM   90  N7  UNL     1      -2.207  -1.079   6.166  1.00  0.00    -0.346 N 
HETATM   91  N8  UNL     1      -4.450  -1.578   7.750  1.00  0.00    -0.346 N 
HETATM   92  N9  UNL     1      -6.773  -1.523   6.441  1.00  0.00    -0.346 N 
HETATM   93  N10 UNL     1      -5.901  -1.471   2.872  1.00  0.00    -0.346 N 
HETATM   94  N11 UNL     1      -3.356   0.823   1.471  1.00  0.00    -0.346 N 
HETATM   95  N12 UNL     1      -2.714   2.734  -0.877  1.00  0.00    -0.368 N 
HETATM   96  N13 UNL     1      -4.173   6.689   2.077  1.00  0.00     0.078 N 
HETATM   97  N14 UNL     1      -7.108   0.501  -2.571  1.00  0.00     0.078 N 
HETATM   98  N15 UNL     1     -10.433  -1.778   2.077  1.00  0.00    -0.365 N 
HETATM   99  N16 UNL     1       1.875   3.136   7.286  1.00  0.00     0.078 N 
HETATM  100  N17 UNL     1       7.125   4.114  -9.104  1.00  0.00     0.078 N 
HETATM  101  N18 UNL     1       7.498  -5.710  -8.633  1.00  0.00     0.092 N 
HETATM  102  HA3 UNL     1       9.533  -2.669  -7.615  1.00  0.00     0.163 HD
HETATM  103  HA4 UNL     1       7.961   0.777  -5.681  1.00  0.00     0.163 HD
HETATM  104  HA5 UNL     1       4.624   0.351  -4.506  1.00  0.00     0.163 HD
HETATM  105  HA6 UNL     1       3.602   0.750  -2.402  1.00  0.00     0.163 HD
HETATM  106  HA7 UNL     1       0.220   0.708   0.184  1.00  0.00     0.163 HD
HETATM  107  HA8 UNL     1       0.891  -1.677   3.862  1.00  0.00     0.163 HD
HETATM  108  HA9 UNL     1      -3.047  -1.066   5.586  1.00  0.00     0.163 HD
HETATM  109  HB0 UNL     1      -4.351  -1.685   6.744  1.00  0.00     0.163 HD
HETATM  110  HB1 UNL     1      -6.209  -0.716   6.690  1.00  0.00     0.163 HD
HETATM  111  HB2 UNL     1      -6.805  -1.248   2.474  1.00  0.00     0.163 HD
HETATM  112  HB3 UNL     1      -2.616   0.125   1.339  1.00  0.00     0.163 HD
HETATM  113  HB4 UNL     1      -2.187   2.723  -1.742  1.00  0.00     0.159 HD
HETATM  114  HB5 UNL     1      -3.708   2.548  -0.952  1.00  0.00     0.159 HD
HETATM  115  HB6 UNL     1      -5.030   6.188   2.306  1.00  0.00     0.312 HD
HETATM  116  HB7 UNL     1      -4.356   7.196   1.212  1.00  0.00     0.312 HD
HETATM  117  HB8 UNL     1      -7.382   0.879  -1.663  1.00  0.00     0.312 HD
HETATM  118  HB9 UNL     1      -7.836   0.803  -3.219  1.00  0.00     0.312 HD
HETATM  119  HC0 UNL     1     -11.095  -2.439   1.692  1.00  0.00     0.165 HD
HETATM  120  HC1 UNL     1       2.300   2.217   7.408  1.00  0.00     0.312 HD
HETATM  121  HC2 UNL     1       1.728   3.499   8.227  1.00  0.00     0.312 HD
HETATM  122  HC3 UNL     1       7.017   5.112  -8.928  1.00  0.00     0.312 HD
HETATM  123  HC4 UNL     1       7.498   4.030 -10.049  1.00  0.00     0.312 HD
HETATM  124  HC5 UNL     1       7.119  -5.621  -7.687  1.00  0.00     0.313 HD
HETATM  125  HC6 UNL     1       6.699  -5.456  -9.223  1.00  0.00     0.313 HD
ENDROOT
TORSDOF 55
