REMARK  23 active torsions:
REMARK  status: ('A' for Active; 'I' for Inactive)
REMARK    1  A    between atoms: C2_2  and  C4_4 
REMARK    2  A    between atoms: C4_4  and  C5_5 
REMARK    3  A    between atoms: C4_4  and  N15_79 
REMARK       I    between atoms: C5_5  and  N1_59 
REMARK    4  A    between atoms: C6_6  and  C7_7 
REMARK    5  A    between atoms: C6_6  and  C12_12 
REMARK    6  A    between atoms: C6_6  and  N1_59 
REMARK    7  A    between atoms: C7_7  and  C8_8 
REMARK    8  A    between atoms: C8_8  and  C9_9 
REMARK    9  A    between atoms: C9_9  and  C10_10 
REMARK   10  A    between atoms: C10_10  and  N2_60 
REMARK       I    between atoms: C11_11  and  N2_60 
REMARK       I    between atoms: C11_11  and  N3_61 
REMARK       I    between atoms: C12_12  and  N4_62 
REMARK   11  A    between atoms: C13_13  and  C14_14 
REMARK   12  A    between atoms: C13_13  and  N4_62 
REMARK   13  A    between atoms: C14_14  and  C15_15 
REMARK   14  A    between atoms: C15_15  and  C16_16 
REMARK       I    between atoms: C16_16  and  N5_63 
REMARK   15  A    between atoms: C17_17  and  N5_63 
REMARK   16  A    between atoms: C22_22  and  N8_68 
REMARK   17  A    between atoms: C30_30  and  N10_71 
REMARK   18  A    between atoms: C34_34  and  N14_78 
REMARK   19  A    between atoms: C37_37  and  C38_38 
REMARK       I    between atoms: C37_37  and  N15_79 
REMARK   20  A    between atoms: C38_38  and  C39_39 
REMARK   21  A    between atoms: C39_39  and  N16_80 
REMARK   22  A    between atoms: O11_54  and  P2_82 
REMARK   23  A    between atoms: P1_81  and  S2_84 
ROOT
HETATM    1  C17 UNL     1      -0.928   0.931  -3.171  1.00  0.00     0.139 A 
HETATM    2  C18 UNL     1      -0.675   2.102  -2.446  1.00  0.00     0.122 A 
HETATM    3  C19 UNL     1       0.088   1.975  -1.296  1.00  0.00     0.142 A 
HETATM    4  C20 UNL     1       0.342  -0.211  -1.600  1.00  0.00     0.183 A 
HETATM    5  C21 UNL     1      -0.557   4.061  -1.624  1.00  0.00     0.188 A 
HETATM    6  N6  UNL     1       0.650   0.848  -0.826  1.00  0.00    -0.336 N 
ATOM      7  H6  UNL     1       1.234   0.801   0.009  1.00  0.00     0.168 HD
HETATM    8  N7  UNL     1      -0.434  -0.241  -2.702  1.00  0.00    -0.337 N 
ATOM      9  H7  UNL     1      -0.644  -1.122  -3.171  1.00  0.00     0.168 HD
HETATM   10  N8  UNL     1       0.129   3.234  -0.765  1.00  0.00    -0.297 N 
HETATM   11  N9  UNL     1      -1.052   3.410  -2.655  1.00  0.00    -0.346 N 
ATOM     12  H9  UNL     1      -1.593   3.788  -3.433  1.00  0.00     0.167 HD
ENDROOT
BRANCH   1  13
HETATM   13  N5  UNL     1      -1.657   1.040  -4.361  1.00  0.00    -0.311 N 
HETATM   14  C16 UNL     1      -2.116  -0.011  -5.112  1.00  0.00     0.223 C 
HETATM   15  O4  UNL     1      -2.008  -1.201  -4.820  1.00  0.00    -0.273 OA
HETATM   16  H52 UNL     1      -1.880   1.991  -4.628  1.00  0.00     0.170 HD
BRANCH  14  17
HETATM   17  C15 UNL     1      -2.743   0.386  -6.439  1.00  0.00     0.105 C 
BRANCH  17  18
HETATM   18  C14 UNL     1      -3.706   1.574  -6.456  1.00  0.00     0.029 C 
BRANCH  18  19
HETATM   19  C13 UNL     1      -4.723   1.667  -5.317  1.00  0.00     0.123 C 
BRANCH  19  20
HETATM   20  N4  UNL     1      -5.155   0.401  -4.791  1.00  0.00    -0.359 N 
HETATM   21  C12 UNL     1      -5.918  -0.511  -5.480  1.00  0.00     0.240 C 
HETATM   22  O3  UNL     1      -6.309  -0.322  -6.629  1.00  0.00    -0.271 OA
HETATM   23  H51 UNL     1      -4.986   0.204  -3.801  1.00  0.00     0.162 HD
BRANCH  21  24
HETATM   24  C6  UNL     1      -6.320  -1.763  -4.665  1.00  0.00     0.176 C 
BRANCH  24  25
HETATM   25  C7  UNL     1      -7.454  -1.420  -3.677  1.00  0.00     0.035 C 
BRANCH  25  26
HETATM   26  C8  UNL     1      -7.880  -2.589  -2.773  1.00  0.00     0.004 C 
BRANCH  26  27
HETATM   27  C9  UNL     1      -7.553  -2.305  -1.304  1.00  0.00     0.020 C 
BRANCH  27  28
HETATM   28  C10 UNL     1      -7.632  -3.550  -0.426  1.00  0.00     0.124 C 
BRANCH  28  29
HETATM   29  N2  UNL     1      -6.971  -3.319   0.843  1.00  0.00    -0.343 N 
HETATM   30  C11 UNL     1      -7.607  -2.675   1.861  1.00  0.00     0.313 C 
HETATM   31  O2  UNL     1      -8.791  -2.375   1.894  1.00  0.00    -0.248 OA
HETATM   32  N3  UNL     1      -6.767  -2.382   2.885  1.00  0.00    -0.352 N 
HETATM   33  H49 UNL     1      -7.234  -2.048   3.716  1.00  0.00     0.160 HD
HETATM   34  H50 UNL     1      -6.004  -3.024   3.047  1.00  0.00     0.160 HD
HETATM   35  H48 UNL     1      -5.969  -3.136   0.786  1.00  0.00     0.164 HD
ENDBRANCH  28  29
ENDBRANCH  27  28
ENDBRANCH  26  27
ENDBRANCH  25  26
ENDBRANCH  24  25
BRANCH  24  36
HETATM   36  N1  UNL     1      -5.154  -2.437  -4.068  1.00  0.00    -0.346 N 
HETATM   37  C5  UNL     1      -4.458  -1.992  -2.971  1.00  0.00     0.241 C 
HETATM   38  O1  UNL     1      -4.684  -0.879  -2.486  1.00  0.00    -0.271 OA
HETATM   39  H47 UNL     1      -4.640  -3.046  -4.693  1.00  0.00     0.163 HD
BRANCH  37  40
HETATM   40  C4  UNL     1      -3.336  -2.935  -2.433  1.00  0.00     0.180 C 
BRANCH  40  41
HETATM   41  C2  UNL     1      -3.769  -4.376  -2.042  1.00  0.00     0.009 C 
HETATM   42  C1  UNL     1      -2.636  -5.119  -1.312  1.00  0.00     0.012 C 
HETATM   43  C3  UNL     1      -4.179  -5.232  -3.249  1.00  0.00     0.012 C 
ENDBRANCH  40  41
BRANCH  40  44
HETATM   44  N15 UNL     1      -2.670  -2.191  -1.348  1.00  0.00    -0.347 N 
HETATM   45  C37 UNL     1      -3.282  -1.986  -0.126  1.00  0.00     0.219 C 
HETATM   46  O13 UNL     1      -4.277  -2.599   0.252  1.00  0.00    -0.274 OA
HETATM   47  H55 UNL     1      -2.091  -1.431  -1.697  1.00  0.00     0.163 HD
BRANCH  45  48
HETATM   48  C38 UNL     1      -2.570  -0.983   0.756  1.00  0.00     0.123 C 
BRANCH  48  49
HETATM   49  C39 UNL     1      -3.553  -0.311   1.709  1.00  0.00     0.145 C 
BRANCH  49  50
HETATM   50  N16 UNL     1      -2.878   0.394   2.784  1.00  0.00    -0.281 N 
HETATM   51  C40 UNL     1      -2.203   1.563   2.661  1.00  0.00     0.250 A 
HETATM   52  C41 UNL     1      -1.685   1.902   3.991  1.00  0.00     0.080 A 
HETATM   53  O14 UNL     1      -1.996   2.233   1.663  1.00  0.00    -0.268 OA
HETATM   54  C42 UNL     1      -2.024   0.917   4.823  1.00  0.00     0.080 A 
HETATM   55  C43 UNL     1      -2.783  -0.074   4.056  1.00  0.00     0.250 A 
HETATM   56  O15 UNL     1      -3.219  -1.109   4.526  1.00  0.00    -0.268 OA
ENDBRANCH  49  50
ENDBRANCH  48  49
ENDBRANCH  45  48
ENDBRANCH  40  44
ENDBRANCH  37  40
ENDBRANCH  24  36
ENDBRANCH  21  24
ENDBRANCH  19  20
ENDBRANCH  18  19
ENDBRANCH  17  18
ENDBRANCH  14  17
ENDBRANCH   1  13
BRANCH  10  57
HETATM   57  C22 UNL     1       0.759   3.685   0.456  1.00  0.00     0.267 C 
HETATM   58  C23 UNL     1       1.128   2.632   1.508  1.00  0.00     0.251 C 
HETATM   59  C24 UNL     1       2.606   2.437   1.258  1.00  0.00     0.201 C 
HETATM   60  F2  UNL     1       0.968   3.193   2.747  1.00  0.00    -0.242 F 
HETATM   61  C25 UNL     1       3.016   3.878   0.971  1.00  0.00     0.181 C 
HETATM   62  O10 UNL     1       3.369   1.913   2.324  1.00  0.00    -0.303 OA
HETATM   63  C26 UNL     1       4.418   3.946   0.354  1.00  0.00     0.213 C 
HETATM   64  O5  UNL     1       1.996   4.356   0.071  1.00  0.00    -0.353 OA
HETATM   65  O6  UNL     1       5.255   4.967   0.884  1.00  0.00    -0.304 OA
HETATM   66  P1  UNL     1       5.710   5.011   2.434  1.00  0.00     0.388 P 
HETATM   67  O7  UNL     1       4.675   4.489   3.380  1.00  0.00    -0.246 OA
HETATM   68  O8  UNL     1       7.070   4.141   2.493  1.00  0.00    -0.295 OA
HETATM   69  C27 UNL     1       7.122   2.746   2.204  1.00  0.00     0.201 C 
HETATM   70  C28 UNL     1       6.389   1.885   3.244  1.00  0.00     0.181 C 
HETATM   71  C31 UNL     1       8.556   2.273   2.371  1.00  0.00     0.251 C 
HETATM   72  C29 UNL     1       5.903   0.544   2.666  1.00  0.00     0.213 C 
HETATM   73  O12 UNL     1       7.337   1.633   4.312  1.00  0.00    -0.353 OA
HETATM   74  O9  UNL     1       4.745   0.085   3.365  1.00  0.00    -0.311 OA
HETATM   75  P2  UNL     1       3.285   0.364   2.738  1.00  0.00     0.327 P 
HETATM   76  S1  UNL     1       1.763  -0.257   3.728  1.00  0.00    -0.007 SA
HETATM   77  C30 UNL     1       8.639   2.074   3.873  1.00  0.00     0.267 C 
HETATM   78  F1  UNL     1       9.436   3.207   1.938  1.00  0.00    -0.242 F 
BRANCH  66  79
HETATM   79  S2  UNL     1       6.186   6.974   2.933  1.00  0.00    -0.058 SA
HETATM   80  H56 UNL     1       6.324   6.726   4.240  1.00  0.00     0.114 HD
ENDBRANCH  66  79
BRANCH  75  81
HETATM   81  O11 UNL     1       3.437  -0.377   1.316  1.00  0.00    -0.324 OA
HETATM   82  H46 UNL     1       3.224  -1.328   1.405  1.00  0.00     0.220 HD
ENDBRANCH  75  81
BRANCH  77  83
HETATM   83  N10 UNL     1       9.635   1.135   4.335  1.00  0.00    -0.297 N 
HETATM   84  C32 UNL     1      10.532   1.379   5.344  1.00  0.00     0.188 A 
HETATM   85  N11 UNL     1      11.328   0.353   5.558  1.00  0.00    -0.346 N 
HETATM   86  C33 UNL     1      10.922  -0.601   4.649  1.00  0.00     0.116 A 
ATOM     87  H11 UNL     1      12.079   0.280   6.244  1.00  0.00     0.167 HD
HETATM   88  C34 UNL     1      11.371  -1.906   4.385  1.00  0.00     0.109 A 
HETATM   89  C36 UNL     1       9.864  -0.137   3.882  1.00  0.00     0.142 A 
HETATM   90  N12 UNL     1      10.740  -2.625   3.430  1.00  0.00    -0.341 N 
HETATM   91  C35 UNL     1       9.726  -2.043   2.757  1.00  0.00     0.183 A 
ATOM     92  H12 UNL     1      11.023  -3.583   3.224  1.00  0.00     0.167 HD
HETATM   93  N13 UNL     1       9.219  -0.801   2.907  1.00  0.00    -0.336 N 
ATOM     94  H13 UNL     1       8.451  -0.418   2.356  1.00  0.00     0.168 HD
BRANCH  88  95
HETATM   95  N14 UNL     1      12.422  -2.502   5.070  1.00  0.00    -0.287 NA
HETATM   96  H53 UNL     1      12.619  -2.066   5.964  1.00  0.00     0.125 HD
HETATM   97  H54 UNL     1      12.379  -3.511   5.037  1.00  0.00     0.125 HD
ENDBRANCH  88  95
ENDBRANCH  77  83
ENDBRANCH  10  57
TORSDOF 23
