REMARK  0 active torsions:
REMARK  status: ('A' for Active; 'I' for Inactive)
REMARK       I    between atoms: C3_3  and  C17_17 
REMARK       I    between atoms: C5_5  and  C6_6 
REMARK       I    between atoms: C6_6  and  C7_7 
REMARK       I    between atoms: C7_7  and  C8_8 
REMARK       I    between atoms: C8_8  and  C9_9 
REMARK       I    between atoms: C9_9  and  C10_10 
REMARK       I    between atoms: C10_10  and  C11_11 
REMARK       I    between atoms: C11_11  and  C12_12 
REMARK       I    between atoms: C12_12  and  C13_13 
REMARK       I    between atoms: C13_13  and  C14_14 
REMARK       I    between atoms: C14_14  and  N2_59 
REMARK       I    between atoms: C17_17  and  C18_18 
REMARK       I    between atoms: C18_18  and  C19_19 
REMARK       I    between atoms: C21_21  and  C24_24 
REMARK       I    between atoms: C24_24  and  C25_25 
REMARK       I    between atoms: C25_25  and  C26_26 
REMARK       I    between atoms: C27_27  and  N6_64 
REMARK       I    between atoms: C30_30  and  C31_31 
REMARK       I    between atoms: C30_30  and  N6_64 
REMARK       I    between atoms: C31_31  and  C32_32 
REMARK       I    between atoms: C32_32  and  C33_33 
REMARK       I    between atoms: C33_33  and  C34_34 
REMARK       I    between atoms: C34_34  and  C35_35 
REMARK       I    between atoms: C35_35  and  N7_65 
REMARK       I    between atoms: C36_36  and  C37_37 
REMARK       I    between atoms: C36_36  and  N7_65 
REMARK       I    between atoms: C39_39  and  N9_67 
REMARK       I    between atoms: C42_42  and  C43_43 
REMARK       I    between atoms: C42_42  and  N9_67 
REMARK       I    between atoms: C44_44  and  N12_71 
REMARK       I    between atoms: C47_47  and  C48_48 
REMARK       I    between atoms: C47_47  and  N12_71 
REMARK       I    between atoms: C49_49  and  N15_75 
REMARK       I    between atoms: C52_52  and  C53_53 
REMARK       I    between atoms: C52_52  and  N15_75 
REMARK       I    between atoms: C53_53  and  C54_54 
REMARK       I    between atoms: C54_54  and  N16_76 
REMARK       I    between atoms: C55_55  and  C56_56 
REMARK       I    between atoms: C55_55  and  N16_76 
REMARK       I    between atoms: C56_56  and  C57_57 
REMARK       I    between atoms: C57_57  and  N17_77 
ROOT
HETATM    1  C1  UNL     1      -9.228  -0.106  -3.776  1.00  0.00     0.156 C 
HETATM    2  C2  UNL     1      -7.851  -2.074  -3.190  1.00  0.00     0.098 A 
HETATM    3  C3  UNL     1      -7.885  -3.133  -2.309  1.00  0.00    -0.033 A 
HETATM    4  C4  UNL     1      -9.034  -2.929  -1.504  1.00  0.00     0.042 A 
HETATM    5  C5  UNL     1      -9.651  -1.738  -1.871  1.00  0.00     0.080 A 
HETATM    6  C6  UNL     1     -10.840  -1.192  -1.218  1.00  0.00     0.176 C 
HETATM    7  C7  UNL     1     -11.144   0.289  -1.369  1.00  0.00     0.086 C 
HETATM    8  C8  UNL     1     -12.183   0.782  -0.356  1.00  0.00     0.015 C 
HETATM    9  C9  UNL     1     -12.378   2.294  -0.412  1.00  0.00     0.079 C 
HETATM   10  C10 UNL     1     -12.982   2.736  -1.731  1.00  0.00     0.127 C 
HETATM   11  C11 UNL     1     -14.499   2.788  -1.801  1.00  0.00     0.078 C 
HETATM   12  C12 UNL     1     -15.007   3.181  -3.185  1.00  0.00     0.009 C 
HETATM   13  C13 UNL     1     -16.517   3.000  -3.384  1.00  0.00     0.030 C 
HETATM   14  C14 UNL     1     -17.406   3.954  -2.571  1.00  0.00     0.271 C 
HETATM   15  C15 UNL     1     -18.044   4.842  -0.428  1.00  0.00     0.309 C 
HETATM   16  C16 UNL     1     -18.101   2.474  -0.769  1.00  0.00     0.309 C 
HETATM   17  C17 UNL     1      -6.926  -4.277  -2.234  1.00  0.00     0.125 C 
HETATM   18  C18 UNL     1      -5.504  -3.826  -1.926  1.00  0.00     0.180 C 
HETATM   19  C19 UNL     1      -5.163  -3.509  -0.538  1.00  0.00     0.081 A 
HETATM   20  C20 UNL     1      -5.953  -3.594   0.601  1.00  0.00     0.042 A 
HETATM   21  C21 UNL     1      -5.189  -3.187   1.729  1.00  0.00    -0.033 A 
HETATM   22  C22 UNL     1      -3.941  -2.856   1.246  1.00  0.00     0.098 A 
HETATM   23  C23 UNL     1      -2.778  -2.795  -0.952  1.00  0.00     0.156 C 
HETATM   24  C24 UNL     1      -5.649  -3.131   3.149  1.00  0.00     0.127 C 
HETATM   25  C25 UNL     1      -5.489  -4.478   3.835  1.00  0.00     0.197 C 
HETATM   26  C26 UNL     1      -4.234  -4.715   4.534  1.00  0.00     0.155 A 
HETATM   27  C27 UNL     1      -2.291  -4.400   5.396  1.00  0.00     0.125 A 
HETATM   28  C28 UNL     1      -2.603  -5.704   5.672  1.00  0.00     0.140 A 
HETATM   29  C29 UNL     1      -4.585  -7.132   5.157  1.00  0.00     0.157 C 
HETATM   30  C30 UNL     1      -0.080  -4.141   6.394  1.00  0.00     0.223 C 
HETATM   31  C31 UNL     1       1.007  -3.094   6.550  1.00  0.00     0.103 C 
HETATM   32  C32 UNL     1       1.748  -2.820   5.242  1.00  0.00     0.009 C 
HETATM   33  C33 UNL     1       2.455  -4.038   4.635  1.00  0.00     0.002 C 
HETATM   34  C34 UNL     1       3.573  -4.597   5.521  1.00  0.00     0.020 C 
HETATM   35  C35 UNL     1       4.272  -5.806   4.895  1.00  0.00     0.123 C 
HETATM   36  C36 UNL     1       6.156  -4.830   3.633  1.00  0.00     0.268 C 
HETATM   37  C37 UNL     1       6.609  -4.468   2.307  1.00  0.00     0.104 A 
HETATM   38  C38 UNL     1       7.199  -3.266   1.938  1.00  0.00     0.066 A 
HETATM   39  C39 UNL     1       7.462  -3.298   0.548  1.00  0.00     0.053 A 
HETATM   40  C40 UNL     1       7.066  -4.534   0.099  1.00  0.00     0.120 A 
HETATM   41  C41 UNL     1       6.233  -6.652   1.096  1.00  0.00     0.156 C 
HETATM   42  C42 UNL     1       8.287  -2.255  -1.531  1.00  0.00     0.290 C 
HETATM   43  C43 UNL     1       8.879  -0.987  -1.938  1.00  0.00     0.178 A 
HETATM   44  C44 UNL     1       9.655   1.011  -1.807  1.00  0.00     0.125 A 
HETATM   45  C45 UNL     1       9.785   0.652  -3.126  1.00  0.00     0.140 A 
HETATM   46  C46 UNL     1       9.211  -1.432  -4.389  1.00  0.00     0.157 C 
HETATM   47  C47 UNL     1       9.908   2.587   0.037  1.00  0.00     0.291 C 
HETATM   48  C48 UNL     1      10.423   3.935   0.243  1.00  0.00     0.178 A 
HETATM   49  C49 UNL     1      11.304   5.844  -0.191  1.00  0.00     0.125 A 
HETATM   50  C50 UNL     1      11.031   5.863   1.155  1.00  0.00     0.140 A 
HETATM   51  C51 UNL     1      10.018   4.179   2.711  1.00  0.00     0.157 C 
HETATM   52  C52 UNL     1      12.165   6.835  -2.242  1.00  0.00     0.224 C 
HETATM   53  C53 UNL     1      12.786   8.140  -2.710  1.00  0.00     0.123 C 
HETATM   54  C54 UNL     1      13.152   8.109  -4.189  1.00  0.00     0.132 C 
HETATM   55  C55 UNL     1      15.532   7.439  -4.199  1.00  0.00     0.219 C 
HETATM   56  C56 UNL     1      16.455   6.272  -4.489  1.00  0.00     0.132 C 
HETATM   57  C57 UNL     1      17.893   6.505  -4.030  1.00  0.00     0.276 C 
HETATM   58  N1  UNL     1      -8.924  -1.250  -2.942  1.00  0.00    -0.358 N 
HETATM   59  N2  UNL     1     -17.406   3.716  -1.118  1.00  0.00     0.080 N 
HETATM   60  N3  UNL     1      -3.931  -3.048  -0.111  1.00  0.00    -0.358 N 
HETATM   61  N4  UNL     1      -3.296  -3.793   4.699  1.00  0.00    -0.324 N 
ATOM     62  H4  UNL     1      -3.320  -2.827   4.372  1.00  0.00     0.169 HD
HETATM   63  N5  UNL     1      -3.840  -5.896   5.124  1.00  0.00    -0.341 N 
HETATM   64  N6  UNL     1      -1.176  -3.671   5.706  1.00  0.00    -0.312 N 
HETATM   65  N7  UNL     1       4.947  -5.492   3.653  1.00  0.00    -0.356 N 
HETATM   66  N8  UNL     1       6.594  -5.252   1.170  1.00  0.00    -0.354 N 
HETATM   67  N9  UNL     1       8.016  -2.266  -0.176  1.00  0.00    -0.319 N 
HETATM   68  N10 UNL     1       9.098   0.002  -1.083  1.00  0.00    -0.323 N 
ATOM     69  H10 UNL     1       8.891   0.006  -0.084  1.00  0.00     0.169 HD
HETATM   70  N11 UNL     1       9.287  -0.621  -3.198  1.00  0.00    -0.339 N 
HETATM   71  N12 UNL     1      10.033   2.215  -1.284  1.00  0.00    -0.305 N 
HETATM   72  N13 UNL     1      10.929   4.660  -0.745  1.00  0.00    -0.323 N 
ATOM     73  H13 UNL     1      11.019   4.385  -1.723  1.00  0.00     0.169 HD
HETATM   74  N14 UNL     1      10.472   4.640   1.421  1.00  0.00    -0.339 N 
HETATM   75  N15 UNL     1      11.876   6.876  -0.890  1.00  0.00    -0.312 N 
HETATM   76  N16 UNL     1      14.212   7.164  -4.486  1.00  0.00    -0.361 N 
HETATM   77  N17 UNL     1      18.610   7.497  -4.829  1.00  0.00     0.078 N 
HETATM   78  O1  UNL     1     -11.576  -1.904  -0.532  1.00  0.00    -0.291 OA
HETATM   79  O2  UNL     1     -12.256   2.998  -2.691  1.00  0.00    -0.298 OA
HETATM   80  O3  UNL     1      -4.682  -3.742  -2.842  1.00  0.00    -0.290 OA
HETATM   81  O4  UNL     1      -6.390  -5.320   3.770  1.00  0.00    -0.289 OA
HETATM   82  O5  UNL     1       0.071  -5.275   6.838  1.00  0.00    -0.273 OA
HETATM   83  O6  UNL     1       6.759  -4.524   4.656  1.00  0.00    -0.266 OA
HETATM   84  O7  UNL     1       8.069  -3.172  -2.318  1.00  0.00    -0.264 OA
HETATM   85  O8  UNL     1       9.434   1.915   0.947  1.00  0.00    -0.264 OA
HETATM   86  O9  UNL     1      11.972   5.897  -3.010  1.00  0.00    -0.273 OA
HETATM   87  O10 UNL     1      15.911   8.526  -3.776  1.00  0.00    -0.274 OA
HETATM   88  H70 UNL     1      -1.209  -2.715   5.382  1.00  0.00     0.170 HD
HETATM   89  H71 UNL     1       4.391  -5.463   2.810  1.00  0.00     0.162 HD
HETATM   90  H72 UNL     1       8.265  -1.412   0.321  1.00  0.00     0.169 HD
HETATM   91  H73 UNL     1      10.448   2.907  -1.902  1.00  0.00     0.170 HD
HETATM   92  H74 UNL     1      12.110   7.703  -0.359  1.00  0.00     0.170 HD
HETATM   93  H75 UNL     1      13.929   6.195  -4.596  1.00  0.00     0.162 HD
HETATM   94  H76 UNL     1      18.513   7.288  -5.821  1.00  0.00     0.312 HD
HETATM   95  H77 UNL     1      18.150   8.403  -4.692  1.00  0.00     0.312 HD
ENDROOT
TORSDOF 35
