REMARK  22 active torsions:
REMARK  status: ('A' for Active; 'I' for Inactive)
REMARK    1  A    between atoms: C2_2  and  C3_3 
REMARK    2  A    between atoms: C4_4  and  C94_94 
REMARK    3  A    between atoms: C9_9  and  C29_29 
REMARK    4  A    between atoms: C11_11  and  C27_27 
REMARK    5  A    between atoms: C12_12  and  C25_25 
REMARK    6  A    between atoms: C16_16  and  C23_23 
REMARK    7  A    between atoms: C17_17  and  C21_21 
REMARK    8  A    between atoms: C32_32  and  C35_35 
REMARK    9  A    between atoms: C37_37  and  C86_86 
REMARK   10  A    between atoms: C38_38  and  C84_84 
REMARK   11  A    between atoms: C43_43  and  C61_61 
REMARK   12  A    between atoms: C45_45  and  C59_59 
REMARK   13  A    between atoms: C46_46  and  C57_57 
REMARK   14  A    between atoms: C50_50  and  C55_55 
REMARK   15  A    between atoms: C51_51  and  C53_53 
REMARK   16  A    between atoms: C64_64  and  C67_67 
REMARK   17  A    between atoms: C67_67  and  N8_107 
REMARK   18  A    between atoms: C76_76  and  O4_114 
REMARK   19  A    between atoms: C78_78  and  C82_82 
REMARK   20  A    between atoms: C79_79  and  C80_80 
REMARK   21  A    between atoms: C88_88  and  C92_92 
REMARK   22  A    between atoms: C89_89  and  C90_90 
ROOT
HETATM    1  C35 UNL     1       0.703   0.757  -1.053  1.00  0.00     0.029 C 
HETATM    2  C36 UNL     1       1.539   1.035   0.310  1.00  0.00     0.053 C 
HETATM    3  C37 UNL     1       1.279   1.927   1.342  1.00  0.00    -0.022 C 
HETATM    4  C38 UNL     1       2.285   1.684   2.359  1.00  0.00    -0.023 C 
HETATM    5  C39 UNL     1       3.123   0.700   1.862  1.00  0.00     0.041 C 
HETATM    6  C40 UNL     1       4.326   0.031   2.612  1.00  0.00     0.060 C 
HETATM    7  C41 UNL     1       5.560  -0.105   2.080  1.00  0.00     0.041 A 
HETATM    8  C42 UNL     1       7.328  -0.068   0.700  1.00  0.00     0.053 A 
HETATM    9  C43 UNL     1       8.059   0.143  -0.439  1.00  0.00     0.029 C 
HETATM   10  C44 UNL     1       7.299   0.777  -1.718  1.00  0.00     0.053 C 
HETATM   11  C45 UNL     1       7.740   1.738  -2.620  1.00  0.00    -0.022 C 
HETATM   12  C46 UNL     1       6.726   1.827  -3.652  1.00  0.00    -0.023 C 
HETATM   13  C47 UNL     1       5.718   0.950  -3.294  1.00  0.00     0.041 C 
HETATM   14  C48 UNL     1       4.435   0.615  -4.128  1.00  0.00     0.060 C 
HETATM   15  C49 UNL     1       3.194   0.556  -3.600  1.00  0.00     0.041 A 
HETATM   16  C50 UNL     1       2.007   0.216  -4.385  1.00  0.00    -0.023 A 
HETATM   17  C51 UNL     1       0.941   0.226  -3.559  1.00  0.00    -0.022 A 
HETATM   18  C52 UNL     1       1.432   0.608  -2.207  1.00  0.00     0.053 A 
HETATM   19  C78 UNL     1       7.736  -0.759   1.955  1.00  0.00    -0.022 A 
HETATM   20  C79 UNL     1       6.664  -0.771   2.773  1.00  0.00    -0.023 A 
HETATM   21  N5  UNL     1       6.024   0.294   0.878  1.00  0.00    -0.354 N 
ATOM     22  H5  UNL     1       5.470   0.802   0.189  1.00  0.00     0.166 HD
HETATM   23  N6  UNL     1       6.021   0.417  -2.074  1.00  0.00    -0.354 N 
HETATM   24  N7  UNL     1       2.789   0.762  -2.328  1.00  0.00    -0.354 N 
ATOM     25  H7  UNL     1       3.412   1.001  -1.557  1.00  0.00     0.166 HD
HETATM   26  N10 UNL     1       2.716   0.389   0.596  1.00  0.00    -0.354 N 
HETATM   27  HA0 UNL     1       5.386  -0.104  -1.480  1.00  0.00     0.166 HD
HETATM   28  HA1 UNL     1       3.232  -0.162  -0.079  1.00  0.00     0.166 HD
ENDROOT
BRANCH   1  29
HETATM   29  C32 UNL     1      -0.765   0.572  -0.884  1.00  0.00    -0.021 A 
HETATM   30  C31 UNL     1      -1.678   1.567  -1.264  1.00  0.00     0.013 A 
HETATM   31  C30 UNL     1      -3.060   1.388  -1.081  1.00  0.00     0.013 A 
HETATM   32  C29 UNL     1      -3.562   0.206  -0.519  1.00  0.00    -0.021 A 
HETATM   33  C34 UNL     1      -2.646  -0.776  -0.115  1.00  0.00     0.013 A 
HETATM   34  C33 UNL     1      -1.264  -0.595  -0.292  1.00  0.00     0.013 A 
BRANCH  32  35
HETATM   35  C9  UNL     1      -5.030   0.037  -0.326  1.00  0.00     0.029 C 
HETATM   36  C8  UNL     1      -5.908  -0.617  -1.158  1.00  0.00     0.053 A 
HETATM   37  C88 UNL     1      -5.597  -1.364  -2.402  1.00  0.00    -0.022 A 
HETATM   38  N1  UNL     1      -7.274  -0.674  -1.020  1.00  0.00    -0.354 N 
HETATM   39  C89 UNL     1      -6.759  -1.789  -2.939  1.00  0.00    -0.023 A 
HETATM   40  C7  UNL     1      -7.840  -1.362  -2.040  1.00  0.00     0.041 A 
HETATM   41  C6  UNL     1      -9.137  -1.649  -2.294  1.00  0.00     0.060 C 
HETATM   42  C5  UNL     1     -10.357  -1.146  -1.450  1.00  0.00     0.041 C 
HETATM   43  C4  UNL     1     -11.610  -1.736  -1.389  1.00  0.00    -0.023 C 
HETATM   44  N4  UNL     1     -10.379  -0.005  -0.699  1.00  0.00    -0.355 N 
HETATM   45  C3  UNL     1     -12.459  -0.833  -0.646  1.00  0.00    -0.023 C 
HETATM   46  C20 UNL     1     -11.667   0.246  -0.295  1.00  0.00     0.041 C 
HETATM   47  C19 UNL     1     -12.124   1.563   0.434  1.00  0.00     0.060 C 
HETATM   48  C18 UNL     1     -11.237   2.362   1.066  1.00  0.00     0.041 A 
HETATM   49  C17 UNL     1     -11.582   3.644   1.690  1.00  0.00    -0.023 A 
HETATM   50  N3  UNL     1      -9.908   2.172   1.233  1.00  0.00    -0.355 N 
HETATM   51  C16 UNL     1     -10.447   4.175   2.183  1.00  0.00    -0.023 A 
HETATM   52  C15 UNL     1      -9.365   3.219   1.893  1.00  0.00     0.041 A 
HETATM   53  C14 UNL     1      -8.078   3.414   2.253  1.00  0.00     0.060 C 
HETATM   54  C13 UNL     1      -6.963   2.338   1.994  1.00  0.00     0.041 C 
HETATM   55  C12 UNL     1      -6.060   1.865   2.929  1.00  0.00    -0.023 C 
HETATM   56  N2  UNL     1      -6.758   1.670   0.818  1.00  0.00    -0.354 N 
HETATM   57  C11 UNL     1      -5.236   0.885   2.253  1.00  0.00    -0.022 C 
HETATM   58  C10 UNL     1      -5.652   0.862   0.927  1.00  0.00     0.053 C 
HETATM   59  H98 UNL     1      -7.377   1.677   0.016  1.00  0.00     0.166 HD
ATOM     60  H3  UNL     1      -9.390   1.356   0.908  1.00  0.00     0.166 HD
HETATM   61  H99 UNL     1      -9.577   0.580  -0.478  1.00  0.00     0.166 HD
ATOM     62  H1  UNL     1      -7.794  -0.253  -0.250  1.00  0.00     0.166 HD
BRANCH  37  63
HETATM   63  C92 UNL     1      -4.231  -1.603  -2.966  1.00  0.00     0.037 C 
HETATM   64  C93 UNL     1      -3.642  -2.935  -2.518  1.00  0.00     0.010 C 
ENDBRANCH  37  63
BRANCH  39  65
HETATM   65  C90 UNL     1      -7.091  -2.554  -4.199  1.00  0.00     0.037 C 
HETATM   66  C91 UNL     1      -6.044  -2.824  -5.270  1.00  0.00     0.010 C 
ENDBRANCH  39  65
BRANCH  43  67
HETATM   67  C94 UNL     1     -12.011  -3.040  -1.998  1.00  0.00     0.037 C 
HETATM   68  C95 UNL     1     -12.560  -2.883  -3.408  1.00  0.00     0.010 C 
ENDBRANCH  43  67
BRANCH  45  69
HETATM   69  C2  UNL     1     -13.906  -1.019  -0.332  1.00  0.00     0.037 C 
HETATM   70  C1  UNL     1     -14.126  -1.623   1.047  1.00  0.00     0.010 C 
ENDBRANCH  45  69
BRANCH  49  71
HETATM   71  C21 UNL     1     -12.979   4.182   1.686  1.00  0.00     0.037 C 
HETATM   72  C22 UNL     1     -13.829   3.597   2.806  1.00  0.00     0.010 C 
ENDBRANCH  49  71
BRANCH  51  73
HETATM   73  C23 UNL     1     -10.143   5.444   2.932  1.00  0.00     0.037 C 
HETATM   74  C24 UNL     1     -11.268   6.412   3.265  1.00  0.00     0.010 C 
ENDBRANCH  51  73
BRANCH  55  75
HETATM   75  C25 UNL     1      -5.985   2.268   4.366  1.00  0.00     0.037 C 
HETATM   76  C26 UNL     1      -6.831   1.378   5.264  1.00  0.00     0.010 C 
ENDBRANCH  55  75
BRANCH  57  77
HETATM   77  C27 UNL     1      -4.166   0.057   2.890  1.00  0.00     0.037 C 
HETATM   78  C28 UNL     1      -4.579  -1.396   3.071  1.00  0.00     0.010 C 
ENDBRANCH  57  77
ENDBRANCH  32  35
ENDBRANCH   1  29
BRANCH   3  79
HETATM   79  C86 UNL     1       0.200   2.961   1.395  1.00  0.00     0.037 C 
HETATM   80  C87 UNL     1      -0.996   2.547   2.237  1.00  0.00     0.010 C 
ENDBRANCH   3  79
BRANCH  17  81
HETATM   81  C53 UNL     1      -0.501  -0.118  -3.829  1.00  0.00     0.037 C 
HETATM   82  C54 UNL     1      -0.935  -0.715  -5.162  1.00  0.00     0.010 C 
ENDBRANCH  17  81
BRANCH   4  83
HETATM   83  C84 UNL     1       2.420   2.375   3.677  1.00  0.00     0.037 C 
HETATM   84  C85 UNL     1       1.842   1.570   4.833  1.00  0.00     0.010 C 
ENDBRANCH   4  83
BRANCH  16  85
HETATM   85  C55 UNL     1       2.087  -0.057  -5.858  1.00  0.00     0.037 C 
HETATM   86  C56 UNL     1       2.527  -1.481  -6.175  1.00  0.00     0.010 C 
ENDBRANCH  16  85
BRANCH  20  87
HETATM   87  C80 UNL     1       6.489  -1.350   4.146  1.00  0.00     0.037 C 
HETATM   88  C81 UNL     1       6.672  -0.306   5.241  1.00  0.00     0.010 C 
ENDBRANCH  20  87
BRANCH  12  89
HETATM   89  C57 UNL     1       6.737   2.707  -4.860  1.00  0.00     0.037 C 
HETATM   90  C58 UNL     1       6.148   4.081  -4.580  1.00  0.00     0.010 C 
ENDBRANCH  12  89
BRANCH  19  91
HETATM   91  C82 UNL     1       9.121  -1.307   2.168  1.00  0.00     0.037 C 
HETATM   92  C83 UNL     1       9.483  -2.095   3.420  1.00  0.00     0.010 C 
ENDBRANCH  19  91
BRANCH  11  93
HETATM   93  C59 UNL     1       8.997   2.541  -2.555  1.00  0.00     0.037 C 
HETATM   94  C60 UNL     1       8.959   3.602  -1.465  1.00  0.00     0.010 C 
ENDBRANCH  11  93
BRANCH   9  95
HETATM   95  C61 UNL     1       9.442  -0.312  -0.687  1.00  0.00    -0.021 A 
HETATM   96  C62 UNL     1       9.663  -1.465  -1.448  1.00  0.00     0.013 A 
HETATM   97  C63 UNL     1      10.960  -1.932  -1.666  1.00  0.00     0.010 A 
HETATM   98  C64 UNL     1      12.061  -1.240  -1.139  1.00  0.00    -0.040 A 
HETATM   99  C65 UNL     1      11.841  -0.064  -0.406  1.00  0.00     0.010 A 
HETATM  100  C66 UNL     1      10.542   0.399  -0.191  1.00  0.00     0.013 A 
BRANCH  98 101
HETATM  101  C67 UNL     1      13.451  -1.812  -1.267  1.00  0.00     0.174 C 
BRANCH 101 102
HETATM  102  N8  UNL     1      13.739  -2.673  -0.140  1.00  0.00    -0.276 N 
HETATM  103  C68 UNL     1      13.394  -3.995  -0.089  1.00  0.00     0.262 A 
HETATM  104  C69 UNL     1      13.675  -4.444   1.273  1.00  0.00     0.049 A 
HETATM  105  O1  UNL     1      12.983  -4.731  -0.965  1.00  0.00    -0.267 OA
HETATM  106  C70 UNL     1      14.241  -3.365   1.961  1.00  0.00     0.049 A 
HETATM  107  C75 UNL     1      13.468  -5.683   1.856  1.00  0.00     0.035 A 
HETATM  108  C71 UNL     1      14.294  -2.237   1.031  1.00  0.00     0.262 A 
HETATM  109  C72 UNL     1      14.653  -3.448   3.281  1.00  0.00     0.036 A 
HETATM  110  O2  UNL     1      14.790  -1.162   1.308  1.00  0.00    -0.267 OA
HETATM  111  C73 UNL     1      14.453  -4.688   3.861  1.00  0.00     0.048 A 
HETATM  112  C74 UNL     1      13.878  -5.758   3.172  1.00  0.00     0.032 A 
HETATM  113  C77 UNL     1      14.774  -5.196   5.205  1.00  0.00     0.258 A 
HETATM  114  C76 UNL     1      13.875  -6.814   4.150  1.00  0.00     0.154 A 
HETATM  115  N9  UNL     1      14.376  -6.524   5.301  1.00  0.00    -0.303 N 
ATOM    116  H9  UNL     1      14.462  -7.138   6.111  1.00  0.00     0.171 HD
HETATM  117  O3  UNL     1      15.334  -4.530   6.057  1.00  0.00    -0.267 OA
BRANCH 114 118
HETATM  118  O4  UNL     1      13.382  -8.004   3.833  1.00  0.00    -0.345 OA
HETATM  119  HA2 UNL     1      13.424  -8.575   4.619  1.00  0.00     0.219 HD
ENDBRANCH 114 118
ENDBRANCH 101 102
ENDBRANCH  98 101
ENDBRANCH   9  95
TORSDOF 22
