REMARK  22 active torsions:
REMARK  status: ('A' for Active; 'I' for Inactive)
REMARK    1  A    between atoms: C2_2  and  N1_72 
REMARK    2  A    between atoms: C6_6  and  O1_80 
REMARK    3  A    between atoms: C11_11  and  O28_107 
REMARK    4  A    between atoms: C21_21  and  O19_98 
REMARK    5  A    between atoms: C30_30  and  O18_97 
REMARK    6  A    between atoms: C33_33  and  C55_55 
REMARK    7  A    between atoms: C36_36  and  O15_94 
REMARK    8  A    between atoms: C38_38  and  O9_88 
REMARK    9  A    between atoms: C41_41  and  O8_87 
REMARK   10  A    between atoms: C49_49  and  O9_88 
REMARK   11  A    between atoms: C50_50  and  O14_93 
REMARK   12  A    between atoms: C51_51  and  O13_92 
REMARK   13  A    between atoms: C52_52  and  O12_91 
REMARK   14  A    between atoms: C53_53  and  C54_54 
REMARK   15  A    between atoms: C54_54  and  O11_90 
REMARK   16  A    between atoms: C55_55  and  O17_96 
REMARK   17  A    between atoms: C56_56  and  O19_98 
REMARK   18  A    between atoms: C57_57  and  N6_77 
REMARK   19  A    between atoms: C58_58  and  O24_103 
REMARK   20  A    between atoms: C59_59  and  O23_102 
REMARK   21  A    between atoms: C60_60  and  C61_61 
REMARK   22  A    between atoms: C61_61  and  O22_101 
ROOT
HETATM    1  C2  UNL     1      -7.110  -5.600  -1.021  1.00  0.00     0.344 C 
HETATM    2  C3  UNL     1      -6.002  -6.536  -0.524  1.00  0.00    -0.013 C 
HETATM    3  C4  UNL     1      -4.761  -6.504  -1.187  1.00  0.00     0.050 C 
HETATM    4  C5  UNL     1      -3.636  -7.115  -0.628  1.00  0.00     0.109 C 
HETATM    5  C6  UNL     1      -3.774  -7.942   0.482  1.00  0.00     0.099 C 
HETATM    6  C7  UNL     1      -5.014  -8.094   1.083  1.00  0.00     0.040 C 
HETATM    7  C8  UNL     1      -6.116  -7.376   0.599  1.00  0.00     0.013 C 
HETATM    8  C9  UNL     1      -1.767  -5.731  -0.589  1.00  0.00     0.079 A 
HETATM    9  C10 UNL     1      -0.430  -5.849  -0.226  1.00  0.00     0.075 A 
HETATM   10  C11 UNL     1       0.201  -4.770   0.393  1.00  0.00     0.090 A 
HETATM   11  C12 UNL     1      -0.487  -3.567   0.641  1.00  0.00     0.076 A 
HETATM   12  C13 UNL     1      -1.822  -3.412   0.226  1.00  0.00     0.001 A 
HETATM   13  C14 UNL     1      -2.432  -4.511  -0.402  1.00  0.00     0.049 A 
HETATM   14  C15 UNL     1      -2.597  -2.119   0.454  1.00  0.00     0.212 C 
HETATM   15  C16 UNL     1      -2.002  -0.940  -0.355  1.00  0.00     0.246 C 
HETATM   16  C17 UNL     1      -1.188   1.386  -0.233  1.00  0.00     0.210 C 
HETATM   17  C18 UNL     1      -1.824   2.688   0.228  1.00  0.00    -0.021 A 
HETATM   18  C19 UNL     1      -3.219   2.825   0.213  1.00  0.00     0.050 A 
HETATM   19  C20 UNL     1      -3.847   3.982   0.701  1.00  0.00     0.113 A 
HETATM   20  C21 UNL     1      -3.064   5.070   1.112  1.00  0.00     0.139 A 
HETATM   21  C22 UNL     1      -1.666   4.978   1.092  1.00  0.00     0.113 A 
HETATM   22  C23 UNL     1      -1.065   3.786   0.651  1.00  0.00     0.050 A 
HETATM   23  C24 UNL     1       0.419   6.041   1.335  1.00  0.00     0.098 A 
HETATM   24  C25 UNL     1       0.993   6.376   0.106  1.00  0.00     0.068 A 
HETATM   25  C26 UNL     1       2.354   6.141  -0.102  1.00  0.00     0.036 A 
HETATM   26  C27 UNL     1       3.152   5.579   0.912  1.00  0.00    -0.025 A 
HETATM   27  C28 UNL     1       2.579   5.350   2.173  1.00  0.00     0.012 A 
HETATM   28  C29 UNL     1       1.219   5.584   2.386  1.00  0.00     0.040 A 
HETATM   29  C30 UNL     1       4.605   5.244   0.622  1.00  0.00     0.183 C 
HETATM   30  C31 UNL     1       5.064   3.792   0.950  1.00  0.00     0.210 C 
HETATM   31  C32 UNL     1       6.404   3.460   0.212  1.00  0.00     0.244 C 
HETATM   32  C33 UNL     1       7.671   1.646  -0.934  1.00  0.00     0.217 C 
HETATM   33  C34 UNL     1       7.936   0.152  -0.688  1.00  0.00    -0.009 A 
HETATM   34  C35 UNL     1       9.148  -0.177  -0.043  1.00  0.00     0.047 A 
HETATM   35  C36 UNL     1       9.503  -1.506   0.172  1.00  0.00     0.069 A 
HETATM   36  C37 UNL     1       8.679  -2.542  -0.237  1.00  0.00     0.074 A 
HETATM   37  C38 UNL     1       7.461  -2.249  -0.849  1.00  0.00     0.086 A 
HETATM   38  C39 UNL     1       7.066  -0.909  -1.088  1.00  0.00     0.019 A 
HETATM   39  C40 UNL     1       5.736  -0.654  -1.672  1.00  0.00     0.011 C 
HETATM   40  C41 UNL     1       5.474  -0.700  -3.045  1.00  0.00     0.076 C 
HETATM   41  C42 UNL     1       4.229  -0.324  -3.549  1.00  0.00     0.038 C 
HETATM   42  C43 UNL     1       3.248   0.176  -2.686  1.00  0.00     0.012 C 
HETATM   43  C44 UNL     1       3.481   0.235  -1.307  1.00  0.00    -0.025 C 
HETATM   44  C45 UNL     1       4.688  -0.287  -0.812  1.00  0.00     0.025 C 
HETATM   45  C46 UNL     1       2.623   1.047  -0.343  1.00  0.00     0.210 C 
HETATM   46  C47 UNL     1       3.244   2.485  -0.266  1.00  0.00     0.245 C 
HETATM   47  C48 UNL     1       0.268   1.207   0.260  1.00  0.00     0.246 C 
HETATM   48  C62 UNL     1      -5.923   2.923   0.918  1.00  0.00     0.076 A 
HETATM   49  C63 UNL     1      -6.671   2.459  -0.162  1.00  0.00     0.038 A 
HETATM   50  C64 UNL     1      -7.212   1.173  -0.119  1.00  0.00     0.010 A 
HETATM   51  C65 UNL     1      -7.019   0.361   1.010  1.00  0.00    -0.056 A 
HETATM   52  C66 UNL     1      -7.434  -1.095   0.989  1.00  0.00     0.073 C 
HETATM   53  C67 UNL     1      -6.442  -1.961   0.188  1.00  0.00     0.180 C 
HETATM   54  C68 UNL     1      -5.062  -2.035   0.888  1.00  0.00     0.241 C 
HETATM   55  C69 UNL     1      -6.590  -4.113  -1.046  1.00  0.00     0.256 C 
HETATM   56  C70 UNL     1      -6.352   0.885   2.127  1.00  0.00     0.010 A 
HETATM   57  C71 UNL     1      -5.812   2.169   2.087  1.00  0.00     0.038 A 
HETATM   58  N2  UNL     1      -1.896   0.245   0.342  1.00  0.00    -0.342 N 
HETATM   59  N3  UNL     1       6.529   2.130  -0.154  1.00  0.00    -0.341 N 
HETATM   60  N4  UNL     1       4.087   2.686   0.809  1.00  0.00    -0.343 N 
HETATM   61  N5  UNL     1       1.229   1.135  -0.726  1.00  0.00    -0.342 N 
HETATM   62  N7  UNL     1      -3.998  -2.177   0.025  1.00  0.00    -0.342 N 
HETATM   63  N8  UNL     1      -6.951  -3.322   0.024  1.00  0.00    -0.345 N 
HETATM   64  O2  UNL     1      -2.384  -6.844  -1.141  1.00  0.00    -0.308 OA
HETATM   65  O3  UNL     1      -1.742  -1.016  -1.556  1.00  0.00    -0.271 OA
HETATM   66  O4  UNL     1      -0.944   6.080   1.531  1.00  0.00    -0.306 OA
HETATM   67  O5  UNL     1       7.322   4.259   0.056  1.00  0.00    -0.271 OA
HETATM   68  O6  UNL     1       3.076   3.322  -1.150  1.00  0.00    -0.271 OA
HETATM   69  O7  UNL     1       0.549   1.107   1.456  1.00  0.00    -0.271 OA
HETATM   70  O25 UNL     1      -5.228   4.104   0.780  1.00  0.00    -0.308 OA
HETATM   71  O26 UNL     1      -4.928  -2.046   2.110  1.00  0.00    -0.271 OA
HETATM   72  O27 UNL     1      -5.852  -3.683  -1.935  1.00  0.00    -0.271 OA
HETATM   73 CL1  UNL     1       0.056   7.003  -1.200  1.00  0.00    -0.081 Cl
HETATM   74 CL2  UNL     1       0.341  -2.292   1.476  1.00  0.00    -0.081 Cl
HETATM   75  H46 UNL     1      -1.896   0.201   1.356  1.00  0.00     0.163 HD
HETATM   76  H47 UNL     1       5.647   1.766  -0.470  1.00  0.00     0.163 HD
HETATM   77  H48 UNL     1       4.136   1.967   1.522  1.00  0.00     0.163 HD
HETATM   78  H49 UNL     1       1.021   1.553  -1.624  1.00  0.00     0.163 HD
HETATM   79  H52 UNL     1      -4.183  -2.237  -0.974  1.00  0.00     0.163 HD
HETATM   80  H53 UNL     1      -7.459  -3.764   0.779  1.00  0.00     0.163 HD
ENDROOT
BRANCH  20  81
HETATM   81  O19 UNL     1      -3.663   6.201   1.609  1.00  0.00    -0.312 OA
BRANCH  81  82
HETATM   82  C56 UNL     1      -4.103   7.061   0.539  1.00  0.00     0.303 C 
HETATM   83  C57 UNL     1      -5.334   7.840   1.058  1.00  0.00     0.303 C 
HETATM   84  C58 UNL     1      -5.903   8.699  -0.087  1.00  0.00     0.187 C 
HETATM   85  C59 UNL     1      -4.827   9.157  -1.085  1.00  0.00     0.188 C 
HETATM   86  C60 UNL     1      -3.426   9.171  -0.457  1.00  0.00     0.253 C 
HETATM   87  O20 UNL     1      -3.045   7.952   0.179  1.00  0.00    -0.340 OA
BRANCH  83  88
HETATM   88  N6  UNL     1      -6.421   7.025   1.665  1.00  0.00     0.090 N 
HETATM   89  H50 UNL     1      -6.687   6.291   1.004  1.00  0.00     0.313 HD
HETATM   90  H51 UNL     1      -5.996   6.502   2.438  1.00  0.00     0.313 HD
ENDBRANCH  83  88
BRANCH  84  91
HETATM   91  O24 UNL     1      -6.570   9.832   0.484  1.00  0.00    -0.391 OA
HETATM   92  H65 UNL     1      -7.177   9.457   1.155  1.00  0.00     0.210 HD
ENDBRANCH  84  91
BRANCH  85  93
HETATM   93  O23 UNL     1      -4.832   8.233  -2.194  1.00  0.00    -0.390 OA
HETATM   94  H64 UNL     1      -4.234   8.590  -2.875  1.00  0.00     0.210 HD
ENDBRANCH  85  93
BRANCH  86  95
HETATM   95  C61 UNL     1      -3.273  10.428   0.401  1.00  0.00     0.172 C 
HETATM   96  O21 UNL     1      -3.280  11.576  -0.019  1.00  0.00    -0.648 OA
BRANCH  95  97
HETATM   97  O22 UNL     1      -3.125  10.190   1.718  1.00  0.00    -0.774 OA
HETATM   98  H63 UNL     1      -3.040  11.078   2.122  1.00  0.00     0.167 HD
ENDBRANCH  95  97
ENDBRANCH  86  95
ENDBRANCH  81  82
ENDBRANCH  20  81
BRANCH  29  99
HETATM   99  O18 UNL     1       5.362   6.165   1.426  1.00  0.00    -0.388 OA
HETATM  100  H62 UNL     1       5.039   7.058   1.216  1.00  0.00     0.210 HD
ENDBRANCH  29  99
BRANCH  10 101
HETATM  101  O28 UNL     1       1.509  -4.889   0.785  1.00  0.00    -0.359 OA
HETATM  102  H66 UNL     1       1.912  -5.684   0.374  1.00  0.00     0.217 HD
ENDBRANCH  10 101
BRANCH  40 103
HETATM  103  O8  UNL     1       6.470  -1.074  -3.904  1.00  0.00    -0.360 OA
HETATM  104  H55 UNL     1       6.102  -1.144  -4.800  1.00  0.00     0.217 HD
ENDBRANCH  40 103
BRANCH   1 105
HETATM  105  N1  UNL     1      -8.376  -5.644  -0.244  1.00  0.00     0.097 N 
HETATM  106  C1  UNL     1      -9.267  -6.693  -0.723  1.00  0.00     0.308 C 
HETATM  107  H45 UNL     1      -8.175  -5.779   0.743  1.00  0.00     0.316 HD
ENDBRANCH   1 105
BRANCH  32 108
HETATM  108  C55 UNL     1       7.498   1.985  -2.424  1.00  0.00     0.168 C 
HETATM  109  O16 UNL     1       6.500   2.452  -2.954  1.00  0.00    -0.648 OA
BRANCH 108 110
HETATM  110  O17 UNL     1       8.602   1.731  -3.161  1.00  0.00    -0.775 OA
HETATM  111  H61 UNL     1       8.331   1.956  -4.074  1.00  0.00     0.167 HD
ENDBRANCH 108 110
ENDBRANCH  32 108
BRANCH  37 112
HETATM  112  O9  UNL     1       6.637  -3.246  -1.313  1.00  0.00    -0.317 OA
BRANCH 112 113
HETATM  113  C49 UNL     1       6.312  -4.261  -0.353  1.00  0.00     0.298 C 
HETATM  114  C50 UNL     1       4.906  -4.764  -0.740  1.00  0.00     0.205 C 
HETATM  115  C51 UNL     1       4.498  -5.932   0.152  1.00  0.00     0.183 C 
HETATM  116  C52 UNL     1       5.576  -7.023   0.179  1.00  0.00     0.180 C 
HETATM  117  C53 UNL     1       6.949  -6.406   0.484  1.00  0.00     0.179 C 
HETATM  118  O10 UNL     1       7.253  -5.333  -0.422  1.00  0.00    -0.348 OA
BRANCH 114 119
HETATM  119  O14 UNL     1       4.861  -5.235  -2.106  1.00  0.00    -0.388 OA
HETATM  120  H59 UNL     1       5.509  -4.684  -2.593  1.00  0.00     0.210 HD
ENDBRANCH 114 119
BRANCH 115 121
HETATM  121  O13 UNL     1       3.263  -6.506  -0.342  1.00  0.00    -0.390 OA
HETATM  122  H58 UNL     1       3.399  -6.528  -1.318  1.00  0.00     0.210 HD
ENDBRANCH 115 121
BRANCH 116 123
HETATM  123  O12 UNL     1       5.223  -7.982   1.185  1.00  0.00    -0.390 OA
HETATM  124  H57 UNL     1       4.317  -8.272   0.965  1.00  0.00     0.210 HD
ENDBRANCH 116 123
BRANCH 117 125
HETATM  125  C54 UNL     1       8.074  -7.449   0.393  1.00  0.00     0.198 C 
BRANCH 125 126
HETATM  126  O11 UNL     1       8.095  -8.083  -0.886  1.00  0.00    -0.398 OA
HETATM  127  H56 UNL     1       8.886  -8.648  -0.908  1.00  0.00     0.209 HD
ENDBRANCH 125 126
ENDBRANCH 117 125
ENDBRANCH 112 113
ENDBRANCH  37 112
BRANCH   5 128
HETATM  128  O1  UNL     1      -2.712  -8.605   1.024  1.00  0.00    -0.358 OA
HETATM  129  H54 UNL     1      -1.939  -8.392   0.472  1.00  0.00     0.217 HD
ENDBRANCH   5 128
BRANCH  35 130
HETATM  130  O15 UNL     1      10.679  -1.834   0.781  1.00  0.00    -0.361 OA
HETATM  131  H60 UNL     1      11.192  -1.024   0.938  1.00  0.00     0.217 HD
ENDBRANCH  35 130
TORSDOF 22
