REMARK  0 active torsions:
REMARK  status: ('A' for Active; 'I' for Inactive)
REMARK       I    between atoms: C1_1  and  N1_3 
REMARK       I    between atoms: C1_1  and  C30_50 
REMARK       I    between atoms: C2_2  and  N2_4 
REMARK       I    between atoms: C2_2  and  C34_54 
REMARK       I    between atoms: N1_3  and  C3_7 
REMARK       I    between atoms: N2_4  and  C22_26 
REMARK       I    between atoms: N3_5  and  N4_6 
REMARK       I    between atoms: N3_5  and  C32_52 
REMARK       I    between atoms: C3_7  and  C4_8 
REMARK       I    between atoms: C4_8  and  C5_9 
REMARK       I    between atoms: C4_8  and  O6_39 
REMARK       I    between atoms: C5_9  and  C6_10 
REMARK       I    between atoms: C5_9  and  O5_38 
REMARK       I    between atoms: C6_10  and  C7_11 
REMARK       I    between atoms: C6_10  and  O4_37 
REMARK       I    between atoms: C7_11  and  C8_12 
REMARK       I    between atoms: C7_11  and  O3_36 
REMARK       I    between atoms: C8_12  and  O2_35 
REMARK       I    between atoms: C13_17  and  O8_41 
REMARK       I    between atoms: C13_17  and  C31_51 
REMARK       I    between atoms: C17_21  and  O9_42 
REMARK       I    between atoms: C17_21  and  C32_52 
REMARK       I    between atoms: C22_26  and  C23_27 
REMARK       I    between atoms: C23_27  and  C24_28 
REMARK       I    between atoms: C23_27  and  O16_49 
REMARK       I    between atoms: C24_28  and  C25_29 
REMARK       I    between atoms: C24_28  and  O15_48 
REMARK       I    between atoms: C25_29  and  C26_30 
REMARK       I    between atoms: C25_29  and  O14_47 
REMARK       I    between atoms: C26_30  and  C27_31 
REMARK       I    between atoms: C26_30  and  O13_46 
REMARK       I    between atoms: C27_31  and  O12_45 
REMARK       I    between atoms: O7_40  and  C30_50 
REMARK       I    between atoms: O7_40  and  C31_51 
REMARK       I    between atoms: O8_41  and  C32_52 
REMARK       I    between atoms: O9_42  and  C33_53 
REMARK       I    between atoms: O10_43  and  C33_53 
REMARK       I    between atoms: O10_43  and  C34_54 
ROOT
HETATM    1  C1  UNL     1      -6.257  -0.842  -0.249  1.00  0.00     0.101 C 
HETATM    2  C2  UNL     1       6.159  -2.368  -0.431  1.00  0.00     0.101 C 
HETATM    3  N1  UNL     1      -7.589  -0.098  -0.293  1.00  0.00    -0.336 N 
HETATM    4  N2  UNL     1       7.536  -1.728  -0.583  1.00  0.00    -0.336 N 
HETATM    5  N3  UNL     1       0.776  -0.623  -0.538  1.00  0.00    -0.228 NA
HETATM    6  N4  UNL     1       0.722  -0.348  -1.914  1.00  0.00    -0.268 NA
HETATM    7  C3  UNL     1      -8.362   0.036  -1.493  1.00  0.00     0.252 C 
HETATM    8  C4  UNL     1      -9.664   0.794  -1.470  1.00  0.00     0.241 C 
HETATM    9  C5  UNL     1     -10.854  -0.187  -1.322  1.00  0.00     0.187 C 
HETATM   10  C6  UNL     1     -12.223   0.552  -1.256  1.00  0.00     0.180 C 
HETATM   11  C7  UNL     1     -13.428  -0.372  -1.576  1.00  0.00     0.173 C 
HETATM   12  C8  UNL     1     -13.689  -1.455  -0.508  1.00  0.00     0.198 C 
HETATM   13  C9  UNL     1      -6.117  -0.128   2.835  1.00  0.00     0.051 C 
HETATM   14  C10 UNL     1      -5.035  -2.721   1.808  1.00  0.00     0.051 C 
HETATM   15  C11 UNL     1      -3.447   2.197   2.724  1.00  0.00     0.049 C 
HETATM   16  C12 UNL     1      -4.984   2.212   0.077  1.00  0.00     0.049 C 
HETATM   17  C13 UNL     1      -1.904   1.798   0.134  1.00  0.00     0.087 C 
HETATM   18  C14 UNL     1      -1.687   3.323   0.096  1.00  0.00     0.049 C 
HETATM   19  C15 UNL     1      -2.008   1.205  -1.287  1.00  0.00     0.049 C 
HETATM   20  C16 UNL     1       1.422   2.348  -0.637  1.00  0.00     0.069 C 
HETATM   21  C17 UNL     1       1.783   0.792   1.938  1.00  0.00     0.103 C 
HETATM   22  C18 UNL     1       1.166   1.729   2.992  1.00  0.00     0.050 C 
HETATM   23  C19 UNL     1       1.729  -0.643   2.520  1.00  0.00     0.050 C 
HETATM   24  C20 UNL     1       5.092  -0.764   2.295  1.00  0.00     0.078 C 
HETATM   25  C21 UNL     1       5.547   1.391   0.203  1.00  0.00     0.078 C 
HETATM   26  C22 UNL     1       8.662  -2.115   0.219  1.00  0.00     0.252 C 
HETATM   27  C23 UNL     1       9.987  -1.394   0.100  1.00  0.00     0.241 C 
HETATM   28  C24 UNL     1      10.641  -1.624  -1.292  1.00  0.00     0.187 C 
HETATM   29  C25 UNL     1      12.180  -1.356  -1.377  1.00  0.00     0.180 C 
HETATM   30  C26 UNL     1      12.692   0.061  -0.972  1.00  0.00     0.173 C 
HETATM   31  C27 UNL     1      13.048   0.223   0.520  1.00  0.00     0.198 C 
HETATM   32  C28 UNL     1       3.656  -3.000  -2.032  1.00  0.00     0.051 C 
HETATM   33  C29 UNL     1       5.083  -0.461  -2.711  1.00  0.00     0.051 C 
HETATM   34  O1  UNL     1      -7.980  -0.512  -2.564  1.00  0.00    -0.270 OA
HETATM   35  O2  UNL     1     -14.840  -2.189  -0.828  1.00  0.00    -0.398 OA
HETATM   36  O3  UNL     1     -14.584   0.404  -1.779  1.00  0.00    -0.391 OA
HETATM   37  O4  UNL     1     -12.404   1.160   0.000  1.00  0.00    -0.390 OA
HETATM   38  O5  UNL     1     -10.673  -1.020  -0.201  1.00  0.00    -0.390 OA
HETATM   39  O6  UNL     1      -9.799   1.530  -2.659  1.00  0.00    -0.383 OA
HETATM   40  O7  UNL     1      -3.611  -0.296   1.152  1.00  0.00    -0.362 OA
HETATM   41  O8  UNL     1      -0.938   1.159   0.957  1.00  0.00    -0.348 OA
HETATM   42  O9  UNL     1       3.098   1.295   1.715  1.00  0.00    -0.341 OA
HETATM   43  O10 UNL     1       3.493  -0.765  -0.221  1.00  0.00    -0.340 OA
HETATM   44  O11 UNL     1       8.557  -3.071   1.036  1.00  0.00    -0.270 OA
HETATM   45  O12 UNL     1      14.237  -0.460   0.810  1.00  0.00    -0.398 OA
HETATM   46  O13 UNL     1      11.759   1.039  -1.355  1.00  0.00    -0.391 OA
HETATM   47  O14 UNL     1      12.926  -2.381  -0.767  1.00  0.00    -0.390 OA
HETATM   48  O15 UNL     1       9.970  -0.865  -2.269  1.00  0.00    -0.390 OA
HETATM   49  O16 UNL     1       9.833  -0.029   0.406  1.00  0.00    -0.383 OA
HETATM   50  C30 UNL     1      -5.212  -0.910   1.392  1.00  0.00     0.086 C 
HETATM   51  C31 UNL     1      -3.548   1.434   1.015  1.00  0.00     0.085 C 
HETATM   52  C32 UNL     1       0.697   0.932   0.369  1.00  0.00     0.155 C 
HETATM   53  C33 UNL     1       4.269   0.248   0.950  1.00  0.00     0.159 C 
HETATM   54  C34 UNL     1       4.597  -1.572  -1.285  1.00  0.00     0.089 C 
HETATM   55  H3  UNL     1      -7.939   0.335   0.590  1.00  0.00     0.168 HD
HETATM   56  H4  UNL     1       7.636  -0.967  -1.288  1.00  0.00     0.168 HD
HETATM   57  H5  UNL     1      -0.088  -1.154  -0.281  1.00  0.00     0.143 HD
HETATM   58  H6  UNL     1       1.691  -0.101  -2.218  1.00  0.00     0.137 HD
HETATM   59  H7  UNL     1       0.493  -1.241  -2.407  1.00  0.00     0.137 HD
HETATM   60  H59 UNL     1     -15.615  -1.678  -0.475  1.00  0.00     0.209 HD
HETATM   61  H60 UNL     1     -14.811   0.838  -0.915  1.00  0.00     0.210 HD
HETATM   62  H61 UNL     1     -11.939   2.036  -0.029  1.00  0.00     0.210 HD
HETATM   63  H62 UNL     1     -10.562  -0.440   0.597  1.00  0.00     0.210 HD
HETATM   64  H63 UNL     1      -9.186   2.307  -2.587  1.00  0.00     0.210 HD
HETATM   65  H64 UNL     1      14.405  -0.325   1.778  1.00  0.00     0.209 HD
HETATM   66  H65 UNL     1      12.249   1.901  -1.425  1.00  0.00     0.210 HD
HETATM   67  H66 UNL     1      12.639  -2.457   0.177  1.00  0.00     0.210 HD
HETATM   68  H67 UNL     1      10.109  -1.319  -3.141  1.00  0.00     0.210 HD
HETATM   69  H68 UNL     1       9.214   0.375  -0.255  1.00  0.00     0.210 HD
ENDROOT
TORSDOF 36
