REMARK  20 active torsions:
REMARK  status: ('A' for Active; 'I' for Inactive)
REMARK    1  A    between atoms: C2_2  and  C3_3 
REMARK    2  A    between atoms: C2_2  and  N9_91 
REMARK       I    between atoms: C3_3  and  N1_83 
REMARK    3  A    between atoms: C4_4  and  C5_5 
REMARK    4  A    between atoms: C4_4  and  C69_69 
REMARK    5  A    between atoms: C4_4  and  N1_83 
REMARK       I    between atoms: C5_5  and  N2_84 
REMARK    6  A    between atoms: C7_7  and  N4_86 
REMARK    7  A    between atoms: C9_9  and  C10_10 
REMARK       I    between atoms: C10_10  and  N3_85 
REMARK    8  A    between atoms: C11_11  and  N3_85 
REMARK    9  A    between atoms: C22_22  and  C23_23 
REMARK       I    between atoms: C22_22  and  N4_86 
REMARK   10  A    between atoms: C26_26  and  N5_87 
REMARK   11  A    between atoms: C29_29  and  C30_30 
REMARK       I    between atoms: C29_29  and  N5_87 
REMARK   12  A    between atoms: C33_33  and  C36_36 
REMARK   13  A    between atoms: C36_36  and  C37_37 
REMARK   14  A    between atoms: C37_37  and  C38_38 
REMARK   15  A    between atoms: C37_37  and  N8_90 
REMARK       I    between atoms: C38_38  and  N6_88 
REMARK   16  A    between atoms: C41_41  and  C42_42 
REMARK       I    between atoms: C42_42  and  N7_89 
REMARK   17  A    between atoms: C43_43  and  N7_89 
REMARK   18  A    between atoms: C54_54  and  O9_82 
REMARK       I    between atoms: C54_54  and  N8_90 
REMARK   19  A    between atoms: C55_55  and  C56_56 
REMARK   20  A    between atoms: C55_55  and  O9_82 
ROOT
HETATM    1  C29 UNL     1      -2.425   2.407   1.056  1.00  0.00     0.256 C 
HETATM    2  O5  UNL     1      -2.810   2.662  -0.079  1.00  0.00    -0.267 OA
HETATM    3  N5  UNL     1      -1.428   1.513   1.407  1.00  0.00    -0.323 N 
HETATM    4  H83 UNL     1      -1.139   1.511   2.376  1.00  0.00     0.169 HD
ENDROOT
BRANCH   1   5
HETATM    5  C30 UNL     1      -3.060   3.129   2.197  1.00  0.00     0.032 A 
HETATM    6  C31 UNL     1      -3.228   2.528   3.450  1.00  0.00     0.017 A 
HETATM    7  C32 UNL     1      -3.858   3.227   4.481  1.00  0.00     0.008 A 
HETATM    8  C33 UNL     1      -4.353   4.524   4.272  1.00  0.00    -0.056 A 
HETATM    9  C34 UNL     1      -4.182   5.119   3.017  1.00  0.00     0.008 A 
HETATM   10  C35 UNL     1      -3.546   4.424   1.984  1.00  0.00     0.017 A 
BRANCH   8  11
HETATM   11  C36 UNL     1      -5.094   5.240   5.384  1.00  0.00     0.073 C 
BRANCH  11  12
HETATM   12  C37 UNL     1      -6.637   5.154   5.337  1.00  0.00     0.183 C 
BRANCH  12  13
HETATM   13  C38 UNL     1      -7.233   6.193   4.364  1.00  0.00     0.243 C 
HETATM   14  O6  UNL     1      -7.217   5.989   3.148  1.00  0.00    -0.271 OA
HETATM   15  N6  UNL     1      -7.840   7.325   4.919  1.00  0.00    -0.337 N 
HETATM   16  C39 UNL     1      -7.135   8.052   5.994  1.00  0.00     0.131 C 
HETATM   17  C41 UNL     1      -8.550   8.282   4.026  1.00  0.00     0.179 C 
HETATM   18  C74 UNL     1      -6.368   9.550   5.005  1.00  0.00     0.002 C 
HETATM   19  C40 UNL     1      -7.489   9.240   3.448  1.00  0.00     0.041 C 
HETATM   20  C53 UNL     1      -6.720  11.166   5.820  1.00  0.00     0.011 C 
BRANCH  17  21
HETATM   21  C42 UNL     1      -9.607   7.775   3.013  1.00  0.00     0.241 C 
HETATM   22  O7  UNL     1     -10.811   7.940   3.211  1.00  0.00    -0.271 OA
HETATM   23  N7  UNL     1      -9.117   7.166   1.887  1.00  0.00    -0.351 N 
HETATM   24  H84 UNL     1      -8.188   6.752   1.978  1.00  0.00     0.163 HD
BRANCH  23  25
HETATM   25  C43 UNL     1      -9.983   6.583   0.874  1.00  0.00     0.118 C 
HETATM   26  C44 UNL     1     -10.608   5.259   1.345  1.00  0.00     0.030 C 
HETATM   27  C45 UNL     1      -9.608   4.109   1.281  1.00  0.00     0.007 C 
HETATM   28  C46 UNL     1      -9.128   3.889  -0.149  1.00  0.00     0.039 C 
HETATM   29  C47 UNL     1      -8.753   5.164  -0.863  1.00  0.00    -0.050 A 
HETATM   30  C48 UNL     1      -7.997   5.080  -2.043  1.00  0.00     0.007 A 
HETATM   31  C52 UNL     1      -9.191   6.424  -0.411  1.00  0.00    -0.029 A 
HETATM   32  C49 UNL     1      -7.663   6.228  -2.760  1.00  0.00     0.001 A 
HETATM   33  C50 UNL     1      -8.087   7.475  -2.311  1.00  0.00     0.001 A 
HETATM   34  C51 UNL     1      -8.844   7.573  -1.144  1.00  0.00     0.010 A 
ENDBRANCH  23  25
ENDBRANCH  17  21
ENDBRANCH  12  13
BRANCH  12  35
HETATM   35  N8  UNL     1      -7.141   3.855   4.911  1.00  0.00    -0.323 N 
HETATM   36  C54 UNL     1      -6.970   2.728   5.645  1.00  0.00     0.361 C 
HETATM   37  O8  UNL     1      -6.548   2.692   6.790  1.00  0.00    -0.239 OA
HETATM   38  H85 UNL     1      -7.297   3.712   3.919  1.00  0.00     0.165 HD
BRANCH  36  39
HETATM   39  O9  UNL     1      -7.275   1.656   4.880  1.00  0.00    -0.303 OA
BRANCH  39  40
HETATM   40  C55 UNL     1      -6.903   0.394   5.457  1.00  0.00     0.194 C 
BRANCH  40  41
HETATM   41  C56 UNL     1      -7.161  -0.729   4.447  1.00  0.00     0.078 A 
HETATM   42  C57 UNL     1      -6.879  -2.103   5.047  1.00  0.00    -0.036 A 
HETATM   43  C58 UNL     1      -7.481  -2.706   6.142  1.00  0.00     0.009 A 
HETATM   44  C62 UNL     1      -5.869  -2.761   4.311  1.00  0.00    -0.018 A 
HETATM   45  C59 UNL     1      -7.053  -3.983   6.509  1.00  0.00     0.001 A 
HETATM   46  C60 UNL     1      -6.044  -4.638   5.784  1.00  0.00     0.001 A 
HETATM   47  C61 UNL     1      -5.446  -4.029   4.677  1.00  0.00     0.013 A 
HETATM   48  C63 UNL     1      -5.451  -1.909   3.219  1.00  0.00    -0.018 A 
HETATM   49  C64 UNL     1      -4.514  -2.121   2.219  1.00  0.00     0.013 A 
HETATM   50  C68 UNL     1      -6.194  -0.710   3.264  1.00  0.00    -0.036 A 
HETATM   51  C65 UNL     1      -4.338  -1.129   1.250  1.00  0.00     0.001 A 
HETATM   52  C66 UNL     1      -5.095   0.053   1.286  1.00  0.00     0.001 A 
HETATM   53  C67 UNL     1      -6.029   0.273   2.299  1.00  0.00     0.009 A 
ENDBRANCH  40  41
ENDBRANCH  39  40
ENDBRANCH  36  39
ENDBRANCH  12  35
ENDBRANCH  11  12
ENDBRANCH   8  11
ENDBRANCH   1   5
BRANCH   3  54
HETATM   54  C26 UNL     1      -0.729   0.634   0.556  1.00  0.00     0.035 A 
HETATM   55  C25 UNL     1      -1.000   0.484  -0.805  1.00  0.00     0.030 A 
HETATM   56  C24 UNL     1      -0.270  -0.425  -1.580  1.00  0.00     0.019 A 
HETATM   57  C23 UNL     1       0.749  -1.188  -1.003  1.00  0.00     0.032 A 
HETATM   58  C28 UNL     1       1.017  -1.055   0.363  1.00  0.00     0.019 A 
HETATM   59  C27 UNL     1       0.281  -0.147   1.134  1.00  0.00     0.030 A 
BRANCH  57  60
HETATM   60  C22 UNL     1       1.499  -2.142  -1.866  1.00  0.00     0.252 C 
HETATM   61  O4  UNL     1       0.974  -2.618  -2.865  1.00  0.00    -0.268 OA
HETATM   62  N4  UNL     1       2.801  -2.418  -1.489  1.00  0.00    -0.351 N 
HETATM   63  H82 UNL     1       3.240  -1.768  -0.849  1.00  0.00     0.163 HD
BRANCH  62  64
HETATM   64  C7  UNL     1       3.667  -3.173  -2.374  1.00  0.00     0.105 C 
HETATM   65  C6  UNL     1       4.829  -3.865  -1.659  1.00  0.00     0.152 C 
HETATM   66  N2  UNL     1       5.846  -4.051  -2.690  1.00  0.00    -0.335 N 
HETATM   67  C5  UNL     1       6.557  -5.224  -2.889  1.00  0.00     0.244 C 
HETATM   68  C9  UNL     1       5.552  -3.177  -3.845  1.00  0.00     0.181 C 
HETATM   69  O2  UNL     1       6.906  -5.532  -4.035  1.00  0.00    -0.271 OA
HETATM   70  C8  UNL     1       4.391  -2.289  -3.380  1.00  0.00     0.061 C 
BRANCH  67  71
HETATM   71  C4  UNL     1       6.914  -6.122  -1.659  1.00  0.00     0.184 C 
BRANCH  71  72
HETATM   72  C69 UNL     1       8.061  -5.610  -0.709  1.00  0.00    -0.022 C 
HETATM   73  C70 UNL     1       7.503  -4.536   0.256  1.00  0.00     0.017 C 
HETATM   74  C71 UNL     1       8.596  -6.756   0.179  1.00  0.00     0.017 C 
HETATM   75  C72 UNL     1       9.244  -4.951  -1.440  1.00  0.00     0.017 C 
ENDBRANCH  71  72
BRANCH  71  76
HETATM   76  N1  UNL     1       6.988  -7.528  -2.104  1.00  0.00    -0.345 N 
HETATM   77  C3  UNL     1       8.013  -8.080  -2.848  1.00  0.00     0.251 C 
HETATM   78  O1  UNL     1       9.041  -7.479  -3.144  1.00  0.00    -0.271 OA
HETATM   79  H80 UNL     1       6.093  -7.987  -2.210  1.00  0.00     0.163 HD
BRANCH  77  80
HETATM   80  C2  UNL     1       7.735  -9.532  -3.331  1.00  0.00     0.307 C 
HETATM   81  C1  UNL     1       7.309 -10.459  -2.191  1.00  0.00     0.053 C 
BRANCH  80  82
HETATM   82  N9  UNL     1       8.881 -10.055  -4.114  1.00  0.00     0.092 N 
HETATM   83  C73 UNL     1      10.020 -10.469  -3.300  1.00  0.00     0.307 C 
HETATM   84  H86 UNL     1       9.199  -9.282  -4.710  1.00  0.00     0.316 HD
ENDBRANCH  80  82
ENDBRANCH  77  80
ENDBRANCH  71  76
ENDBRANCH  67  71
BRANCH  68  85
HETATM   85  C10 UNL     1       6.759  -2.329  -4.310  1.00  0.00     0.241 C 
HETATM   86  O3  UNL     1       6.756  -1.101  -4.267  1.00  0.00    -0.271 OA
HETATM   87  N3  UNL     1       7.805  -3.061  -4.828  1.00  0.00    -0.351 N 
HETATM   88  H81 UNL     1       7.663  -4.066  -4.919  1.00  0.00     0.163 HD
BRANCH  87  89
HETATM   89  C11 UNL     1       8.925  -2.448  -5.539  1.00  0.00     0.117 C 
HETATM   90  C12 UNL     1       8.594  -2.347  -7.045  1.00  0.00     0.030 C 
HETATM   91  C13 UNL     1       7.744  -1.147  -7.469  1.00  0.00     0.002 C 
HETATM   92  C14 UNL     1       8.259   0.245  -7.081  1.00  0.00     0.004 C 
HETATM   93  C15 UNL     1       9.770   0.471  -7.237  1.00  0.00     0.027 C 
HETATM   94  C16 UNL     1      10.441   0.602  -5.898  1.00  0.00    -0.027 C 
HETATM   95  C17 UNL     1      11.349  -0.203  -5.326  1.00  0.00    -0.004 C 
HETATM   96  C18 UNL     1      11.936  -1.402  -5.864  1.00  0.00     0.000 C 
HETATM   97  C19 UNL     1      11.481  -2.666  -5.841  1.00  0.00     0.008 C 
HETATM   98  C20 UNL     1      10.220  -3.251  -5.368  1.00  0.00    -0.045 C 
HETATM   99  C21 UNL     1      10.288  -4.513  -4.899  1.00  0.00     0.021 C 
ENDBRANCH  87  89
ENDBRANCH  68  85
ENDBRANCH  62  64
ENDBRANCH  57  60
ENDBRANCH   3  54
TORSDOF 20
