REMARK  0 active torsions:
REMARK  status: ('A' for Active; 'I' for Inactive)
REMARK       I    between atoms: C2_2  and  C3_3 
REMARK       I    between atoms: C3_3  and  C5_5 
REMARK       I    between atoms: C5_5  and  C6_6 
REMARK       I    between atoms: C5_5  and  N13_95 
REMARK       I    between atoms: C6_6  and  N1_81 
REMARK       I    between atoms: C7_7  and  C8_8 
REMARK       I    between atoms: C7_7  and  C10_10 
REMARK       I    between atoms: C7_7  and  N1_81 
REMARK       I    between atoms: C8_8  and  C9_9 
REMARK       I    between atoms: C9_9  and  O3_68 
REMARK       I    between atoms: C10_10  and  N2_82 
REMARK       I    between atoms: C11_11  and  C12_12 
REMARK       I    between atoms: C11_11  and  C16_16 
REMARK       I    between atoms: C11_11  and  N2_82 
REMARK       I    between atoms: C12_12  and  C13_13 
REMARK       I    between atoms: C13_13  and  C14_14 
REMARK       I    between atoms: C14_14  and  N3_83 
REMARK       I    between atoms: C15_15  and  N4_85 
REMARK       I    between atoms: C15_15  and  N5_86 
REMARK       I    between atoms: C16_16  and  N6_87 
REMARK       I    between atoms: C17_17  and  C18_18 
REMARK       I    between atoms: C17_17  and  C22_22 
REMARK       I    between atoms: C17_17  and  N6_87 
REMARK       I    between atoms: C18_18  and  C20_20 
REMARK       I    between atoms: C22_22  and  N7_88 
REMARK       I    between atoms: C23_23  and  C24_24 
REMARK       I    between atoms: C23_23  and  C25_25 
REMARK       I    between atoms: C23_23  and  N7_88 
REMARK       I    between atoms: C24_24  and  S1_106 
REMARK       I    between atoms: C25_25  and  N8_89 
REMARK       I    between atoms: C26_26  and  C27_27 
REMARK       I    between atoms: C26_26  and  C34_34 
REMARK       I    between atoms: C26_26  and  N8_89 
REMARK       I    between atoms: C27_27  and  C28_28 
REMARK       I    between atoms: C34_34  and  N9_90 
REMARK       I    between atoms: C35_35  and  C36_36 
REMARK       I    between atoms: C35_35  and  C40_40 
REMARK       I    between atoms: C35_35  and  N9_90 
REMARK       I    between atoms: C36_36  and  C37_37 
REMARK       I    between atoms: C37_37  and  C38_38 
REMARK       I    between atoms: C38_38  and  N10_91 
REMARK       I    between atoms: C39_39  and  N11_93 
REMARK       I    between atoms: C39_39  and  N12_94 
REMARK       I    between atoms: C41_41  and  C42_42 
REMARK       I    between atoms: C41_41  and  N13_95 
REMARK       I    between atoms: C42_42  and  C43_43 
REMARK       I    between atoms: C42_42  and  N17_100 
REMARK       I    between atoms: C43_43  and  C44_44 
REMARK       I    between atoms: C44_44  and  C45_45 
REMARK       I    between atoms: C45_45  and  N14_96 
REMARK       I    between atoms: C46_46  and  N15_98 
REMARK       I    between atoms: C46_46  and  N16_99 
REMARK       I    between atoms: C47_47  and  C48_48 
REMARK       I    between atoms: C47_47  and  N17_100 
REMARK       I    between atoms: C48_48  and  N18_101 
REMARK       I    between atoms: C49_49  and  C50_50 
REMARK       I    between atoms: C49_49  and  N18_101 
REMARK       I    between atoms: C50_50  and  N19_102 
REMARK       I    between atoms: C51_51  and  C52_52 
REMARK       I    between atoms: C51_51  and  N19_102 
REMARK       I    between atoms: C52_52  and  C53_53 
REMARK       I    between atoms: C52_52  and  N20_103 
REMARK       I    between atoms: C53_53  and  C54_54 
REMARK       I    between atoms: C60_60  and  C61_61 
REMARK       I    between atoms: C60_60  and  N20_103 
REMARK       I    between atoms: C61_61  and  N21_104 
REMARK       I    between atoms: C63_63  and  C64_64 
REMARK       I    between atoms: C63_63  and  N21_104 
REMARK       I    between atoms: C64_64  and  C65_65 
REMARK       I    between atoms: C64_64  and  N22_105 
REMARK       I    between atoms: C65_65  and  S2_107 
ROOT
HETATM    1  C1  UNL     1      -3.216  -4.900  10.230  1.00  0.00     0.005 C 
HETATM    2  C2  UNL     1      -3.185  -3.407   9.938  1.00  0.00     0.002 C 
HETATM    3  C3  UNL     1      -3.853  -3.018   8.601  1.00  0.00     0.013 C 
HETATM    4  C4  UNL     1      -3.878  -1.487   8.481  1.00  0.00     0.012 C 
HETATM    5  C5  UNL     1      -3.221  -3.715   7.371  1.00  0.00     0.180 C 
HETATM    6  C6  UNL     1      -1.733  -3.310   7.164  1.00  0.00     0.241 C 
HETATM    7  C7  UNL     1      -0.298  -1.714   5.847  1.00  0.00     0.186 C 
HETATM    8  C8  UNL     1       0.366  -2.672   4.862  1.00  0.00     0.144 C 
HETATM    9  C9  UNL     1       1.501  -2.028   4.126  1.00  0.00     0.141 C 
HETATM   10  C10 UNL     1      -0.631  -0.345   5.205  1.00  0.00     0.241 C 
HETATM   11  C11 UNL     1       0.113   2.022   5.023  1.00  0.00     0.176 C 
HETATM   12  C12 UNL     1       1.071   2.910   5.828  1.00  0.00     0.036 C 
HETATM   13  C13 UNL     1       0.732   4.402   5.720  1.00  0.00     0.022 C 
HETATM   14  C14 UNL     1       1.676   5.272   6.549  1.00  0.00     0.121 C 
HETATM   15  C15 UNL     1       3.470   5.927   5.142  1.00  0.00     0.121 C 
HETATM   16  C16 UNL     1       0.327   2.239   3.511  1.00  0.00     0.241 C 
HETATM   17  C17 UNL     1       1.693   1.670   1.524  1.00  0.00     0.180 C 
HETATM   18  C18 UNL     1       2.910   2.597   1.274  1.00  0.00     0.013 C 
HETATM   19  C19 UNL     1       2.653   4.021   1.780  1.00  0.00     0.012 C 
HETATM   20  C20 UNL     1       4.281   2.071   1.754  1.00  0.00     0.002 C 
HETATM   21  C21 UNL     1       4.469   1.907   3.255  1.00  0.00     0.005 C 
HETATM   22  C22 UNL     1       1.915   0.287   0.882  1.00  0.00     0.241 C 
HETATM   23  C23 UNL     1       1.869  -0.962  -1.254  1.00  0.00     0.185 C 
HETATM   24  C24 UNL     1       0.789  -1.252  -2.298  1.00  0.00     0.105 C 
HETATM   25  C25 UNL     1       3.227  -0.633  -1.919  1.00  0.00     0.241 C 
HETATM   26  C26 UNL     1       5.220  -1.639  -3.044  1.00  0.00     0.180 C 
HETATM   27  C27 UNL     1       5.896  -3.026  -2.971  1.00  0.00     0.073 C 
HETATM   28  C28 UNL     1       5.162  -4.142  -3.687  1.00  0.00    -0.056 A 
HETATM   29  C29 UNL     1       4.270  -4.969  -2.987  1.00  0.00     0.007 A 
HETATM   30  C30 UNL     1       3.591  -5.998  -3.642  1.00  0.00     0.001 A 
HETATM   31  C31 UNL     1       3.802  -6.219  -5.001  1.00  0.00     0.000 A 
HETATM   32  C32 UNL     1       4.689  -5.409  -5.706  1.00  0.00     0.001 A 
HETATM   33  C33 UNL     1       5.365  -4.376  -5.053  1.00  0.00     0.007 A 
HETATM   34  C34 UNL     1       5.397  -0.990  -4.439  1.00  0.00     0.241 C 
HETATM   35  C35 UNL     1       4.756   0.878  -5.909  1.00  0.00     0.146 C 
HETATM   36  C36 UNL     1       4.309   0.192  -7.210  1.00  0.00     0.034 C 
HETATM   37  C37 UNL     1       2.828  -0.202  -7.258  1.00  0.00     0.022 C 
HETATM   38  C38 UNL     1       2.547  -1.597  -6.698  1.00  0.00     0.121 C 
HETATM   39  C39 UNL     1       0.619  -2.933  -6.474  1.00  0.00     0.121 C 
HETATM   40  C40 UNL     1       4.077   2.237  -5.778  1.00  0.00     0.256 C 
HETATM   41  C41 UNL     1      -5.200  -3.523   5.785  1.00  0.00     0.241 C 
HETATM   42  C42 UNL     1      -5.572  -3.044   4.346  1.00  0.00     0.176 C 
HETATM   43  C43 UNL     1      -6.256  -4.156   3.532  1.00  0.00     0.036 C 
HETATM   44  C44 UNL     1      -7.255  -3.660   2.470  1.00  0.00     0.022 C 
HETATM   45  C45 UNL     1      -6.682  -2.755   1.374  1.00  0.00     0.121 C 
HETATM   46  C46 UNL     1      -6.268  -0.444   1.110  1.00  0.00     0.121 C 
HETATM   47  C47 UNL     1      -3.381  -3.028   3.117  1.00  0.00     0.236 C 
HETATM   48  C48 UNL     1      -2.642  -2.355   1.966  1.00  0.00     0.225 C 
HETATM   49  C49 UNL     1      -2.573  -0.231   0.766  1.00  0.00     0.235 C 
HETATM   50  C50 UNL     1      -2.624   1.295   0.898  1.00  0.00     0.225 C 
HETATM   51  C51 UNL     1      -3.285   1.984  -1.362  1.00  0.00     0.241 C 
HETATM   52  C52 UNL     1      -2.775   2.252  -2.796  1.00  0.00     0.180 C 
HETATM   53  C53 UNL     1      -2.497   0.902  -3.481  1.00  0.00     0.073 C 
HETATM   54  C54 UNL     1      -2.455   0.975  -4.991  1.00  0.00    -0.056 A 
HETATM   55  C55 UNL     1      -1.279   0.676  -5.689  1.00  0.00     0.007 A 
HETATM   56  C56 UNL     1      -1.259   0.699  -7.085  1.00  0.00     0.001 A 
HETATM   57  C57 UNL     1      -2.410   1.026  -7.799  1.00  0.00     0.000 A 
HETATM   58  C58 UNL     1      -3.584   1.330  -7.116  1.00  0.00     0.001 A 
HETATM   59  C59 UNL     1      -3.609   1.298  -5.721  1.00  0.00     0.007 A 
HETATM   60  C60 UNL     1      -0.371   3.037  -2.520  1.00  0.00     0.240 C 
HETATM   61  C61 UNL     1       0.581   4.156  -3.001  1.00  0.00     0.172 C 
HETATM   62  C62 UNL     1       1.874   4.162  -2.198  1.00  0.00     0.042 C 
HETATM   63  C63 UNL     1      -0.008   4.359  -5.397  1.00  0.00     0.252 C 
HETATM   64  C64 UNL     1       0.468   4.104  -6.842  1.00  0.00     0.318 C 
HETATM   65  C65 UNL     1       1.677   4.982  -7.200  1.00  0.00     0.116 C 
HETATM   66  O1  UNL     1      -0.791  -3.823   7.758  1.00  0.00    -0.271 OA
HETATM   67  O2  UNL     1       2.162  -1.075   4.510  1.00  0.00    -0.650 OA
HETATM   68  O3  UNL     1       1.693  -2.592   2.920  1.00  0.00    -0.776 OA
HETATM   69  O4  UNL     1      -1.664  -0.151   4.560  1.00  0.00    -0.271 OA
HETATM   70  O5  UNL     1      -0.283   3.116   2.899  1.00  0.00    -0.271 OA
HETATM   71  O6  UNL     1       2.440  -0.649   1.488  1.00  0.00    -0.271 OA
HETATM   72  O7  UNL     1       3.735   0.489  -1.911  1.00  0.00    -0.271 OA
HETATM   73  O8  UNL     1       6.311  -1.294  -5.205  1.00  0.00    -0.271 OA
HETATM   74  O9  UNL     1       3.101   2.473  -5.066  1.00  0.00    -0.305 OA
HETATM   75  O10 UNL     1      -6.032  -3.966   6.571  1.00  0.00    -0.271 OA
HETATM   76  O11 UNL     1      -3.028  -4.117   3.568  1.00  0.00    -0.272 OA
HETATM   77  O12 UNL     1      -2.351  -0.807  -0.300  1.00  0.00    -0.272 OA
HETATM   78  O13 UNL     1      -4.466   1.699  -1.147  1.00  0.00    -0.271 OA
HETATM   79  O14 UNL     1      -0.000   2.076  -1.846  1.00  0.00    -0.271 OA
HETATM   80  O15 UNL     1      -1.107   4.849  -5.128  1.00  0.00    -0.271 OA
HETATM   81  N1  UNL     1      -1.578  -2.241   6.305  1.00  0.00    -0.345 N 
HETATM   82  N2  UNL     1       0.318   0.628   5.414  1.00  0.00    -0.346 N 
HETATM   83  N3  UNL     1       3.047   5.148   6.061  1.00  0.00    -0.372 N 
ATOM     84  H3  UNL     1       3.666   4.439   6.454  1.00  0.00     0.161 HD
HETATM   85  N4  UNL     1       2.833   6.904   4.460  1.00  0.00    -0.279 NA
HETATM   86  N5  UNL     1       4.747   5.829   4.716  1.00  0.00    -0.279 NA
HETATM   87  N6  UNL     1       1.337   1.507   2.929  1.00  0.00    -0.346 N 
HETATM   88  N7  UNL     1       1.500   0.185  -0.425  1.00  0.00    -0.345 N 
HETATM   89  N8  UNL     1       3.841  -1.688  -2.548  1.00  0.00    -0.346 N 
HETATM   90  N9  UNL     1       4.562   0.074  -4.715  1.00  0.00    -0.348 N 
HETATM   91  N10 UNL     1       1.098  -1.761  -6.645  1.00  0.00    -0.372 N 
ATOM     92  H10 UNL     1       0.480  -0.956  -6.743  1.00  0.00     0.161 HD
HETATM   93  N11 UNL     1      -0.719  -3.106  -6.405  1.00  0.00    -0.279 NA
HETATM   94  N12 UNL     1       1.250  -4.116  -6.318  1.00  0.00    -0.279 NA
HETATM   95  N13 UNL     1      -3.872  -3.379   6.095  1.00  0.00    -0.346 N 
HETATM   96  N14 UNL     1      -6.507  -1.408   1.917  1.00  0.00    -0.372 N 
ATOM     97  H14 UNL     1      -6.574  -1.240   2.921  1.00  0.00     0.161 HD
HETATM   98  N15 UNL     1      -6.075  -0.455  -0.224  1.00  0.00    -0.279 NA
HETATM   99  N16 UNL     1      -6.178   0.811   1.593  1.00  0.00    -0.279 NA
HETATM  100  N17 UNL     1      -4.496  -2.375   3.587  1.00  0.00    -0.346 N 
HETATM  101  N18 UNL     1      -2.797  -0.915   1.941  1.00  0.00    -0.351 N 
HETATM  102  N19 UNL     1      -2.323   1.906  -0.383  1.00  0.00    -0.351 N 
HETATM  103  N20 UNL     1      -1.677   3.222  -2.918  1.00  0.00    -0.346 N 
HETATM  104  N21 UNL     1       0.872   3.970  -4.416  1.00  0.00    -0.346 N 
HETATM  105  N22 UNL     1      -0.663   4.283  -7.786  1.00  0.00     0.092 N 
HETATM  106  S1  UNL     1       0.844  -2.976  -2.889  1.00  0.00    -0.180 SA
HETATM  107  S2  UNL     1       1.298   6.757  -7.390  1.00  0.00    -0.180 SA
HETATM  108  H76 UNL     1       2.280  -1.970   2.413  1.00  0.00     0.167 HD
HETATM  109  H77 UNL     1      -2.427  -1.851   5.898  1.00  0.00     0.163 HD
HETATM  110  H78 UNL     1       1.270   0.320   5.607  1.00  0.00     0.163 HD
HETATM  111  H79 UNL     1       1.824   6.863   4.523  1.00  0.00     0.126 HD
HETATM  112  H80 UNL     1       3.124   6.940   3.490  1.00  0.00     0.126 HD
HETATM  113  H81 UNL     1       5.262   5.209   5.335  1.00  0.00     0.126 HD
HETATM  114  H82 UNL     1       5.202   6.734   4.672  1.00  0.00     0.126 HD
HETATM  115  H83 UNL     1       1.769   0.749   3.453  1.00  0.00     0.163 HD
HETATM  116  H84 UNL     1       1.220   1.034  -0.921  1.00  0.00     0.163 HD
HETATM  117  H85 UNL     1       3.269  -2.489  -2.807  1.00  0.00     0.163 HD
HETATM  118  H86 UNL     1       4.070   0.495  -3.926  1.00  0.00     0.163 HD
HETATM  119  H87 UNL     1      -1.034  -3.879  -6.979  1.00  0.00     0.126 HD
HETATM  120  H88 UNL     1      -1.197  -2.250  -6.678  1.00  0.00     0.126 HD
HETATM  121  H89 UNL     1       2.234  -4.035  -6.084  1.00  0.00     0.126 HD
HETATM  122  H90 UNL     1       0.790  -4.707  -5.633  1.00  0.00     0.126 HD
HETATM  123  H91 UNL     1      -3.299  -3.612   5.285  1.00  0.00     0.163 HD
HETATM  124  H92 UNL     1      -5.464   0.297  -0.560  1.00  0.00     0.126 HD
HETATM  125  H93 UNL     1      -5.784  -1.342  -0.612  1.00  0.00     0.126 HD
HETATM  126  H94 UNL     1      -6.604   0.883   2.510  1.00  0.00     0.126 HD
HETATM  127  H95 UNL     1      -6.547   1.507   0.954  1.00  0.00     0.126 HD
HETATM  128  H96 UNL     1      -4.853  -1.644   2.967  1.00  0.00     0.163 HD
HETATM  129  H97 UNL     1      -2.678  -0.416   2.825  1.00  0.00     0.163 HD
HETATM  130  H98 UNL     1      -1.366   1.806  -0.714  1.00  0.00     0.163 HD
HETATM  131  H99 UNL     1      -1.802   3.918  -3.658  1.00  0.00     0.163 HD
HETATM  132  HA0 UNL     1       1.638   3.336  -4.659  1.00  0.00     0.163 HD
HETATM  133  HA1 UNL     1      -1.099   5.183  -7.554  1.00  0.00     0.313 HD
HETATM  134  HA2 UNL     1      -1.387   3.608  -7.520  1.00  0.00     0.313 HD
HETATM  135  HA3 UNL     1      -0.132  -2.844  -3.805  1.00  0.00     0.101 HD
HETATM  136  HA4 UNL     1       0.446   6.602  -8.416  1.00  0.00     0.101 HD
ENDROOT
TORSDOF 53
