REMARK  19 active torsions:
REMARK  status: ('A' for Active; 'I' for Inactive)
REMARK    1  A    between atoms: C3_3  and  N9_55 
REMARK    2  A    between atoms: C6_6  and  N1_42 
REMARK    3  A    between atoms: C7_7  and  N1_42 
REMARK    4  A    between atoms: C12_12  and  N5_49 
REMARK    5  A    between atoms: C14_14  and  N6_50 
REMARK    6  A    between atoms: C16_16  and  O1_76 
REMARK    7  A    between atoms: C18_18  and  C19_19 
REMARK    8  A    between atoms: C19_19  and  O2_77 
REMARK    9  A    between atoms: C20_20  and  N9_55 
REMARK   10  A    between atoms: C21_21  and  N13_62 
REMARK   11  A    between atoms: C23_23  and  N13_62 
REMARK   12  A    between atoms: C26_26  and  N14_63 
REMARK   13  A    between atoms: C29_29  and  N14_63 
REMARK   14  A    between atoms: C34_34  and  N18_70 
REMARK   15  A    between atoms: C36_36  and  N19_71 
REMARK   16  A    between atoms: C37_37  and  O4_79 
REMARK   17  A    between atoms: C38_38  and  O3_78 
REMARK   18  A    between atoms: C40_40  and  C41_41 
REMARK   19  A    between atoms: C41_41  and  O5_80 
ROOT
HETATM    1  C20 UNL     1       1.228  -3.014  -2.800  1.00  0.00     0.160 A 
HETATM    2  C21 UNL     1      -0.537  -3.566  -1.505  1.00  0.00     0.160 A 
HETATM    3  C22 UNL     1      -0.812  -3.196  -3.687  1.00  0.00     0.185 A 
HETATM    4  N10 UNL     1       0.764  -3.318  -1.593  1.00  0.00    -0.309 N 
ATOM      5  H10 UNL     1       1.375  -3.359  -0.777  1.00  0.00     0.171 HD
HETATM    6  N11 UNL     1      -1.376  -3.509  -2.529  1.00  0.00    -0.329 N 
ATOM      7  H11 UNL     1      -2.375  -3.691  -2.434  1.00  0.00     0.169 HD
HETATM    8  N12 UNL     1       0.474  -2.932  -3.887  1.00  0.00    -0.329 N 
ATOM      9  H12 UNL     1       0.851  -2.686  -4.802  1.00  0.00     0.169 HD
ENDROOT
BRANCH   2  10
HETATM   10  N13 UNL     1      -0.989  -3.893  -0.230  1.00  0.00    -0.259 NA
HETATM   11  H45 UNL     1      -0.237  -3.611   0.389  1.00  0.00     0.131 HD
BRANCH  10  12
HETATM   12  C23 UNL     1      -2.317  -3.401   0.127  1.00  0.00     0.063 C 
HETATM   13  C24 UNL     1      -2.345  -3.117   1.644  1.00  0.00     0.021 C 
HETATM   14  C25 UNL     1      -3.726  -3.302   2.285  1.00  0.00     0.021 C 
HETATM   15  C26 UNL     1      -4.888  -3.019   1.324  1.00  0.00     0.062 C 
HETATM   16  C27 UNL     1      -4.797  -3.925   0.081  1.00  0.00     0.021 C 
HETATM   17  C28 UNL     1      -3.386  -4.439  -0.224  1.00  0.00     0.021 C 
BRANCH  15  18
HETATM   18  N14 UNL     1      -4.842  -1.610   0.930  1.00  0.00    -0.272 NA
HETATM   19  H46 UNL     1      -4.246  -1.003   1.487  1.00  0.00     0.129 HD
BRANCH  18  20
HETATM   20  C29 UNL     1      -6.036  -0.922   0.713  1.00  0.00     0.113 A 
HETATM   21  C32 UNL     1      -7.277  -1.468   0.309  1.00  0.00     0.117 A 
HETATM   22  C31 UNL     1      -8.327  -0.576   0.135  1.00  0.00     0.141 A 
HETATM   23  N17 UNL     1      -7.702  -2.755   0.047  1.00  0.00    -0.346 N 
HETATM   24  N16 UNL     1      -8.302   0.753   0.312  1.00  0.00    -0.317 N 
HETATM   25  N18 UNL     1      -9.391  -1.340  -0.260  1.00  0.00    -0.320 N 
HETATM   26  C30 UNL     1      -7.077   1.153   0.696  1.00  0.00     0.181 A 
ATOM     27  H16 UNL     1      -9.100   1.373   0.175  1.00  0.00     0.170 HD
HETATM   28  N15 UNL     1      -5.970   0.418   0.911  1.00  0.00    -0.321 N 
HETATM   29 CL2  UNL     1      -6.902   2.835   0.962  1.00  0.00    -0.045 Cl
ATOM     30  H15 UNL     1      -5.102   0.859   1.216  1.00  0.00     0.169 HD
HETATM   31  C33 UNL     1      -8.969  -2.643  -0.287  1.00  0.00     0.185 A 
ATOM     32  H17 UNL     1      -7.150  -3.611   0.101  1.00  0.00     0.167 HD
BRANCH  25  33
HETATM   33  C34 UNL     1     -10.729  -0.888  -0.583  1.00  0.00     0.126 C 
HETATM   34  C35 UNL     1     -10.800   0.192  -1.681  1.00  0.00     0.060 C 
HETATM   35  C36 UNL     1     -11.787   1.264  -1.171  1.00  0.00     0.160 C 
HETATM   36  C37 UNL     1     -12.552   0.563  -0.046  1.00  0.00     0.175 C 
HETATM   37  C38 UNL     1     -11.486  -0.309   0.621  1.00  0.00     0.172 C 
BRANCH  35  38
HETATM   38  N19 UNL     1     -11.109   2.478  -0.750  1.00  0.00    -0.227 N 
HETATM   39  N20 UNL     1     -11.064   2.868   0.541  1.00  0.00    -0.293 N 
HETATM   40  C39 UNL     1     -10.354   3.997   0.458  1.00  0.00     0.137 A 
ATOM     41  H20 UNL     1     -11.466   2.419   1.364  1.00  0.00     0.187 HD
HETATM   42  C40 UNL     1     -10.011   4.251  -0.880  1.00  0.00     0.067 A 
HETATM   43  N21 UNL     1     -10.515   3.280  -1.661  1.00  0.00    -0.284 N 
ATOM     44  H21 UNL     1     -10.463   3.176  -2.674  1.00  0.00     0.188 HD
BRANCH  42  45
HETATM   45  C41 UNL     1      -9.223   5.375  -1.452  1.00  0.00     0.224 C 
BRANCH  45  46
HETATM   46  O5  UNL     1      -9.558   5.623  -2.819  1.00  0.00    -0.395 OA
HETATM   47  H51 UNL     1      -9.915   4.770  -3.141  1.00  0.00     0.209 HD
ENDBRANCH  45  46
ENDBRANCH  42  45
ENDBRANCH  35  38
BRANCH  36  48
HETATM   48  O4  UNL     1     -13.568  -0.284  -0.613  1.00  0.00    -0.391 OA
HETATM   49  H50 UNL     1     -13.748  -0.974   0.059  1.00  0.00     0.210 HD
ENDBRANCH  36  48
BRANCH  37  50
HETATM   50  O3  UNL     1     -12.109  -1.340   1.389  1.00  0.00    -0.391 OA
HETATM   51  H49 UNL     1     -12.318  -0.958   2.263  1.00  0.00     0.210 HD
ENDBRANCH  37  50
ENDBRANCH  25  33
ENDBRANCH  18  20
ENDBRANCH  15  18
ENDBRANCH  10  12
ENDBRANCH   2  10
BRANCH   1  52
HETATM   52  N9  UNL     1       2.570  -2.744  -3.000  1.00  0.00    -0.259 NA
HETATM   53  H44 UNL     1       2.640  -2.296  -3.908  1.00  0.00     0.131 HD
BRANCH  52  54
HETATM   54  C3  UNL     1       3.385  -2.150  -1.948  1.00  0.00     0.063 C 
HETATM   55  C2  UNL     1       3.769  -3.167  -0.860  1.00  0.00     0.022 C 
HETATM   56  C1  UNL     1       3.908  -2.533   0.525  1.00  0.00     0.026 C 
HETATM   57  C6  UNL     1       4.578  -1.155   0.444  1.00  0.00     0.083 C 
HETATM   58  C5  UNL     1       3.737  -0.174  -0.396  1.00  0.00     0.026 C 
HETATM   59  C4  UNL     1       2.786  -0.858  -1.382  1.00  0.00     0.022 C 
BRANCH  57  60
HETATM   60  N1  UNL     1       4.768  -0.655   1.799  1.00  0.00    -0.370 N 
HETATM   61  H43 UNL     1       3.939  -0.618   2.385  1.00  0.00     0.161 HD
BRANCH  60  62
HETATM   62  C7  UNL     1       5.543   0.475   2.036  1.00  0.00     0.134 A 
HETATM   63  C10 UNL     1       6.607   0.959   1.240  1.00  0.00     0.122 A 
HETATM   64  C9  UNL     1       7.252   2.103   1.685  1.00  0.00     0.142 A 
HETATM   65  N4  UNL     1       7.175   0.531   0.059  1.00  0.00    -0.346 N 
HETATM   66  N3  UNL     1       6.992   2.807   2.801  1.00  0.00    -0.317 N 
HETATM   67  N5  UNL     1       8.224   2.369   0.749  1.00  0.00    -0.320 N 
HETATM   68  C8  UNL     1       5.960   2.255   3.467  1.00  0.00     0.182 A 
ATOM     69  H3  UNL     1       7.502   3.638   3.100  1.00  0.00     0.170 HD
HETATM   70  N2  UNL     1       5.232   1.165   3.162  1.00  0.00    -0.317 N 
HETATM   71 CL1  UNL     1       5.511   3.061   4.908  1.00  0.00    -0.045 Cl
ATOM     72  H2  UNL     1       4.465   0.865   3.763  1.00  0.00     0.170 HD
HETATM   73  C11 UNL     1       8.151   1.380  -0.190  1.00  0.00     0.185 A 
ATOM     74  H4  UNL     1       6.898  -0.274  -0.503  1.00  0.00     0.167 HD
BRANCH  67  75
HETATM   75  C12 UNL     1       9.110   3.520   0.813  1.00  0.00     0.123 C 
HETATM   76  C13 UNL     1       9.971   3.840  -0.429  1.00  0.00     0.057 C 
HETATM   77  C14 UNL     1      11.433   3.774   0.032  1.00  0.00     0.131 C 
HETATM   78  C15 UNL     1      11.367   4.107   1.517  1.00  0.00     0.063 C 
HETATM   79  C16 UNL     1      10.095   3.419   1.996  1.00  0.00     0.143 C 
BRANCH  77  80
HETATM   80  N6  UNL     1      12.062   2.487  -0.218  1.00  0.00    -0.229 N 
HETATM   81  N7  UNL     1      11.420   1.329   0.032  1.00  0.00    -0.293 N 
HETATM   82  C17 UNL     1      12.343   0.428  -0.316  1.00  0.00     0.137 A 
ATOM     83  H7  UNL     1      10.477   1.180   0.392  1.00  0.00     0.187 HD
HETATM   84  C18 UNL     1      13.505   1.081  -0.763  1.00  0.00     0.067 A 
HETATM   85  N8  UNL     1      13.319   2.412  -0.697  1.00  0.00    -0.284 N 
ATOM     86  H8  UNL     1      13.960   3.165  -0.944  1.00  0.00     0.188 HD
BRANCH  84  87
HETATM   87  C19 UNL     1      14.785   0.500  -1.246  1.00  0.00     0.224 C 
BRANCH  87  88
HETATM   88  O2  UNL     1      15.507   1.409  -2.078  1.00  0.00    -0.395 OA
HETATM   89  H48 UNL     1      15.177   2.294  -1.821  1.00  0.00     0.209 HD
ENDBRANCH  87  88
ENDBRANCH  84  87
ENDBRANCH  77  80
BRANCH  79  90
HETATM   90  O1  UNL     1       9.610   4.098   3.149  1.00  0.00    -0.393 OA
HETATM   91  H47 UNL     1       8.741   3.706   3.376  1.00  0.00     0.210 HD
ENDBRANCH  79  90
ENDBRANCH  67  75
ENDBRANCH  60  62
ENDBRANCH  57  60
ENDBRANCH  52  54
ENDBRANCH   1  52
TORSDOF 19
