REMARK  25 active torsions:
REMARK  status: ('A' for Active; 'I' for Inactive)
REMARK    1  A    between atoms: C5_5  and  C6_6 
REMARK    2  A    between atoms: C6_6  and  O1_62 
REMARK    3  A    between atoms: C7_7  and  C8_8 
REMARK    4  A    between atoms: C7_7  and  O1_62 
REMARK    5  A    between atoms: C8_8  and  C9_9 
REMARK    6  A    between atoms: C8_8  and  C15_15 
REMARK    7  A    between atoms: C8_8  and  O9_70 
REMARK    8  A    between atoms: C17_17  and  O3_64 
REMARK    9  A    between atoms: C21_21  and  C22_22 
REMARK   10  A    between atoms: C21_21  and  O3_64 
REMARK   11  A    between atoms: C25_25  and  C28_28 
REMARK       I    between atoms: C28_28  and  N2_59 
REMARK   12  A    between atoms: C29_29  and  C30_30 
REMARK   13  A    between atoms: C29_29  and  N2_59 
REMARK   14  A    between atoms: C30_30  and  C31_31 
REMARK   15  A    between atoms: C31_31  and  C32_32 
REMARK   16  A    between atoms: C32_32  and  C33_33 
REMARK   17  A    between atoms: C36_36  and  C39_39 
REMARK   18  A    between atoms: C39_39  and  N3_60 
REMARK   19  A    between atoms: C40_40  and  C41_41 
REMARK   20  A    between atoms: C40_40  and  N3_60 
REMARK   21  A    between atoms: C41_41  and  C42_42 
REMARK   22  A    between atoms: C41_41  and  O8_69 
REMARK   23  A    between atoms: C48_48  and  O7_68 
REMARK   24  A    between atoms: C51_51  and  C52_52 
REMARK   25  A    between atoms: C51_51  and  N1_58 
ROOT
HETATM    1  C22 UNL     1       1.397   1.465   3.877  1.00  0.00    -0.034 A 
HETATM    2  C23 UNL     1       1.835   0.961   5.110  1.00  0.00     0.010 A 
HETATM    3  C24 UNL     1       2.939   1.524   5.760  1.00  0.00     0.017 A 
HETATM    4  C25 UNL     1       3.624   2.597   5.180  1.00  0.00     0.032 A 
HETATM    5  C26 UNL     1       3.162   3.131   3.970  1.00  0.00     0.017 A 
HETATM    6  C27 UNL     1       2.058   2.571   3.324  1.00  0.00     0.010 A 
ENDROOT
BRANCH   4   7
HETATM    7  C28 UNL     1       4.862   3.184   5.772  1.00  0.00     0.251 C 
HETATM    8  N2  UNL     1       5.580   2.384   6.641  1.00  0.00    -0.357 N 
HETATM    9  H53 UNL     1       5.339   1.400   6.710  1.00  0.00     0.162 HD
HETATM   10  O4  UNL     1       5.239   4.297   5.419  1.00  0.00    -0.268 OA
BRANCH   8  11
HETATM   11  C29 UNL     1       6.929   2.731   7.042  1.00  0.00     0.123 C 
BRANCH  11  12
HETATM   12  C30 UNL     1       7.989   1.824   6.405  1.00  0.00     0.027 C 
BRANCH  12  13
HETATM   13  C31 UNL     1       7.860   1.683   4.883  1.00  0.00     0.085 C 
BRANCH  13  14
HETATM   14  C32 UNL     1       6.754   0.713   4.485  1.00  0.00     0.159 C 
HETATM   15  O5  UNL     1       6.297  -0.113   5.277  1.00  0.00    -0.292 OA
BRANCH  14  16
HETATM   16  C33 UNL     1       6.189   0.776   3.103  1.00  0.00     0.010 A 
HETATM   17  C34 UNL     1       5.016   0.057   2.837  1.00  0.00     0.015 A 
HETATM   18  C35 UNL     1       4.407   0.129   1.583  1.00  0.00     0.010 A 
HETATM   19  C36 UNL     1       4.973   0.902   0.561  1.00  0.00    -0.030 A 
HETATM   20  C37 UNL     1       6.154   1.610   0.828  1.00  0.00     0.010 A 
HETATM   21  C38 UNL     1       6.761   1.546   2.088  1.00  0.00     0.015 A 
BRANCH  19  22
HETATM   22  C39 UNL     1       4.306   1.004  -0.790  1.00  0.00     0.308 C 
BRANCH  22  23
HETATM   23  N3  UNL     1       4.122  -0.278  -1.483  1.00  0.00     0.090 N 
HETATM   24  H54 UNL     1       3.555  -0.884  -0.887  1.00  0.00     0.316 HD
BRANCH  23  25
HETATM   25  C40 UNL     1       5.380  -0.993  -1.790  1.00  0.00     0.306 C 
BRANCH  25  26
HETATM   26  C41 UNL     1       6.253  -0.270  -2.846  1.00  0.00     0.180 C 
BRANCH  26  27
HETATM   27  C42 UNL     1       7.411  -1.139  -3.313  1.00  0.00    -0.015 A 
HETATM   28  C43 UNL     1       8.607  -1.274  -2.568  1.00  0.00     0.003 A 
HETATM   29  C44 UNL     1       8.853  -0.575  -1.296  1.00  0.00     0.020 A 
HETATM   30  C47 UNL     1       9.629  -2.121  -3.048  1.00  0.00     0.079 A 
HETATM   31  C45 UNL     1       9.982  -0.772  -0.604  1.00  0.00     0.075 A 
HETATM   32  C46 UNL     1      11.024  -1.704  -1.083  1.00  0.00     0.245 A 
HETATM   33  N4  UNL     1      10.796  -2.309  -2.285  1.00  0.00    -0.321 N 
HETATM   34  O6  UNL     1      12.036  -1.911  -0.424  1.00  0.00    -0.268 OA
HETATM   35  H55 UNL     1      11.482  -2.998  -2.558  1.00  0.00     0.169 HD
HETATM   36  C48 UNL     1       9.478  -2.800  -4.259  1.00  0.00     0.093 A 
HETATM   37  C49 UNL     1       8.301  -2.696  -4.981  1.00  0.00     0.039 A 
HETATM   38  C50 UNL     1       7.277  -1.875  -4.510  1.00  0.00     0.013 A 
BRANCH  36  39
HETATM   39  O7  UNL     1      10.477  -3.565  -4.790  1.00  0.00    -0.358 OA
HETATM   40  H56 UNL     1      11.314  -3.109  -4.600  1.00  0.00     0.217 HD
ENDBRANCH  36  39
ENDBRANCH  26  27
BRANCH  26  41
HETATM   41  O8  UNL     1       5.411   0.101  -3.949  1.00  0.00    -0.389 OA
HETATM   42  H57 UNL     1       4.530   0.241  -3.547  1.00  0.00     0.210 HD
ENDBRANCH  26  41
ENDBRANCH  25  26
ENDBRANCH  23  25
ENDBRANCH  22  23
ENDBRANCH  19  22
ENDBRANCH  14  16
ENDBRANCH  13  14
ENDBRANCH  12  13
ENDBRANCH  11  12
ENDBRANCH   8  11
ENDBRANCH   4   7
BRANCH   1  43
HETATM   43  C21 UNL     1       0.221   0.844   3.158  1.00  0.00     0.214 C 
BRANCH  43  44
HETATM   44  O3  UNL     1       0.633   0.503   1.832  1.00  0.00    -0.347 OA
BRANCH  44  45
HETATM   45  C17 UNL     1      -0.325  -0.002   0.998  1.00  0.00     0.069 A 
HETATM   46  C16 UNL     1      -1.631  -0.341   1.355  1.00  0.00     0.047 A 
HETATM   47  C15 UNL     1      -2.546  -0.860   0.409  1.00  0.00    -0.007 A 
HETATM   48  C20 UNL     1      -2.099  -1.037  -0.911  1.00  0.00     0.011 A 
HETATM   49  C19 UNL     1      -0.793  -0.702  -1.272  1.00  0.00     0.003 A 
HETATM   50  C18 UNL     1       0.086  -0.187  -0.321  1.00  0.00     0.037 A 
BRANCH  47  51
HETATM   51  C8  UNL     1      -3.975  -1.201   0.866  1.00  0.00     0.201 C 
BRANCH  51  52
HETATM   52  C7  UNL     1      -4.822  -1.960  -0.194  1.00  0.00     0.303 C 
HETATM   53  O2  UNL     1      -5.001  -3.177  -0.154  1.00  0.00    -0.261 OA
BRANCH  52  54
HETATM   54  O1  UNL     1      -5.301  -1.141  -1.171  1.00  0.00    -0.318 OA
BRANCH  54  55
HETATM   55  C6  UNL     1      -6.156  -1.780  -2.132  1.00  0.00     0.183 C 
BRANCH  55  56
HETATM   56  C5  UNL     1      -6.693  -0.705  -3.091  1.00  0.00     0.013 C 
HETATM   57  C1  UNL     1      -7.615   0.298  -2.364  1.00  0.00     0.037 C 
HETATM   58  C2  UNL     1      -9.110   0.048  -2.611  1.00  0.00     0.273 C 
HETATM   59  N1  UNL     1      -9.370  -1.383  -2.695  1.00  0.00     0.092 N 
HETATM   60  C3  UNL     1      -8.748  -2.010  -3.862  1.00  0.00     0.273 C 
HETATM   61  C4  UNL     1      -7.432  -1.334  -4.275  1.00  0.00     0.037 C 
BRANCH  59  62
HETATM   62  C51 UNL     1     -10.769  -1.770  -2.479  1.00  0.00     0.311 C 
BRANCH  62  63
HETATM   63  C52 UNL     1     -11.782  -1.268  -3.488  1.00  0.00    -0.030 A 
HETATM   64  C53 UNL     1     -12.167  -2.070  -4.574  1.00  0.00     0.009 A 
HETATM   65  C54 UNL     1     -13.103  -1.610  -5.502  1.00  0.00     0.001 A 
HETATM   66  C55 UNL     1     -13.670  -0.346  -5.355  1.00  0.00     0.000 A 
HETATM   67  C56 UNL     1     -13.304   0.458  -4.278  1.00  0.00     0.001 A 
HETATM   68  C57 UNL     1     -12.368  -0.001  -3.349  1.00  0.00     0.009 A 
ENDBRANCH  62  63
ENDBRANCH  59  62
ENDBRANCH  55  56
ENDBRANCH  54  55
ENDBRANCH  52  54
ENDBRANCH  51  52
BRANCH  51  69
HETATM   69  C9  UNL     1      -4.750   0.020   1.395  1.00  0.00    -0.009 A 
HETATM   70  C10 UNL     1      -5.577  -0.083   2.529  1.00  0.00     0.011 A 
HETATM   71  C11 UNL     1      -6.307   1.015   2.990  1.00  0.00     0.001 A 
HETATM   72  C12 UNL     1      -6.231   2.234   2.323  1.00  0.00     0.000 A 
HETATM   73  C13 UNL     1      -5.429   2.357   1.192  1.00  0.00     0.001 A 
HETATM   74  C14 UNL     1      -4.699   1.260   0.729  1.00  0.00     0.011 A 
ENDBRANCH  51  69
BRANCH  51  75
HETATM   75  O9  UNL     1      -3.775  -2.120   1.970  1.00  0.00    -0.371 OA
HETATM   76  H58 UNL     1      -3.876  -3.015   1.588  1.00  0.00     0.212 HD
ENDBRANCH  51  75
ENDBRANCH  47  51
ENDBRANCH  44  45
ENDBRANCH  43  44
ENDBRANCH   1  43
TORSDOF 25
