REMARK  26 active torsions:
REMARK  status: ('A' for Active; 'I' for Inactive)
REMARK    1  A    between atoms: C2_2  and  C38_38 
REMARK    2  A    between atoms: C4_4  and  N11_52 
REMARK    3  A    between atoms: C5_5  and  C29_29 
REMARK    4  A    between atoms: C6_6  and  N1_39 
REMARK    5  A    between atoms: C7_7  and  C8_8 
REMARK       I    between atoms: C7_7  and  N1_39 
REMARK    6  A    between atoms: C10_10  and  C12_12 
REMARK       I    between atoms: C12_12  and  N4_44 
REMARK    7  A    between atoms: C13_13  and  N4_44 
REMARK    8  A    between atoms: C14_14  and  C26_26 
REMARK    9  A    between atoms: C15_15  and  N5_45 
REMARK   10  A    between atoms: C17_17  and  C19_19 
REMARK   11  A    between atoms: C20_20  and  C21_21 
REMARK       I    between atoms: C20_20  and  N5_45 
REMARK   12  A    between atoms: C21_21  and  C22_22 
REMARK   13  A    between atoms: C22_22  and  C23_23 
REMARK   14  A    between atoms: C23_23  and  C24_24 
REMARK   15  A    between atoms: C24_24  and  N6_46 
REMARK       I    between atoms: C25_25  and  N6_46 
REMARK       I    between atoms: C25_25  and  N7_48 
REMARK       I    between atoms: C25_25  and  N8_49 
REMARK   16  A    between atoms: C26_26  and  C27_27 
REMARK   17  A    between atoms: C27_27  and  C28_28 
REMARK   18  A    between atoms: C28_28  and  N9_50 
REMARK   19  A    between atoms: C29_29  and  C30_30 
REMARK   20  A    between atoms: C30_30  and  C31_31 
REMARK   21  A    between atoms: C31_31  and  N10_51 
REMARK   22  A    between atoms: C32_32  and  C33_33 
REMARK       I    between atoms: C32_32  and  N11_52 
REMARK   23  A    between atoms: C33_33  and  C34_34 
REMARK   24  A    between atoms: C34_34  and  C35_35 
REMARK   25  A    between atoms: C35_35  and  C36_36 
REMARK   26  A    between atoms: C36_36  and  N12_53 
REMARK       I    between atoms: C37_37  and  N12_53 
REMARK       I    between atoms: C37_37  and  N14_56 
ROOT
HETATM    1  C8  UNL     1      -0.999   0.930  -1.304  1.00  0.00     0.104 A 
HETATM    2  C9  UNL     1       0.103   1.614  -1.757  1.00  0.00     0.070 A 
HETATM    3  C10 UNL     1       1.305   1.055  -1.400  1.00  0.00     0.104 A 
HETATM    4  C11 UNL     1       0.286  -0.653  -0.279  1.00  0.00     0.181 A 
HETATM    5  N2  UNL     1       1.431  -0.080  -0.662  1.00  0.00    -0.348 N 
ATOM      6  H2  UNL     1       2.341  -0.469  -0.416  1.00  0.00     0.167 HD
HETATM    7  N3  UNL     1      -0.944  -0.209  -0.562  1.00  0.00    -0.348 N 
ATOM      8  H3  UNL     1      -1.784  -0.692  -0.243  1.00  0.00     0.167 HD
ENDROOT
BRANCH   1   9
HETATM    9  C7  UNL     1      -2.376   1.433  -1.626  1.00  0.00     0.272 C 
HETATM   10  N1  UNL     1      -3.375   0.641  -1.090  1.00  0.00    -0.321 N 
HETATM   11  H35 UNL     1      -3.013  -0.155  -0.575  1.00  0.00     0.169 HD
HETATM   12  O1  UNL     1      -2.505   2.446  -2.299  1.00  0.00    -0.266 OA
BRANCH  10  13
HETATM   13  C6  UNL     1      -4.778   0.784  -1.196  1.00  0.00     0.044 A 
HETATM   14  C1  UNL     1      -5.346   1.820  -1.944  1.00  0.00     0.046 A 
HETATM   15  C2  UNL     1      -6.733   1.944  -2.079  1.00  0.00     0.052 A 
HETATM   16  C3  UNL     1      -7.562   0.985  -1.484  1.00  0.00     0.046 A 
HETATM   17  C4  UNL     1      -7.035  -0.067  -0.728  1.00  0.00     0.044 A 
HETATM   18  C5  UNL     1      -5.628  -0.150  -0.543  1.00  0.00    -0.004 A 
BRANCH  15  19
HETATM   19  C38 UNL     1      -7.331   3.055  -2.904  1.00  0.00     0.417 C 
HETATM   20  F4  UNL     1      -7.570   2.674  -4.189  1.00  0.00    -0.166 F 
HETATM   21  F5  UNL     1      -8.525   3.497  -2.417  1.00  0.00    -0.166 F 
HETATM   22  F6  UNL     1      -6.537   4.159  -2.982  1.00  0.00    -0.166 F 
ENDBRANCH  15  19
BRANCH  17  23
HETATM   23  N11 UNL     1      -7.876  -1.068  -0.176  1.00  0.00    -0.327 N 
HETATM   24  C32 UNL     1      -9.258  -1.055  -0.071  1.00  0.00     0.222 C 
HETATM   25  O4  UNL     1     -10.006  -0.141  -0.408  1.00  0.00    -0.273 OA
HETATM   26  H46 UNL     1      -7.418  -1.912   0.176  1.00  0.00     0.169 HD
BRANCH  24  27
HETATM   27  C33 UNL     1      -9.790  -2.339   0.564  1.00  0.00     0.103 C 
BRANCH  27  28
HETATM   28  C34 UNL     1     -11.305  -2.312   0.760  1.00  0.00     0.011 C 
BRANCH  28  29
HETATM   29  C35 UNL     1     -11.727  -1.317   1.848  1.00  0.00     0.020 C 
BRANCH  29  30
HETATM   30  C36 UNL     1     -13.084  -0.687   1.538  1.00  0.00     0.122 C 
BRANCH  30  31
HETATM   31  N12 UNL     1     -13.234   0.564   2.281  1.00  0.00    -0.367 N 
HETATM   32  C37 UNL     1     -12.744   1.631   1.761  1.00  0.00     0.143 C 
HETATM   33  N13 UNL     1     -12.047   1.796   0.616  1.00  0.00    -0.376 N 
HETATM   34  N14 UNL     1     -12.933   2.807   2.399  1.00  0.00    -0.274 NA
HETATM   35  H47 UNL     1     -11.566   0.984   0.229  1.00  0.00     0.158 HD
HETATM   36  H48 UNL     1     -11.509   2.641   0.509  1.00  0.00     0.158 HD
HETATM   37  H49 UNL     1     -12.101   3.370   2.495  1.00  0.00     0.127 HD
HETATM   38  H50 UNL     1     -13.362   2.636   3.303  1.00  0.00     0.127 HD
ATOM     39  H12 UNL     1     -13.712   0.588   3.182  1.00  0.00     0.162 HD
ENDBRANCH  30  31
ENDBRANCH  29  30
ENDBRANCH  28  29
ENDBRANCH  27  28
ENDBRANCH  24  27
ENDBRANCH  17  23
BRANCH  18  40
HETATM   40  C29 UNL     1      -5.043  -1.215   0.375  1.00  0.00     0.045 C 
BRANCH  40  41
HETATM   41  C30 UNL     1      -4.647  -2.490  -0.379  1.00  0.00     0.034 C 
BRANCH  41  42
HETATM   42  C31 UNL     1      -5.238  -3.751   0.250  1.00  0.00     0.267 C 
BRANCH  42  43
HETATM   43  N10 UNL     1      -6.695  -3.772   0.108  1.00  0.00     0.078 N 
HETATM   44  H44 UNL     1      -6.915  -3.905  -0.884  1.00  0.00     0.312 HD
HETATM   45  H45 UNL     1      -7.044  -4.620   0.562  1.00  0.00     0.312 HD
ENDBRANCH  42  43
ENDBRANCH  41  42
ENDBRANCH  40  41
ENDBRANCH  18  40
ENDBRANCH  10  13
ENDBRANCH   1   9
BRANCH   3  46
HETATM   46  C12 UNL     1       2.589   1.698  -1.833  1.00  0.00     0.272 C 
HETATM   47  N4  UNL     1       3.707   1.021  -1.382  1.00  0.00    -0.321 N 
HETATM   48  H36 UNL     1       3.481   0.202  -0.824  1.00  0.00     0.169 HD
HETATM   49  O2  UNL     1       2.557   2.709  -2.521  1.00  0.00    -0.266 OA
BRANCH  47  50
HETATM   50  C13 UNL     1       5.073   1.331  -1.563  1.00  0.00     0.044 C 
HETATM   51  C14 UNL     1       6.060   0.441  -1.057  1.00  0.00    -0.004 C 
HETATM   52  C15 UNL     1       7.418   0.833  -1.116  1.00  0.00     0.044 C 
HETATM   53  C16 UNL     1       7.786   1.988  -1.819  1.00  0.00     0.046 C 
HETATM   54  C17 UNL     1       6.821   2.827  -2.383  1.00  0.00     0.052 C 
HETATM   55  C18 UNL     1       5.469   2.503  -2.220  1.00  0.00     0.046 C 
BRANCH  51  56
HETATM   56  C26 UNL     1       5.666  -0.956  -0.588  1.00  0.00     0.045 C 
BRANCH  56  57
HETATM   57  C27 UNL     1       5.121  -1.865  -1.704  1.00  0.00     0.034 C 
BRANCH  57  58
HETATM   58  C28 UNL     1       6.186  -2.212  -2.746  1.00  0.00     0.267 C 
BRANCH  58  59
HETATM   59  N9  UNL     1       5.638  -3.140  -3.732  1.00  0.00     0.078 N 
HETATM   60  H42 UNL     1       4.875  -2.688  -4.235  1.00  0.00     0.312 HD
HETATM   61  H43 UNL     1       6.351  -3.344  -4.431  1.00  0.00     0.312 HD
ENDBRANCH  58  59
ENDBRANCH  57  58
ENDBRANCH  56  57
ENDBRANCH  51  56
BRANCH  52  62
HETATM   62  N5  UNL     1       8.487   0.124  -0.517  1.00  0.00    -0.327 N 
HETATM   63  C20 UNL     1       8.473  -0.305   0.808  1.00  0.00     0.222 C 
HETATM   64  O3  UNL     1       7.533  -0.182   1.587  1.00  0.00    -0.273 OA
HETATM   65  H37 UNL     1       9.414   0.352  -0.858  1.00  0.00     0.169 HD
BRANCH  63  66
HETATM   66  C21 UNL     1       9.784  -0.970   1.193  1.00  0.00     0.103 C 
BRANCH  66  67
HETATM   67  C22 UNL     1       9.944  -1.203   2.694  1.00  0.00     0.011 C 
BRANCH  67  68
HETATM   68  C23 UNL     1      10.014   0.066   3.557  1.00  0.00     0.020 C 
BRANCH  68  69
HETATM   69  C24 UNL     1      11.007   1.128   3.089  1.00  0.00     0.121 C 
BRANCH  69  70
HETATM   70  N6  UNL     1      12.334   0.551   2.896  1.00  0.00    -0.372 N 
HETATM   71  C25 UNL     1      13.164   0.530   3.866  1.00  0.00     0.121 C 
HETATM   72  N7  UNL     1      13.030   0.950   5.143  1.00  0.00    -0.279 NA
HETATM   73  N8  UNL     1      14.403   0.026   3.679  1.00  0.00    -0.279 NA
HETATM   74  H38 UNL     1      12.072   1.095   5.435  1.00  0.00     0.126 HD
HETATM   75  H39 UNL     1      13.512   0.342   5.796  1.00  0.00     0.126 HD
HETATM   76  H40 UNL     1      14.559  -0.136   2.689  1.00  0.00     0.126 HD
HETATM   77  H41 UNL     1      15.122   0.633   4.054  1.00  0.00     0.126 HD
ATOM     78  H6  UNL     1      12.597   0.166   1.989  1.00  0.00     0.161 HD
ENDBRANCH  69  70
ENDBRANCH  68  69
ENDBRANCH  67  68
ENDBRANCH  66  67
ENDBRANCH  63  66
ENDBRANCH  52  62
BRANCH  54  79
HETATM   79  C19 UNL     1       7.216   4.094  -3.098  1.00  0.00     0.417 C 
HETATM   80  F1  UNL     1       6.490   4.320  -4.227  1.00  0.00    -0.166 F 
HETATM   81  F2  UNL     1       8.521   4.096  -3.493  1.00  0.00    -0.166 F 
HETATM   82  F3  UNL     1       7.064   5.200  -2.320  1.00  0.00    -0.166 F 
ENDBRANCH  54  79
ENDBRANCH  47  50
ENDBRANCH   3  46
TORSDOF 26
