REMARK  9 active torsions:
REMARK  status: ('A' for Active; 'I' for Inactive)
REMARK    1  A    between atoms: C2_2  and  C25_25 
REMARK    2  A    between atoms: C4_4  and  C5_5 
REMARK       I    between atoms: C5_5  and  N3_37 
REMARK    3  A    between atoms: C6_6  and  N3_37 
REMARK    4  A    between atoms: C9_9  and  C12_12 
REMARK       I    between atoms: C12_12  and  N4_38 
REMARK    5  A    between atoms: C13_13  and  N4_38 
REMARK       I    between atoms: C18_18  and  N5_39 
REMARK       I    between atoms: C18_18  and  N6_40 
REMARK    6  A    between atoms: C19_19  and  N6_40 
REMARK    7  A    between atoms: C27_27  and  C28_28 
REMARK    8  A    between atoms: C29_29  and  N8_42 
REMARK    9  A    between atoms: C31_31  and  N11_47 
ROOT
HETATM    1  C5  UNL     1       4.294  -0.788   0.718  1.00  0.00     0.290 C 
HETATM    2  N3  UNL     1       3.376  -0.191  -0.128  1.00  0.00    -0.320 N 
HETATM    3  O1  UNL     1       4.020  -1.415   1.736  1.00  0.00    -0.264 OA
HETATM    4  H32 UNL     1       3.814   0.293  -0.911  1.00  0.00     0.169 HD
ENDROOT
BRANCH   2   5
HETATM    5  C6  UNL     1       1.976  -0.160  -0.029  1.00  0.00     0.036 A 
HETATM    6  C7  UNL     1       1.249  -0.784   0.986  1.00  0.00     0.054 A 
HETATM    7  C8  UNL     1      -0.153  -0.706   1.020  1.00  0.00     0.051 A 
HETATM    8  C9  UNL     1      -0.845   0.011   0.036  1.00  0.00     0.053 A 
HETATM    9 CL1  UNL     1      -0.941  -1.569   2.298  1.00  0.00    -0.083 Cl
HETATM   10  C10 UNL     1      -0.110   0.622  -0.993  1.00  0.00     0.021 A 
HETATM   11  C11 UNL     1       1.285   0.539  -1.022  1.00  0.00     0.030 A 
BRANCH   8  12
HETATM   12  C12 UNL     1      -2.324   0.175  -0.028  1.00  0.00     0.253 C 
HETATM   13  N4  UNL     1      -3.008   0.243   1.170  1.00  0.00    -0.351 N 
HETATM   14  H33 UNL     1      -2.501   0.118   2.040  1.00  0.00     0.163 HD
HETATM   15  O2  UNL     1      -2.878   0.290  -1.119  1.00  0.00    -0.268 OA
BRANCH  13  16
HETATM   16  C13 UNL     1      -4.428   0.375   1.216  1.00  0.00     0.097 A 
HETATM   17  C14 UNL     1      -5.292  -0.851   1.066  1.00  0.00     0.035 A 
HETATM   18  C15 UNL     1      -5.233  -0.152   2.378  1.00  0.00     0.035 A 
HETATM   19  C17 UNL     1      -6.675  -0.742   0.523  1.00  0.00     0.134 C 
HETATM   20  C16 UNL     1      -6.597   0.381   2.679  1.00  0.00     0.134 C 
HETATM   21  N5  UNL     1      -7.376   0.119   1.472  1.00  0.00    -0.333 N 
HETATM   22  C18 UNL     1      -8.691   0.495   1.428  1.00  0.00     0.318 C 
HETATM   23  N6  UNL     1      -9.346   0.188   0.258  1.00  0.00    -0.337 N 
HETATM   24  O3  UNL     1      -9.265   1.061   2.353  1.00  0.00    -0.247 OA
HETATM   25  H34 UNL     1      -8.744   0.202  -0.553  1.00  0.00     0.164 HD
BRANCH  23  26
HETATM   26  C19 UNL     1     -10.724   0.608   0.102  1.00  0.00     0.113 C 
HETATM   27  C20 UNL     1     -10.859   2.078  -0.260  1.00  0.00     0.055 C 
HETATM   28  C21 UNL     1     -12.316   2.189  -0.658  1.00  0.00     0.238 C 
HETATM   29  N7  UNL     1     -12.621   0.878  -1.415  1.00  0.00    -0.073 N 
HETATM   30  C22 UNL     1     -11.471  -0.087  -1.038  1.00  0.00     0.261 C 
HETATM   31  C23 UNL     1     -12.646   1.119  -2.915  1.00  0.00     0.272 C 
HETATM   32  C24 UNL     1     -13.961   0.313  -0.971  1.00  0.00     0.272 C 
ENDBRANCH  23  26
ENDBRANCH  13  16
ENDBRANCH   8  12
ENDBRANCH   2   5
BRANCH   1  33
HETATM   33  C4  UNL     1       5.662  -0.572   0.252  1.00  0.00     0.177 C 
HETATM   34  N1  UNL     1       6.827  -1.056   0.817  1.00  0.00    -0.331 N 
HETATM   35  C1  UNL     1       6.864  -2.136   1.774  1.00  0.00     0.158 C 
HETATM   36  C2  UNL     1       7.886  -0.505   0.132  1.00  0.00     0.065 C 
HETATM   37  C3  UNL     1       7.295   0.153  -0.930  1.00  0.00     0.120 C 
HETATM   38  N2  UNL     1       5.929   0.132  -0.837  1.00  0.00    -0.345 N 
ATOM     39  H2  UNL     1       5.259   0.567  -1.472  1.00  0.00     0.167 HD
BRANCH  36  40
HETATM   40  C25 UNL     1       9.427  -0.557   0.387  1.00  0.00     0.043 A 
HETATM   41  C26 UNL     1      10.333  -0.218  -0.591  1.00  0.00     0.134 A 
HETATM   42  N8  UNL     1      11.593  -0.400  -0.074  1.00  0.00    -0.250 N 
HETATM   43  N9  UNL     1      11.541  -0.809   1.217  1.00  0.00    -0.288 N 
HETATM   44  C27 UNL     1      10.226  -0.861   1.527  1.00  0.00     0.146 A 
ATOM     45  H9  UNL     1      12.328  -1.031   1.826  1.00  0.00     0.187 HD
BRANCH  42  46
HETATM   46  C29 UNL     1      12.823  -0.196  -0.768  1.00  0.00     0.126 A 
HETATM   47  C33 UNL     1      14.026  -0.408  -0.099  1.00  0.00     0.052 A 
HETATM   48  C32 UNL     1      15.222  -0.206  -0.790  1.00  0.00     0.028 A 
HETATM   49  C31 UNL     1      15.205   0.159  -2.134  1.00  0.00     0.021 A 
HETATM   50  C30 UNL     1      13.952   0.402  -2.695  1.00  0.00     0.113 A 
HETATM   51  N10 UNL     1      12.767   0.214  -2.064  1.00  0.00    -0.349 N 
ATOM     52  H10 UNL     1      11.877   0.372  -2.537  1.00  0.00     0.167 HD
BRANCH  49  53
HETATM   53  N11 UNL     1      16.391   0.485  -2.797  1.00  0.00    -0.302 NA
HETATM   54  H35 UNL     1      16.336   0.440  -3.810  1.00  0.00     0.124 HD
HETATM   55  H36 UNL     1      17.214   0.010  -2.437  1.00  0.00     0.124 HD
ENDBRANCH  49  53
ENDBRANCH  42  46
BRANCH  44  56
HETATM   56  C28 UNL     1       9.797  -1.124   2.943  1.00  0.00     0.434 C 
HETATM   57  F1  UNL     1       8.678  -0.425   3.277  1.00  0.00    -0.165 F 
HETATM   58  F2  UNL     1       9.511  -2.436   3.157  1.00  0.00    -0.165 F 
HETATM   59  F3  UNL     1      10.740  -0.780   3.862  1.00  0.00    -0.165 F 
ENDBRANCH  44  56
ENDBRANCH  36  40
ENDBRANCH   1  33
TORSDOF 9
