REMARK  16 active torsions:
REMARK  status: ('A' for Active; 'I' for Inactive)
REMARK    1  A    between atoms: C3_3  and  N7_45 
REMARK    2  A    between atoms: C5_5  and  C6_6 
REMARK       I    between atoms: C6_6  and  N2_39 
REMARK    3  A    between atoms: C7_7  and  N2_39 
REMARK    4  A    between atoms: C9_9  and  C11_11 
REMARK       I    between atoms: C11_11  and  N4_41 
REMARK    5  A    between atoms: C12_12  and  C13_13 
REMARK    6  A    between atoms: C12_12  and  N4_41 
REMARK    7  A    between atoms: C13_13  and  C14_14 
REMARK    8  A    between atoms: C14_14  and  N5_42 
REMARK    9  A    between atoms: C16_16  and  C17_17 
REMARK       I    between atoms: C16_16  and  N7_45 
REMARK   10  A    between atoms: C20_20  and  N8_46 
REMARK   11  A    between atoms: C23_23  and  C24_24 
REMARK       I    between atoms: C23_23  and  N8_46 
REMARK   12  A    between atoms: C26_26  and  N10_48 
REMARK   13  A    between atoms: C28_28  and  C29_29 
REMARK       I    between atoms: C28_28  and  N10_48 
REMARK   14  A    between atoms: C31_31  and  N12_50 
REMARK   15  A    between atoms: C33_33  and  C34_34 
REMARK       I    between atoms: C33_33  and  N12_50 
REMARK   16  A    between atoms: C34_34  and  N13_51 
REMARK       I    between atoms: C35_35  and  N14_53 
REMARK       I    between atoms: C35_35  and  N15_54 
ROOT
HETATM    1  C17 UNL     1       1.395   0.482   2.105  1.00  0.00     0.032 A 
HETATM    2  C18 UNL     1       0.766   0.521   3.354  1.00  0.00     0.019 A 
HETATM    3  C19 UNL     1      -0.633   0.519   3.441  1.00  0.00     0.030 A 
HETATM    4  C20 UNL     1      -1.418   0.469   2.287  1.00  0.00     0.035 A 
HETATM    5  C21 UNL     1      -0.782   0.407   1.040  1.00  0.00     0.030 A 
HETATM    6  C22 UNL     1       0.614   0.409   0.948  1.00  0.00     0.019 A 
ENDROOT
BRANCH   4   7
HETATM    7  N8  UNL     1      -2.827   0.466   2.288  1.00  0.00    -0.323 N 
HETATM    8  C23 UNL     1      -3.677   0.541   3.377  1.00  0.00     0.257 C 
HETATM    9  O4  UNL     1      -3.325   0.633   4.548  1.00  0.00    -0.267 OA
HETATM   10  H37 UNL     1      -3.265   0.408   1.379  1.00  0.00     0.169 HD
BRANCH   8  11
HETATM   11  C24 UNL     1      -5.104   0.506   3.026  1.00  0.00     0.051 A 
HETATM   12  C25 UNL     1      -6.128   0.567   3.957  1.00  0.00     0.109 A 
HETATM   13  N9  UNL     1      -7.331   0.511   3.305  1.00  0.00    -0.346 N 
HETATM   14  C26 UNL     1      -7.121   0.416   1.948  1.00  0.00     0.110 A 
HETATM   15  C37 UNL     1      -8.614   0.549   3.973  1.00  0.00     0.157 C 
HETATM   16  C27 UNL     1      -5.752   0.411   1.757  1.00  0.00     0.067 A 
BRANCH  14  17
HETATM   17  N10 UNL     1      -8.168   0.345   1.044  1.00  0.00    -0.309 N 
HETATM   18  C28 UNL     1      -7.998   0.252  -0.329  1.00  0.00     0.258 C 
HETATM   19  O5  UNL     1      -6.919   0.224  -0.914  1.00  0.00    -0.267 OA
HETATM   20  H38 UNL     1      -9.110   0.361   1.402  1.00  0.00     0.170 HD
BRANCH  18  21
HETATM   21  C29 UNL     1      -9.260   0.186  -1.077  1.00  0.00     0.051 A 
HETATM   22  C30 UNL     1      -9.336   0.086  -2.457  1.00  0.00     0.109 A 
HETATM   23  N11 UNL     1     -10.653   0.046  -2.832  1.00  0.00    -0.347 N 
HETATM   24  C31 UNL     1     -11.455   0.120  -1.717  1.00  0.00     0.110 A 
HETATM   25  C36 UNL     1     -11.106  -0.062  -4.201  1.00  0.00     0.157 C 
HETATM   26  C32 UNL     1     -10.614   0.206  -0.624  1.00  0.00     0.067 A 
BRANCH  24  27
HETATM   27  N12 UNL     1     -12.830   0.102  -1.798  1.00  0.00    -0.312 N 
HETATM   28  C33 UNL     1     -13.684   0.170  -0.711  1.00  0.00     0.240 C 
HETATM   29  O6  UNL     1     -13.363   0.253   0.473  1.00  0.00    -0.271 OA
HETATM   30  H39 UNL     1     -13.309   0.039  -2.694  1.00  0.00     0.170 HD
BRANCH  28  31
HETATM   31  C34 UNL     1     -15.156   0.116  -1.127  1.00  0.00     0.224 C 
BRANCH  31  32
HETATM   32  N13 UNL     1     -15.265   0.092  -2.601  1.00  0.00    -0.363 N 
HETATM   33  C35 UNL     1     -16.448   0.060  -3.089  1.00  0.00     0.122 C 
HETATM   34  N14 UNL     1     -16.627   0.067  -4.427  1.00  0.00    -0.279 NA
HETATM   35  N15 UNL     1     -17.647   0.030  -2.469  1.00  0.00    -0.279 NA
HETATM   36  H40 UNL     1     -15.761   0.279  -4.911  1.00  0.00     0.126 HD
HETATM   37  H41 UNL     1     -17.361   0.703  -4.719  1.00  0.00     0.126 HD
HETATM   38  H42 UNL     1     -18.328  -0.538  -2.962  1.00  0.00     0.126 HD
HETATM   39  H43 UNL     1     -17.626  -0.213  -1.486  1.00  0.00     0.126 HD
ATOM     40  H13 UNL     1     -14.439   0.101  -3.199  1.00  0.00     0.162 HD
ENDBRANCH  31  32
ENDBRANCH  28  31
ENDBRANCH  24  27
ENDBRANCH  18  21
ENDBRANCH  14  17
ENDBRANCH   8  11
ENDBRANCH   4   7
BRANCH   1  41
HETATM   41  C16 UNL     1       2.879   0.485   1.964  1.00  0.00     0.256 C 
HETATM   42  N7  UNL     1       3.556   1.220   2.920  1.00  0.00    -0.322 N 
HETATM   43  H36 UNL     1       3.031   1.770   3.585  1.00  0.00     0.169 HD
HETATM   44  O3  UNL     1       3.379  -0.118   1.020  1.00  0.00    -0.267 OA
BRANCH  42  45
HETATM   45  C3  UNL     1       4.930   1.337   2.993  1.00  0.00     0.053 A 
HETATM   46  C2  UNL     1       5.564   2.121   3.925  1.00  0.00     0.120 A 
HETATM   47  N1  UNL     1       6.919   2.012   3.728  1.00  0.00    -0.354 N 
HETATM   48  C1  UNL     1       7.906   2.708   4.529  1.00  0.00     0.156 C 
HETATM   49  C5  UNL     1       7.187   1.161   2.667  1.00  0.00     0.105 A 
HETATM   50  C4  UNL     1       5.942   0.732   2.212  1.00  0.00     0.066 A 
BRANCH  49  51
HETATM   51  C6  UNL     1       8.531   0.827   2.192  1.00  0.00     0.273 C 
HETATM   52  N2  UNL     1       8.552   0.054   1.045  1.00  0.00    -0.320 N 
HETATM   53  H31 UNL     1       7.673  -0.203   0.621  1.00  0.00     0.169 HD
HETATM   54  O1  UNL     1       9.537   1.222   2.777  1.00  0.00    -0.266 OA
BRANCH  52  55
HETATM   55  C7  UNL     1       9.680  -0.405   0.390  1.00  0.00     0.053 A 
HETATM   56  C8  UNL     1      10.999  -0.222   0.723  1.00  0.00     0.120 A 
HETATM   57  N3  UNL     1      11.778  -0.878  -0.199  1.00  0.00    -0.354 N 
HETATM   58  C9  UNL     1      10.981  -1.438  -1.177  1.00  0.00     0.104 A 
HETATM   59  C15 UNL     1      13.213  -1.012  -0.059  1.00  0.00     0.156 C 
HETATM   60  C10 UNL     1       9.670  -1.187  -0.789  1.00  0.00     0.066 A 
BRANCH  58  61
HETATM   61  C11 UNL     1      11.385  -2.191  -2.348  1.00  0.00     0.268 C 
HETATM   62  N4  UNL     1      12.496  -1.713  -2.999  1.00  0.00    -0.355 N 
HETATM   63  H32 UNL     1      13.016  -0.927  -2.620  1.00  0.00     0.162 HD
HETATM   64  O2  UNL     1      10.758  -3.161  -2.764  1.00  0.00    -0.266 OA
BRANCH  62  65
HETATM   65  C12 UNL     1      13.115  -2.424  -4.097  1.00  0.00     0.130 C 
BRANCH  65  66
HETATM   66  C13 UNL     1      14.043  -1.529  -4.909  1.00  0.00     0.095 C 
BRANCH  66  67
HETATM   67  C14 UNL     1      15.274  -1.140  -4.112  1.00  0.00     0.069 C 
HETATM   68  N6  UNL     1      16.504  -1.517  -4.556  1.00  0.00    -0.389 N 
HETATM   69  H34 UNL     1      16.584  -1.778  -5.533  1.00  0.00     0.157 HD
HETATM   70  H35 UNL     1      17.298  -0.981  -4.228  1.00  0.00     0.157 HD
BRANCH  67  71
HETATM   71  N5  UNL     1      15.133  -0.442  -3.034  1.00  0.00    -0.389 N 
HETATM   72  H33 UNL     1      16.054  -0.278  -2.618  1.00  0.00     0.157 HD
ATOM     73  H5  UNL     1      14.246  -0.108  -2.658  1.00  0.00     0.157 HD
ENDBRANCH  67  71
ENDBRANCH  66  67
ENDBRANCH  65  66
ENDBRANCH  62  65
ENDBRANCH  58  61
ENDBRANCH  52  55
ENDBRANCH  49  51
ENDBRANCH  42  45
ENDBRANCH   1  41
TORSDOF 16
