REMARK  22 active torsions:
REMARK  status: ('A' for Active; 'I' for Inactive)
REMARK    1  A    between atoms: C2_2  and  C4_4 
REMARK    2  A    between atoms: C2_2  and  O7_57 
REMARK    3  A    between atoms: C4_4  and  C5_5 
REMARK    4  A    between atoms: C5_5  and  N1_49 
REMARK    5  A    between atoms: C6_6  and  C7_7 
REMARK       I    between atoms: C6_6  and  N1_49 
REMARK    6  A    between atoms: C9_9  and  C14_14 
REMARK    7  A    between atoms: C10_10  and  C13_13 
REMARK    8  A    between atoms: C13_13  and  O3_53 
REMARK    9  A    between atoms: C33_33  and  O6_56 
REMARK   10  A    between atoms: C35_35  and  C36_36 
REMARK   11  A    between atoms: C35_35  and  O7_57 
REMARK   12  A    between atoms: C36_36  and  C37_37 
REMARK   13  A    between atoms: C37_37  and  O8_58 
REMARK   14  A    between atoms: C40_40  and  C41_41 
REMARK   15  A    between atoms: C40_40  and  O8_58 
REMARK   16  A    between atoms: C41_41  and  C42_42 
REMARK       I    between atoms: C42_42  and  N2_50 
REMARK   17  A    between atoms: C43_43  and  N2_50 
REMARK   18  A    between atoms: C44_44  and  O14_64 
REMARK   19  A    between atoms: C45_45  and  O13_63 
REMARK   20  A    between atoms: C46_46  and  C48_48 
REMARK   21  A    between atoms: C47_47  and  O11_61 
REMARK   22  A    between atoms: C48_48  and  O12_62 
ROOT
HETATM    1  C6  UNL     1      -3.434  -2.390  -1.738  1.00  0.00     0.251 C 
HETATM    2  N1  UNL     1      -2.844  -1.329  -1.085  1.00  0.00    -0.357 N 
HETATM    3  O1  UNL     1      -2.832  -3.409  -2.059  1.00  0.00    -0.268 OA
HETATM    4  H45 UNL     1      -3.326  -0.442  -1.027  1.00  0.00     0.162 HD
ENDROOT
BRANCH   1   5
HETATM    5  C7  UNL     1      -4.873  -2.237  -2.090  1.00  0.00     0.032 A 
HETATM    6  C8  UNL     1      -5.739  -1.431  -1.340  1.00  0.00     0.030 A 
HETATM    7  C9  UNL     1      -7.097  -1.306  -1.696  1.00  0.00    -0.006 A 
HETATM    8  C10 UNL     1      -7.578  -2.017  -2.813  1.00  0.00     0.048 A 
HETATM    9  C11 UNL     1      -6.717  -2.852  -3.539  1.00  0.00     0.020 A 
HETATM   10  C12 UNL     1      -5.371  -2.958  -3.180  1.00  0.00     0.018 A 
BRANCH   7  11
HETATM   11  C14 UNL     1      -7.966  -0.478  -0.811  1.00  0.00     0.001 A 
HETATM   12  C15 UNL     1      -8.006   0.875  -0.960  1.00  0.00     0.011 A 
HETATM   13  C16 UNL     1      -7.234   1.560  -2.017  1.00  0.00     0.016 A 
HETATM   14  C24 UNL     1      -8.848   1.707  -0.065  1.00  0.00     0.098 A 
HETATM   15  C17 UNL     1      -7.246   2.897  -2.133  1.00  0.00     0.013 A 
HETATM   16  C18 UNL     1      -8.038   3.700  -1.216  1.00  0.00    -0.019 A 
HETATM   17  C19 UNL     1      -8.033   5.041  -1.325  1.00  0.00     0.067 A 
HETATM   18  C23 UNL     1      -8.865   3.060  -0.174  1.00  0.00     0.009 A 
HETATM   19  C20 UNL     1      -8.842   5.893  -0.421  1.00  0.00     0.172 A 
HETATM   20  C21 UNL     1      -9.673   5.224   0.605  1.00  0.00     0.056 A 
HETATM   21  O4  UNL     1      -8.825   7.114  -0.522  1.00  0.00    -0.288 OA
HETATM   22  C22 UNL     1      -9.678   3.889   0.711  1.00  0.00     0.019 A 
HETATM   23  O5  UNL     1      -9.627   1.091   0.905  1.00  0.00    -0.307 OA
HETATM   24  C25 UNL     1      -9.595  -0.272   1.072  1.00  0.00     0.098 A 
HETATM   25  C26 UNL     1      -8.794  -1.082   0.264  1.00  0.00     0.011 A 
HETATM   26  C30 UNL     1     -10.407  -0.809   2.103  1.00  0.00     0.009 A 
HETATM   27  C27 UNL     1      -8.802  -2.464   0.502  1.00  0.00     0.016 A 
HETATM   28  C28 UNL     1      -9.593  -3.017   1.512  1.00  0.00     0.013 A 
HETATM   29  C29 UNL     1     -10.400  -2.206   2.318  1.00  0.00    -0.021 A 
HETATM   30  C34 UNL     1     -11.196  -2.768   3.332  1.00  0.00     0.049 A 
HETATM   31  C33 UNL     1     -11.992  -1.951   4.129  1.00  0.00     0.066 A 
HETATM   32  C32 UNL     1     -12.014  -0.580   3.937  1.00  0.00     0.037 A 
HETATM   33  C31 UNL     1     -11.229  -0.013   2.933  1.00  0.00     0.018 A 
BRANCH  31  34
HETATM   34  O6  UNL     1     -12.774  -2.466   5.120  1.00  0.00    -0.361 OA
HETATM   35  H48 UNL     1     -12.663  -3.431   5.137  1.00  0.00     0.217 HD
ENDBRANCH  31  34
ENDBRANCH   7  11
BRANCH   8  36
HETATM   36  C13 UNL     1      -8.989  -1.987  -3.250  1.00  0.00     0.177 C 
HETATM   37  O2  UNL     1      -9.643  -2.957  -3.583  1.00  0.00    -0.646 OA
BRANCH  36  38
HETATM   38  O3  UNL     1      -9.468  -0.737  -3.340  1.00  0.00    -0.773 OA
HETATM   39  H47 UNL     1     -10.392  -0.847  -3.647  1.00  0.00     0.167 HD
ENDBRANCH  36  38
ENDBRANCH   8  36
ENDBRANCH   1   5
BRANCH   2  40
HETATM   40  C5  UNL     1      -1.427  -1.331  -0.764  1.00  0.00     0.126 C 
BRANCH  40  41
HETATM   41  C4  UNL     1      -0.578  -0.934  -1.975  1.00  0.00     0.057 C 
BRANCH  41  42
HETATM   42  C2  UNL     1       0.941  -0.839  -1.675  1.00  0.00     0.055 C 
HETATM   43  C1  UNL     1       1.622  -0.340  -2.960  1.00  0.00     0.045 C 
HETATM   44  C3  UNL     1       1.491  -2.219  -1.290  1.00  0.00     0.045 C 
BRANCH  42  45
HETATM   45  O7  UNL     1       1.061   0.160  -0.651  1.00  0.00    -0.381 OA
BRANCH  45  46
HETATM   46  C35 UNL     1       2.158   0.143   0.261  1.00  0.00     0.171 C 
BRANCH  46  47
HETATM   47  C36 UNL     1       3.474   0.606  -0.358  1.00  0.00     0.063 C 
BRANCH  47  48
HETATM   48  C37 UNL     1       4.632   0.847   0.640  1.00  0.00     0.055 C 
HETATM   49  C38 UNL     1       4.992  -0.419   1.433  1.00  0.00     0.045 C 
HETATM   50  C39 UNL     1       4.276   1.960   1.639  1.00  0.00     0.045 C 
BRANCH  48  51
HETATM   51  O8  UNL     1       5.802   1.350  -0.036  1.00  0.00    -0.380 OA
BRANCH  51  52
HETATM   52  C40 UNL     1       6.308   0.582  -1.129  1.00  0.00     0.178 C 
BRANCH  52  53
HETATM   53  C41 UNL     1       7.752   0.993  -1.372  1.00  0.00     0.129 C 
BRANCH  53  54
HETATM   54  C42 UNL     1       8.706   0.260  -0.446  1.00  0.00     0.220 C 
HETATM   55  N2  UNL     1       9.930   0.896  -0.334  1.00  0.00    -0.349 N 
HETATM   56  H46 UNL     1       9.881   1.908  -0.396  1.00  0.00     0.163 HD
HETATM   57  O9  UNL     1       8.432  -0.804   0.095  1.00  0.00    -0.274 OA
BRANCH  55  58
HETATM   58  C43 UNL     1      10.970   0.391   0.580  1.00  0.00     0.170 C 
HETATM   59  C44 UNL     1      11.900   1.551   0.970  1.00  0.00     0.177 C 
HETATM   60  C45 UNL     1      13.018   1.078   1.900  1.00  0.00     0.180 C 
HETATM   61  C46 UNL     1      13.774  -0.086   1.242  1.00  0.00     0.179 C 
HETATM   62  O10 UNL     1      12.885  -1.139   0.868  1.00  0.00    -0.349 OA
HETATM   63  C47 UNL     1      11.857  -0.730  -0.032  1.00  0.00     0.282 C 
BRANCH  59  64
HETATM   64  O14 UNL     1      11.156   2.605   1.600  1.00  0.00    -0.391 OA
HETATM   65  H52 UNL     1      11.831   3.174   2.023  1.00  0.00     0.210 HD
ENDBRANCH  59  64
BRANCH  60  66
HETATM   66  O13 UNL     1      13.867   2.206   2.156  1.00  0.00    -0.390 OA
HETATM   67  H51 UNL     1      14.705   1.843   2.520  1.00  0.00     0.210 HD
ENDBRANCH  60  66
BRANCH  61  68
HETATM   68  C48 UNL     1      14.824  -0.676   2.195  1.00  0.00     0.198 C 
BRANCH  68  69
HETATM   69  O12 UNL     1      15.731   0.329   2.641  1.00  0.00    -0.398 OA
HETATM   70  H50 UNL     1      16.413  -0.129   3.168  1.00  0.00     0.209 HD
ENDBRANCH  68  69
ENDBRANCH  61  68
BRANCH  63  71
HETATM   71  O11 UNL     1      11.105  -1.893  -0.319  1.00  0.00    -0.369 OA
HETATM   72  H49 UNL     1      11.705  -2.488  -0.792  1.00  0.00     0.212 HD
ENDBRANCH  63  71
ENDBRANCH  55  58
ENDBRANCH  53  54
ENDBRANCH  52  53
ENDBRANCH  51  52
ENDBRANCH  48  51
ENDBRANCH  47  48
ENDBRANCH  46  47
ENDBRANCH  45  46
ENDBRANCH  42  45
ENDBRANCH  41  42
ENDBRANCH  40  41
ENDBRANCH   2  40
TORSDOF 22
