REMARK  22 active torsions:
REMARK  status: ('A' for Active; 'I' for Inactive)
REMARK    1  A    between atoms: C4_4  and  C5_5 
REMARK       I    between atoms: C5_5  and  N3_50 
REMARK    2  A    between atoms: C6_6  and  N3_50 
REMARK    3  A    between atoms: C8_8  and  C10_10 
REMARK       I    between atoms: C10_10  and  N5_52 
REMARK    4  A    between atoms: C11_11  and  N5_52 
REMARK    5  A    between atoms: C13_13  and  C15_15 
REMARK       I    between atoms: C15_15  and  N7_54 
REMARK    6  A    between atoms: C16_16  and  C17_17 
REMARK    7  A    between atoms: C16_16  and  N7_54 
REMARK    8  A    between atoms: C17_17  and  C18_18 
REMARK    9  A    between atoms: C18_18  and  C19_19 
REMARK       I    between atoms: C19_19  and  N8_55 
REMARK   10  A    between atoms: C20_20  and  N8_55 
REMARK   11  A    between atoms: C22_22  and  C23_23 
REMARK       I    between atoms: C23_23  and  N11_59 
REMARK   12  A    between atoms: C24_24  and  N11_59 
REMARK   13  A    between atoms: C26_26  and  C28_28 
REMARK       I    between atoms: C28_28  and  N13_61 
REMARK   14  A    between atoms: C29_29  and  N13_61 
REMARK   15  A    between atoms: C31_31  and  C33_33 
REMARK       I    between atoms: C33_33  and  N15_63 
REMARK   16  A    between atoms: C34_34  and  C35_35 
REMARK   17  A    between atoms: C34_34  and  N15_63 
REMARK   18  A    between atoms: C35_35  and  C36_36 
REMARK       I    between atoms: C36_36  and  N16_64 
REMARK   19  A    between atoms: C37_37  and  C38_38 
REMARK   20  A    between atoms: C37_37  and  N16_64 
REMARK   21  A    between atoms: C38_38  and  C39_39 
REMARK   22  A    between atoms: C39_39  and  N17_65 
ROOT
HETATM    1  C20 UNL     1      -2.742   1.602  -5.767  1.00  0.00     0.125 A 
HETATM    2  C21 UNL     1      -2.064   2.473  -6.580  1.00  0.00     0.140 A 
HETATM    3  C22 UNL     1      -0.724   1.622  -5.033  1.00  0.00     0.178 A 
HETATM    4  C44 UNL     1       0.305   3.258  -6.646  1.00  0.00     0.157 C 
HETATM    5  N9  UNL     1      -0.783   2.480  -6.106  1.00  0.00    -0.339 N 
HETATM    6  N10 UNL     1      -1.915   1.076  -4.814  1.00  0.00    -0.323 N 
ATOM      7  H10 UNL     1      -2.161   0.405  -4.087  1.00  0.00     0.169 HD
ENDROOT
BRANCH   1   8
HETATM    8  N8  UNL     1      -4.055   1.217  -5.788  1.00  0.00    -0.312 N 
HETATM    9  C19 UNL     1      -5.007   1.669  -6.679  1.00  0.00     0.223 C 
HETATM   10  O4  UNL     1      -4.819   2.466  -7.591  1.00  0.00    -0.273 OA
HETATM   11  H55 UNL     1      -4.306   0.560  -5.063  1.00  0.00     0.170 HD
BRANCH   9  12
HETATM   12  C18 UNL     1      -6.359   1.023  -6.424  1.00  0.00     0.105 C 
BRANCH  12  13
HETATM   13  C17 UNL     1      -7.473   1.659  -7.255  1.00  0.00     0.029 C 
BRANCH  13  14
HETATM   14  C16 UNL     1      -8.805   0.927  -7.107  1.00  0.00     0.123 C 
BRANCH  14  15
HETATM   15  N7  UNL     1      -9.280   0.887  -5.740  1.00  0.00    -0.356 N 
HETATM   16  C15 UNL     1      -9.890   1.967  -5.140  1.00  0.00     0.268 C 
HETATM   17  O3  UNL     1     -10.058   3.026  -5.736  1.00  0.00    -0.266 OA
HETATM   18  H54 UNL     1      -9.263   0.004  -5.252  1.00  0.00     0.162 HD
BRANCH  16  19
HETATM   19  C13 UNL     1     -10.315   1.744  -3.766  1.00  0.00     0.104 A 
HETATM   20  C14 UNL     1     -10.019   0.695  -2.901  1.00  0.00     0.066 A 
HETATM   21  C11 UNL     1     -10.662   0.923  -1.663  1.00  0.00     0.053 A 
HETATM   22  C12 UNL     1     -11.337   2.114  -1.781  1.00  0.00     0.120 A 
HETATM   23  N6  UNL     1     -11.120   2.608  -3.044  1.00  0.00    -0.354 N 
HETATM   24  C45 UNL     1     -11.678   3.853  -3.533  1.00  0.00     0.156 C 
BRANCH  21  25
HETATM   25  N5  UNL     1     -10.670   0.170  -0.505  1.00  0.00    -0.320 N 
HETATM   26  C10 UNL     1     -10.037  -1.048  -0.337  1.00  0.00     0.273 C 
HETATM   27  O2  UNL     1      -9.405  -1.623  -1.220  1.00  0.00    -0.266 OA
HETATM   28  H53 UNL     1     -11.224   0.535   0.254  1.00  0.00     0.169 HD
BRANCH  26  29
HETATM   29  C8  UNL     1     -10.197  -1.620   0.998  1.00  0.00     0.105 A 
HETATM   30  C9  UNL     1     -10.596  -1.018   2.188  1.00  0.00     0.066 A 
HETATM   31  C6  UNL     1     -10.593  -1.989   3.220  1.00  0.00     0.053 A 
HETATM   32  C7  UNL     1     -10.185  -3.168   2.649  1.00  0.00     0.120 A 
HETATM   33  N4  UNL     1      -9.939  -2.943   1.319  1.00  0.00    -0.354 N 
HETATM   34  C46 UNL     1      -9.497  -3.972   0.399  1.00  0.00     0.156 C 
BRANCH  31  35
HETATM   35  N3  UNL     1     -10.938  -1.752   4.532  1.00  0.00    -0.319 N 
HETATM   36  C5  UNL     1     -10.953  -2.670   5.565  1.00  0.00     0.290 C 
HETATM   37  O1  UNL     1     -10.650  -3.856   5.478  1.00  0.00    -0.264 OA
HETATM   38  H52 UNL     1     -11.220  -0.811   4.794  1.00  0.00     0.169 HD
BRANCH  36  39
HETATM   39  C4  UNL     1     -11.385  -2.049   6.814  1.00  0.00     0.176 A 
HETATM   40  N1  UNL     1     -11.532  -2.663   8.036  1.00  0.00    -0.342 N 
HETATM   41  C1  UNL     1     -11.288  -4.055   8.327  1.00  0.00     0.157 C 
HETATM   42  C2  UNL     1     -11.955  -1.722   8.933  1.00  0.00     0.109 A 
HETATM   43  C3  UNL     1     -12.052  -0.557   8.213  1.00  0.00     0.107 A 
HETATM   44  N2  UNL     1     -11.699  -0.762   6.905  1.00  0.00    -0.346 N 
ATOM     45  H2  UNL     1     -11.681  -0.069   6.156  1.00  0.00     0.167 HD
ENDBRANCH  36  39
ENDBRANCH  31  35
ENDBRANCH  26  29
ENDBRANCH  21  25
ENDBRANCH  16  19
ENDBRANCH  14  15
ENDBRANCH  13  14
ENDBRANCH  12  13
ENDBRANCH   9  12
ENDBRANCH   1   8
BRANCH   3  46
HETATM   46  C23 UNL     1       0.447   1.318  -4.218  1.00  0.00     0.290 C 
HETATM   47  N11 UNL     1       0.146   0.422  -3.211  1.00  0.00    -0.319 N 
HETATM   48  H56 UNL     1      -0.819   0.107  -3.179  1.00  0.00     0.169 HD
HETATM   49  O5  UNL     1       1.555   1.809  -4.422  1.00  0.00    -0.264 OA
BRANCH  47  50
HETATM   50  C24 UNL     1       1.024  -0.065  -2.269  1.00  0.00     0.053 A 
HETATM   51  C25 UNL     1       0.657  -0.960  -1.295  1.00  0.00     0.120 A 
HETATM   52  N12 UNL     1       1.759  -1.235  -0.525  1.00  0.00    -0.354 N 
HETATM   53  C26 UNL     1       2.860  -0.533  -0.990  1.00  0.00     0.105 A 
HETATM   54  C43 UNL     1       1.743  -2.145   0.603  1.00  0.00     0.156 C 
HETATM   55  C27 UNL     1       2.398   0.206  -2.077  1.00  0.00     0.066 A 
BRANCH  53  56
HETATM   56  C28 UNL     1       4.196  -0.599  -0.399  1.00  0.00     0.273 C 
HETATM   57  N13 UNL     1       5.176   0.043  -1.136  1.00  0.00    -0.320 N 
HETATM   58  H57 UNL     1       4.919   0.463  -2.017  1.00  0.00     0.169 HD
HETATM   59  O6  UNL     1       4.414  -1.187   0.658  1.00  0.00    -0.266 OA
BRANCH  57  60
HETATM   60  C29 UNL     1       6.508   0.139  -0.785  1.00  0.00     0.053 A 
HETATM   61  C30 UNL     1       7.442   0.770  -1.570  1.00  0.00     0.120 A 
HETATM   62  N14 UNL     1       8.658   0.693  -0.939  1.00  0.00    -0.354 N 
HETATM   63  C31 UNL     1       8.537   0.010   0.260  1.00  0.00     0.104 A 
HETATM   64  C42 UNL     1       9.880   1.250  -1.481  1.00  0.00     0.156 C 
HETATM   65  C32 UNL     1       7.191  -0.331   0.359  1.00  0.00     0.066 A 
BRANCH  63  66
HETATM   66  C33 UNL     1       9.629  -0.251   1.181  1.00  0.00     0.268 C 
HETATM   67  N15 UNL     1       9.328  -1.082   2.238  1.00  0.00    -0.355 N 
HETATM   68  H58 UNL     1       8.401  -1.486   2.293  1.00  0.00     0.162 HD
HETATM   69  O7  UNL     1      10.765   0.206   1.049  1.00  0.00    -0.266 OA
BRANCH  67  70
HETATM   70  C34 UNL     1      10.283  -1.413   3.278  1.00  0.00     0.132 C 
BRANCH  70  71
HETATM   71  C35 UNL     1      11.372  -2.371   2.805  1.00  0.00     0.122 C 
BRANCH  71  72
HETATM   72  C36 UNL     1      12.751  -1.780   2.999  1.00  0.00     0.219 C 
HETATM   73  N16 UNL     1      13.060  -0.746   2.153  1.00  0.00    -0.361 N 
HETATM   74  H59 UNL     1      12.322  -0.400   1.528  1.00  0.00     0.162 HD
HETATM   75  O8  UNL     1      13.529  -2.181   3.860  1.00  0.00    -0.274 OA
BRANCH  73  76
HETATM   76  C37 UNL     1      14.356  -0.110   2.095  1.00  0.00     0.124 C 
BRANCH  76  77
HETATM   77  C38 UNL     1      14.440   1.144   2.958  1.00  0.00     0.047 C 
BRANCH  77  78
HETATM   78  C39 UNL     1      14.426   0.944   4.474  1.00  0.00     0.235 C 
BRANCH  78  79
HETATM   79  N17 UNL     1      15.725   0.480   5.104  1.00  0.00    -0.079 N 
HETATM   80  C40 UNL     1      16.965   1.166   4.620  1.00  0.00     0.269 C 
HETATM   81  C41 UNL     1      15.887  -1.014   5.181  1.00  0.00     0.269 C 
HETATM   82  H60 UNL     1      15.632   0.759   6.090  1.00  0.00     0.278 HD
ENDBRANCH  78  79
ENDBRANCH  77  78
ENDBRANCH  76  77
ENDBRANCH  73  76
ENDBRANCH  71  72
ENDBRANCH  70  71
ENDBRANCH  67  70
ENDBRANCH  63  66
ENDBRANCH  57  60
ENDBRANCH  53  56
ENDBRANCH  47  50
ENDBRANCH   3  46
TORSDOF 22
