REMARK  0 active torsions:
REMARK  status: ('A' for Active; 'I' for Inactive)
REMARK       I    between atoms: C2_2  and  C3_3 
REMARK       I    between atoms: C2_2  and  N9_88 
REMARK       I    between atoms: C3_3  and  N1_79 
REMARK       I    between atoms: C4_4  and  C5_5 
REMARK       I    between atoms: C4_4  and  C8_8 
REMARK       I    between atoms: C4_4  and  N1_79 
REMARK       I    between atoms: C5_5  and  C6_6 
REMARK       I    between atoms: C6_6  and  S1_95 
REMARK       I    between atoms: C8_8  and  N2_80 
REMARK       I    between atoms: C9_9  and  C10_10 
REMARK       I    between atoms: C9_9  and  C11_11 
REMARK       I    between atoms: C9_9  and  N2_80 
REMARK       I    between atoms: C10_10  and  O3_59 
REMARK       I    between atoms: C11_11  and  N3_81 
REMARK       I    between atoms: C12_12  and  C13_13 
REMARK       I    between atoms: C12_12  and  C20_20 
REMARK       I    between atoms: C12_12  and  N3_81 
REMARK       I    between atoms: C13_13  and  C14_14 
REMARK       I    between atoms: C17_17  and  O5_61 
REMARK       I    between atoms: C20_20  and  N4_82 
REMARK       I    between atoms: C21_21  and  C22_22 
REMARK       I    between atoms: C21_21  and  C23_23 
REMARK       I    between atoms: C21_21  and  N4_82 
REMARK       I    between atoms: C22_22  and  O7_63 
REMARK       I    between atoms: C23_23  and  N5_83 
REMARK       I    between atoms: C24_24  and  C25_25 
REMARK       I    between atoms: C24_24  and  C29_29 
REMARK       I    between atoms: C24_24  and  N5_83 
REMARK       I    between atoms: C25_25  and  C26_26 
REMARK       I    between atoms: C29_29  and  N8_87 
REMARK       I    between atoms: C30_30  and  C32_32 
REMARK       I    between atoms: C30_30  and  N8_87 
REMARK       I    between atoms: C32_32  and  O11_67 
REMARK       I    between atoms: C33_33  and  C34_34 
REMARK       I    between atoms: C33_33  and  N9_88 
REMARK       I    between atoms: C34_34  and  N10_89 
REMARK       I    between atoms: C36_36  and  C37_37 
REMARK       I    between atoms: C36_36  and  N10_89 
REMARK       I    between atoms: C37_37  and  C38_38 
REMARK       I    between atoms: C37_37  and  N11_90 
REMARK       I    between atoms: C41_41  and  C42_42 
REMARK       I    between atoms: C41_41  and  N11_90 
REMARK       I    between atoms: C42_42  and  C43_43 
REMARK       I    between atoms: C42_42  and  N12_91 
REMARK       I    between atoms: C46_46  and  C47_47 
REMARK       I    between atoms: C46_46  and  N12_91 
REMARK       I    between atoms: C47_47  and  C48_48 
REMARK       I    between atoms: C47_47  and  N13_92 
REMARK       I    between atoms: C48_48  and  O16_72 
REMARK       I    between atoms: C49_49  and  C50_50 
REMARK       I    between atoms: C49_49  and  N13_92 
REMARK       I    between atoms: C50_50  and  C51_51 
REMARK       I    between atoms: C50_50  and  N14_93 
REMARK       I    between atoms: C51_51  and  C52_52 
REMARK       I    between atoms: C52_52  and  O19_75 
REMARK       I    between atoms: C53_53  and  C54_54 
REMARK       I    between atoms: C53_53  and  N14_93 
REMARK       I    between atoms: C54_54  and  C55_55 
REMARK       I    between atoms: C54_54  and  N15_94 
REMARK       I    between atoms: C55_55  and  C56_56 
REMARK       I    between atoms: C56_56  and  O22_78 
ROOT
HETATM    1  C1  UNL     1      -2.546   8.673   1.882  1.00  0.00     0.042 C 
HETATM    2  C2  UNL     1      -1.645   7.486   2.195  1.00  0.00     0.172 C 
HETATM    3  C3  UNL     1      -2.176   6.685   3.410  1.00  0.00     0.240 C 
HETATM    4  C4  UNL     1      -1.548   4.652   4.751  1.00  0.00     0.177 C 
HETATM    5  C5  UNL     1      -2.427   4.943   5.975  1.00  0.00     0.045 C 
HETATM    6  C6  UNL     1      -2.670   3.778   6.938  1.00  0.00     0.076 C 
HETATM    7  C7  UNL     1      -1.874   1.863   8.751  1.00  0.00     0.089 C 
HETATM    8  C8  UNL     1      -2.120   3.548   3.826  1.00  0.00     0.241 C 
HETATM    9  C9  UNL     1      -2.209   1.093   3.433  1.00  0.00     0.200 C 
HETATM   10  C10 UNL     1      -3.677   1.054   2.975  1.00  0.00     0.199 C 
HETATM   11  C11 UNL     1      -1.266   0.979   2.210  1.00  0.00     0.243 C 
HETATM   12  C12 UNL     1      -0.889  -0.337   0.108  1.00  0.00     0.180 C 
HETATM   13  C13 UNL     1       0.302  -1.304   0.154  1.00  0.00     0.073 C 
HETATM   14  C14 UNL     1      -0.019  -2.691   0.665  1.00  0.00    -0.056 A 
HETATM   15  C15 UNL     1       0.075  -2.984   2.032  1.00  0.00     0.010 A 
HETATM   16  C16 UNL     1      -0.222  -4.264   2.501  1.00  0.00     0.037 A 
HETATM   17  C17 UNL     1      -0.611  -5.254   1.606  1.00  0.00     0.065 A 
HETATM   18  C18 UNL     1      -0.710  -4.985   0.245  1.00  0.00     0.037 A 
HETATM   19  C19 UNL     1      -0.414  -3.703  -0.223  1.00  0.00     0.010 A 
HETATM   20  C20 UNL     1      -1.939  -0.773  -0.943  1.00  0.00     0.241 C 
HETATM   21  C21 UNL     1      -4.386  -0.861  -1.427  1.00  0.00     0.200 C 
HETATM   22  C22 UNL     1      -4.555  -2.341  -1.802  1.00  0.00     0.199 C 
HETATM   23  C23 UNL     1      -5.652  -0.363  -0.694  1.00  0.00     0.243 C 
HETATM   24  C24 UNL     1      -8.109  -0.192  -0.818  1.00  0.00     0.182 C 
HETATM   25  C25 UNL     1      -9.185   0.209  -1.843  1.00  0.00     0.093 C 
HETATM   26  C26 UNL     1      -9.337  -0.690  -3.033  1.00  0.00     0.028 A 
HETATM   27  C27 UNL     1      -9.580  -0.392  -4.359  1.00  0.00     0.114 A 
HETATM   28  C28 UNL     1      -9.478  -2.520  -4.273  1.00  0.00     0.180 A 
HETATM   29  C29 UNL     1      -8.568  -1.439  -0.033  1.00  0.00     0.241 C 
HETATM   30  C30 UNL     1     -10.093  -2.267   1.722  1.00  0.00     0.178 C 
HETATM   31  C31 UNL     1     -10.352  -1.896   3.175  1.00  0.00     0.043 C 
HETATM   32  C32 UNL     1     -11.427  -2.584   1.034  1.00  0.00     0.163 C 
HETATM   33  C33 UNL     1      -0.546   5.680   0.908  1.00  0.00     0.240 C 
HETATM   34  C34 UNL     1      -0.596   4.724  -0.314  1.00  0.00     0.172 C 
HETATM   35  C35 UNL     1      -1.982   4.186  -0.642  1.00  0.00     0.042 C 
HETATM   36  C36 UNL     1       1.601   3.577  -0.420  1.00  0.00     0.241 C 
HETATM   37  C37 UNL     1       2.475   2.553   0.336  1.00  0.00     0.180 C 
HETATM   38  C38 UNL     1       2.906   3.092   1.717  1.00  0.00     0.009 C 
HETATM   39  C39 UNL     1       3.848   4.297   1.634  1.00  0.00     0.012 C 
HETATM   40  C40 UNL     1       3.550   1.983   2.555  1.00  0.00     0.012 C 
HETATM   41  C41 UNL     1       3.552   1.069  -1.301  1.00  0.00     0.241 C 
HETATM   42  C42 UNL     1       4.715   0.896  -2.305  1.00  0.00     0.180 C 
HETATM   43  C43 UNL     1       4.600   1.877  -3.491  1.00  0.00     0.009 C 
HETATM   44  C44 UNL     1       3.333   1.678  -4.329  1.00  0.00     0.012 C 
HETATM   45  C45 UNL     1       5.838   1.790  -4.389  1.00  0.00     0.012 C 
HETATM   46  C46 UNL     1       5.349  -1.462  -1.965  1.00  0.00     0.243 C 
HETATM   47  C47 UNL     1       4.867  -2.912  -2.203  1.00  0.00     0.200 C 
HETATM   48  C48 UNL     1       3.656  -3.151  -1.288  1.00  0.00     0.199 C 
HETATM   49  C49 UNL     1       6.947  -4.058  -2.848  1.00  0.00     0.241 C 
HETATM   50  C50 UNL     1       8.124  -4.970  -2.410  1.00  0.00     0.186 C 
HETATM   51  C51 UNL     1       8.728  -4.624  -1.047  1.00  0.00     0.144 C 
HETATM   52  C52 UNL     1       8.744  -3.139  -0.822  1.00  0.00     0.141 C 
HETATM   53  C53 UNL     1      10.148  -5.813  -3.617  1.00  0.00     0.252 C 
HETATM   54  C54 UNL     1      11.159  -5.431  -4.719  1.00  0.00     0.318 C 
HETATM   55  C55 UNL     1      12.276  -4.524  -4.194  1.00  0.00     0.155 C 
HETATM   56  C56 UNL     1      11.872  -3.671  -3.024  1.00  0.00     0.141 C 
HETATM   57  O1  UNL     1      -3.333   6.764   3.808  1.00  0.00    -0.271 OA
HETATM   58  O2  UNL     1      -2.746   3.782   2.794  1.00  0.00    -0.271 OA
HETATM   59  O3  UNL     1      -4.035  -0.280   2.591  1.00  0.00    -0.398 OA
HETATM   60  O4  UNL     1      -0.374   1.790   1.959  1.00  0.00    -0.271 OA
HETATM   61  O5  UNL     1      -0.888  -6.490   2.108  1.00  0.00    -0.361 OA
HETATM   62  O6  UNL     1      -1.640  -1.168  -2.066  1.00  0.00    -0.271 OA
HETATM   63  O7  UNL     1      -5.552  -2.488  -2.819  1.00  0.00    -0.398 OA
HETATM   64  O8  UNL     1      -5.626   0.074   0.459  1.00  0.00    -0.271 OA
HETATM   65  O9  UNL     1      -8.288  -2.584  -0.391  1.00  0.00    -0.271 OA
HETATM   66  O10 UNL     1     -12.202  -3.474   1.346  1.00  0.00    -0.648 OA
HETATM   67  O11 UNL     1     -11.739  -1.743   0.022  1.00  0.00    -0.775 OA
HETATM   68  O12 UNL     1       0.386   5.671   1.720  1.00  0.00    -0.271 OA
HETATM   69  O13 UNL     1       2.057   4.316  -1.292  1.00  0.00    -0.271 OA
HETATM   70  O14 UNL     1       2.641   0.244  -1.219  1.00  0.00    -0.271 OA
HETATM   71  O15 UNL     1       6.195  -1.171  -1.116  1.00  0.00    -0.271 OA
HETATM   72  O16 UNL     1       3.098  -4.448  -1.497  1.00  0.00    -0.398 OA
HETATM   73  O17 UNL     1       6.884  -3.571  -3.978  1.00  0.00    -0.271 OA
HETATM   74  O18 UNL     1       9.432  -2.320  -1.411  1.00  0.00    -0.650 OA
HETATM   75  O19 UNL     1       7.782  -2.778   0.054  1.00  0.00    -0.776 OA
HETATM   76  O20 UNL     1      10.284  -6.803  -2.905  1.00  0.00    -0.271 OA
HETATM   77  O21 UNL     1      12.108  -3.921  -1.853  1.00  0.00    -0.650 OA
HETATM   78  O22 UNL     1      11.157  -2.592  -3.389  1.00  0.00    -0.776 OA
HETATM   79  N1  UNL     1      -1.227   5.828   3.940  1.00  0.00    -0.346 N 
HETATM   80  N2  UNL     1      -1.873   2.257   4.254  1.00  0.00    -0.344 N 
HETATM   81  N3  UNL     1      -1.503  -0.124   1.422  1.00  0.00    -0.346 N 
HETATM   82  N4  UNL     1      -3.248  -0.625  -0.543  1.00  0.00    -0.344 N 
HETATM   83  N5  UNL     1      -6.810  -0.430  -1.436  1.00  0.00    -0.346 N 
HETATM   84  N6  UNL     1      -9.668  -1.531  -5.114  1.00  0.00    -0.360 N 
ATOM     85  H6  UNL     1      -9.844  -1.597  -6.117  1.00  0.00     0.166 HD
HETATM   86  N7  UNL     1      -9.282  -2.066  -3.001  1.00  0.00    -0.354 N 
HETATM   87  N8  UNL     1      -9.385  -1.175   1.048  1.00  0.00    -0.345 N 
HETATM   88  N9  UNL     1      -1.577   6.588   1.034  1.00  0.00    -0.346 N 
HETATM   89  N10 UNL     1       0.287   3.602  -0.011  1.00  0.00    -0.346 N 
HETATM   90  N11 UNL     1       3.609   2.196  -0.513  1.00  0.00    -0.346 N 
HETATM   91  N12 UNL     1       4.693  -0.508  -2.720  1.00  0.00    -0.346 N 
HETATM   92  N13 UNL     1       5.951  -3.856  -1.916  1.00  0.00    -0.344 N 
HETATM   93  N14 UNL     1       9.131  -4.905  -3.464  1.00  0.00    -0.345 N 
HETATM   94  N15 UNL     1      10.437  -4.797  -5.853  1.00  0.00     0.092 N 
HETATM   95  S1  UNL     1      -1.140   2.991   7.540  1.00  0.00    -0.173 SA
HETATM   96  H64 UNL     1      -4.892  -0.197   2.109  1.00  0.00     0.209 HD
HETATM   97  H65 UNL     1      -1.109  -7.084   1.372  1.00  0.00     0.217 HD
HETATM   98  H66 UNL     1      -5.459  -3.393  -3.169  1.00  0.00     0.209 HD
HETATM   99  H67 UNL     1     -12.600  -2.082  -0.308  1.00  0.00     0.167 HD
HETATM  100  H68 UNL     1       2.365  -4.542  -0.862  1.00  0.00     0.209 HD
HETATM  101  H69 UNL     1       7.577  -1.828  -0.145  1.00  0.00     0.167 HD
HETATM  102  H70 UNL     1      10.743  -2.250  -2.555  1.00  0.00     0.167 HD
HETATM  103  H71 UNL     1      -0.389   5.728   3.362  1.00  0.00     0.163 HD
HETATM  104  H72 UNL     1      -1.147   2.134   4.953  1.00  0.00     0.163 HD
HETATM  105  H73 UNL     1      -2.183  -0.813   1.749  1.00  0.00     0.163 HD
HETATM  106  H74 UNL     1      -3.433  -0.111   0.313  1.00  0.00     0.163 HD
HETATM  107  H75 UNL     1      -6.778  -1.082  -2.224  1.00  0.00     0.163 HD
HETATM  108  H76 UNL     1      -9.088  -2.651  -2.194  1.00  0.00     0.166 HD
HETATM  109  H77 UNL     1      -9.841  -0.271   1.073  1.00  0.00     0.163 HD
HETATM  110  H78 UNL     1      -2.473   6.317   0.650  1.00  0.00     0.163 HD
HETATM  111  H79 UNL     1       0.058   3.063   0.829  1.00  0.00     0.163 HD
HETATM  112  H80 UNL     1       4.147   2.981  -0.864  1.00  0.00     0.163 HD
HETATM  113  H81 UNL     1       3.836  -0.808  -3.172  1.00  0.00     0.163 HD
HETATM  114  H82 UNL     1       6.171  -3.993  -0.935  1.00  0.00     0.163 HD
HETATM  115  H83 UNL     1       9.042  -4.185  -4.186  1.00  0.00     0.163 HD
HETATM  116  H84 UNL     1      11.092  -4.617  -6.614  1.00  0.00     0.313 HD
HETATM  117  H85 UNL     1       9.751  -5.460  -6.219  1.00  0.00     0.313 HD
ENDROOT
TORSDOF 49
