REMARK  16 active torsions:
REMARK  status: ('A' for Active; 'I' for Inactive)
REMARK    1  A    between atoms: C9_9  and  C51_51 
REMARK    2  A    between atoms: C10_10  and  C17_17 
REMARK       I    between atoms: C17_17  and  N2_59 
REMARK    3  A    between atoms: C18_18  and  N2_59 
REMARK    4  A    between atoms: C21_21  and  C24_24 
REMARK       I    between atoms: C24_24  and  N3_60 
REMARK    5  A    between atoms: C25_25  and  C26_26 
REMARK    6  A    between atoms: C25_25  and  N3_60 
REMARK    7  A    between atoms: C26_26  and  C27_27 
REMARK    8  A    between atoms: C27_27  and  C28_28 
REMARK    9  A    between atoms: C28_28  and  C29_29 
REMARK   10  A    between atoms: C29_29  and  O4_71 
REMARK   11  A    between atoms: C30_30  and  O4_71 
REMARK   12  A    between atoms: C31_31  and  O9_76 
REMARK   13  A    between atoms: C33_33  and  N4_61 
REMARK   14  A    between atoms: C35_35  and  O5_72 
REMARK   15  A    between atoms: C37_37  and  N5_63 
REMARK   16  A    between atoms: C45_45  and  N6_65 
ROOT
HETATM    1  C24 UNL     1      -1.074   1.134   3.079  1.00  0.00     0.251 C 
HETATM    2  N3  UNL     1      -0.026   1.779   2.461  1.00  0.00    -0.357 N 
HETATM    3  O2  UNL     1      -1.041   0.770   4.250  1.00  0.00    -0.268 OA
HETATM    4  H54 UNL     1      -0.088   2.050   1.486  1.00  0.00     0.162 HD
ENDROOT
BRANCH   1   5
HETATM    5  C21 UNL     1      -2.295   0.897   2.257  1.00  0.00     0.032 A 
HETATM    6  C20 UNL     1      -3.518   0.752   2.919  1.00  0.00     0.019 A 
HETATM    7  C19 UNL     1      -4.691   0.523   2.193  1.00  0.00     0.030 A 
HETATM    8  C18 UNL     1      -4.663   0.431   0.795  1.00  0.00     0.034 A 
HETATM    9  C23 UNL     1      -3.436   0.554   0.140  1.00  0.00     0.030 A 
HETATM   10  C22 UNL     1      -2.257   0.784   0.863  1.00  0.00     0.019 A 
BRANCH   8  11
HETATM   11  N2  UNL     1      -5.893   0.187   0.142  1.00  0.00    -0.325 N 
HETATM   12  C17 UNL     1      -6.133   0.211  -1.217  1.00  0.00     0.256 C 
HETATM   13  O1  UNL     1      -5.316   0.597  -2.057  1.00  0.00    -0.271 OA
HETATM   14  H53 UNL     1      -6.687   0.114   0.776  1.00  0.00     0.169 HD
BRANCH  12  15
HETATM   15  C10 UNL     1      -7.554  -0.204  -1.709  1.00  0.00     0.323 C 
HETATM   16  C9  UNL     1      -8.442  -1.055  -0.791  1.00  0.00     0.089 C 
HETATM   17  C8  UNL     1      -9.518  -0.051  -0.221  1.00  0.00     0.116 A 
HETATM   18  C5  UNL     1     -10.962  -0.547  -0.215  1.00  0.00    -0.010 A 
HETATM   19  C11 UNL     1      -9.229   1.352  -0.915  1.00  0.00     0.180 C 
HETATM   20  C57 UNL     1      -9.243  -0.029   1.316  1.00  0.00     0.239 A 
HETATM   21  C4  UNL     1     -11.406  -0.703   1.097  1.00  0.00     0.043 A 
HETATM   22  C6  UNL     1     -11.828  -0.853  -1.253  1.00  0.00     0.011 A 
HETATM   23  C3  UNL     1     -12.673  -1.145   1.427  1.00  0.00     0.037 A 
HETATM   24  N8  UNL     1     -10.399  -0.376   1.983  1.00  0.00    -0.326 N 
HETATM   25  C2  UNL     1     -13.554  -1.440   0.381  1.00  0.00    -0.060 A 
HETATM   26  C1  UNL     1     -14.933  -1.957   0.673  1.00  0.00     0.048 C 
HETATM   27  C7  UNL     1     -13.119  -1.304  -0.952  1.00  0.00     0.007 A 
HETATM   28  H56 UNL     1     -10.458  -0.449   2.988  1.00  0.00     0.169 HD
HETATM   29  C12 UNL     1     -10.436   2.067  -1.589  1.00  0.00     0.043 C 
HETATM   30  C16 UNL     1      -8.520   2.447  -0.060  1.00  0.00     0.043 C 
HETATM   31  N1  UNL     1      -8.347   0.988  -2.043  1.00  0.00     0.109 N 
HETATM   32  C13 UNL     1     -11.386   2.751  -0.605  1.00  0.00     0.003 C 
HETATM   33  C14 UNL     1     -10.650   3.775   0.248  1.00  0.00     0.000 C 
HETATM   34  C15 UNL     1      -9.440   3.160   0.936  1.00  0.00     0.003 C 
HETATM   35  H52 UNL     1      -7.742   1.750  -2.358  1.00  0.00     0.318 HD
HETATM   36  O10 UNL     1      -8.167   0.185   1.859  1.00  0.00    -0.272 OA
BRANCH  16  37
HETATM   37  C51 UNL     1      -8.959  -2.362  -1.392  1.00  0.00    -0.009 A 
HETATM   38  C52 UNL     1      -9.377  -2.496  -2.724  1.00  0.00     0.144 A 
HETATM   39  C53 UNL     1      -9.854  -3.714  -3.214  1.00  0.00     0.073 A 
HETATM   40  F1  UNL     1      -9.359  -1.430  -3.538  1.00  0.00    -0.204 F 
HETATM   41  C54 UNL     1      -9.924  -4.827  -2.380  1.00  0.00     0.027 A 
HETATM   42 CL1  UNL     1     -10.381  -3.854  -4.849  1.00  0.00    -0.081 Cl
HETATM   43  C55 UNL     1      -9.521  -4.717  -1.051  1.00  0.00     0.002 A 
HETATM   44  C56 UNL     1      -9.047  -3.496  -0.561  1.00  0.00     0.011 A 
ENDBRANCH  16  37
ENDBRANCH  12  15
ENDBRANCH   8  11
ENDBRANCH   1   5
BRANCH   2  45
HETATM   45  C25 UNL     1       1.251   1.967   3.109  1.00  0.00     0.123 C 
BRANCH  45  46
HETATM   46  C26 UNL     1       2.147   0.729   3.016  1.00  0.00     0.027 C 
BRANCH  46  47
HETATM   47  C27 UNL     1       2.236   0.110   1.622  1.00  0.00     0.082 C 
BRANCH  47  48
HETATM   48  C28 UNL     1       2.571   1.133   0.554  1.00  0.00     0.150 C 
HETATM   49  O3  UNL     1       1.665   1.712  -0.056  1.00  0.00    -0.296 OA
BRANCH  48  50
HETATM   50  C29 UNL     1       4.028   1.517   0.367  1.00  0.00     0.254 C 
BRANCH  50  51
HETATM   51  O4  UNL     1       4.815   0.336   0.254  1.00  0.00    -0.338 OA
BRANCH  51  52
HETATM   52  C30 UNL     1       6.142   0.631   0.472  1.00  0.00     0.136 A 
HETATM   53  C31 UNL     1       6.957   1.000  -0.610  1.00  0.00     0.106 A 
HETATM   54  C32 UNL     1       8.310   1.246  -0.376  1.00  0.00     0.070 A 
HETATM   55  C33 UNL     1       8.850   1.106   0.910  1.00  0.00     0.053 A 
HETATM   56  C34 UNL     1       8.018   0.739   1.979  1.00  0.00     0.070 A 
HETATM   57  C35 UNL     1       6.664   0.484   1.768  1.00  0.00     0.106 A 
BRANCH  53  58
HETATM   58  O9  UNL     1       6.338   1.099  -1.828  1.00  0.00    -0.353 OA
HETATM   59  C50 UNL     1       7.150   1.401  -2.955  1.00  0.00     0.210 C 
ENDBRANCH  53  58
BRANCH  55  60
HETATM   60  N4  UNL     1      10.216   1.388   1.100  1.00  0.00    -0.300 N 
HETATM   61  N5  UNL     1      10.815   0.390   1.556  1.00  0.00    -0.300 N 
ATOM     62  H5  UNL     1      10.373  -0.496   1.801  1.00  0.00     0.187 HD
ATOM     63  H4  UNL     1      10.657   2.284   0.894  1.00  0.00     0.187 HD
BRANCH  61  64
HETATM   64  C37 UNL     1      12.186   0.668   1.681  1.00  0.00     0.057 A 
HETATM   65  C38 UNL     1      12.684   1.514   2.688  1.00  0.00     0.031 A 
HETATM   66  C39 UNL     1      14.063   1.774   2.812  1.00  0.00     0.003 A 
HETATM   67  C40 UNL     1      14.974   1.185   1.935  1.00  0.00     0.018 A 
HETATM   68  C41 UNL     1      14.465   0.345   0.963  1.00  0.00     0.042 A 
HETATM   69  C42 UNL     1      13.104   0.079   0.830  1.00  0.00     0.004 A 
HETATM   70  C44 UNL     1      15.177  -0.401  -0.080  1.00  0.00     0.255 A 
HETATM   71  C43 UNL     1      12.870  -0.845  -0.315  1.00  0.00     0.169 A 
HETATM   72  N6  UNL     1      14.226  -1.148  -0.760  1.00  0.00    -0.330 N 
HETATM   73  O6  UNL     1      16.374  -0.350  -0.282  1.00  0.00    -0.267 OA
BRANCH  72  74
HETATM   74  C45 UNL     1      14.527  -1.820  -2.018  1.00  0.00     0.180 C 
HETATM   75  C46 UNL     1      13.836  -3.175  -2.137  1.00  0.00     0.044 C 
HETATM   76  C47 UNL     1      14.269  -3.852  -3.428  1.00  0.00     0.106 C 
HETATM   77  C48 UNL     1      13.998  -2.969  -4.625  1.00  0.00     0.224 C 
HETATM   78  N7  UNL     1      14.183  -1.622  -4.448  1.00  0.00    -0.296 N 
HETATM   79  O7  UNL     1      13.644  -3.423  -5.709  1.00  0.00    -0.273 OA
HETATM   80  C49 UNL     1      14.157  -0.962  -3.240  1.00  0.00     0.247 C 
HETATM   81  H55 UNL     1      13.922  -1.055  -5.244  1.00  0.00     0.171 HD
HETATM   82  O8  UNL     1      13.842   0.224  -3.189  1.00  0.00    -0.271 OA
ENDBRANCH  72  74
ENDBRANCH  61  64
ENDBRANCH  55  60
BRANCH  57  83
HETATM   83  O5  UNL     1       5.769   0.122   2.742  1.00  0.00    -0.353 OA
HETATM   84  C36 UNL     1       6.299  -0.220   4.017  1.00  0.00     0.210 C 
ENDBRANCH  57  83
ENDBRANCH  51  52
ENDBRANCH  50  51
ENDBRANCH  48  50
ENDBRANCH  47  48
ENDBRANCH  46  47
ENDBRANCH  45  46
ENDBRANCH   2  45
TORSDOF 16
