REMARK  13 active torsions:
REMARK  status: ('A' for Active; 'I' for Inactive)
REMARK    1  A    between atoms: C5_5  and  C20_20 
REMARK    2  A    between atoms: C7_7  and  C8_8 
REMARK    3  A    between atoms: C8_8  and  C9_9 
REMARK    4  A    between atoms: C9_9  and  C10_10 
REMARK    5  A    between atoms: C16_16  and  N3_38 
REMARK    6  A    between atoms: C17_17  and  N3_38 
REMARK       I    between atoms: C20_20  and  N6_42 
REMARK    7  A    between atoms: C21_21  and  N6_42 
REMARK    8  A    between atoms: C23_23  and  C34_34 
REMARK    9  A    between atoms: C24_24  and  C27_27 
REMARK   10  A    between atoms: C27_27  and  N7_43 
REMARK   11  A    between atoms: C32_32  and  C33_33 
REMARK   12  A    between atoms: C32_32  and  N8_44 
REMARK   13  A    between atoms: C33_33  and  O2_46 
ROOT
HETATM    1  C1  UNL     1      -4.333  -2.128  -4.671  1.00  0.00     0.050 C 
HETATM    2  C2  UNL     1      -3.178  -1.947  -3.724  1.00  0.00    -0.040 A 
HETATM    3  C3  UNL     1      -1.926  -2.489  -4.048  1.00  0.00     0.051 A 
HETATM    4  C4  UNL     1      -0.840  -2.333  -3.185  1.00  0.00     0.132 A 
HETATM    5  C5  UNL     1      -0.966  -1.638  -1.983  1.00  0.00     0.072 A 
HETATM    6  C6  UNL     1      -2.218  -1.094  -1.656  1.00  0.00     0.041 A 
HETATM    7  C7  UNL     1      -3.316  -1.244  -2.515  1.00  0.00     0.025 A 
HETATM    8  F4  UNL     1       0.332  -2.875  -3.551  1.00  0.00    -0.205 F 
ENDROOT
BRANCH   5   9
HETATM    9  C20 UNL     1       0.165  -1.441  -1.024  1.00  0.00     0.259 C 
HETATM   10  N6  UNL     1       1.381  -1.998  -1.377  1.00  0.00    -0.323 N 
HETATM   11  H31 UNL     1       1.418  -2.496  -2.260  1.00  0.00     0.169 HD
HETATM   12  O1  UNL     1      -0.060  -0.805   0.002  1.00  0.00    -0.267 OA
BRANCH  10  13
HETATM   13  C21 UNL     1       2.592  -1.958  -0.655  1.00  0.00     0.035 A 
HETATM   14  C22 UNL     1       3.698  -2.597  -1.229  1.00  0.00     0.046 A 
HETATM   15  C23 UNL     1       4.959  -2.625  -0.592  1.00  0.00     0.058 A 
HETATM   16  C24 UNL     1       5.107  -1.970   0.649  1.00  0.00    -0.015 A 
HETATM   17  C25 UNL     1       3.991  -1.335   1.220  1.00  0.00     0.012 A 
HETATM   18  C26 UNL     1       2.750  -1.331   0.576  1.00  0.00     0.030 A 
BRANCH  15  19
HETATM   19  C34 UNL     1       6.105  -3.329  -1.292  1.00  0.00     0.418 C 
HETATM   20  F1  UNL     1       6.925  -4.031  -0.461  1.00  0.00    -0.166 F 
HETATM   21  F2  UNL     1       5.658  -4.257  -2.195  1.00  0.00    -0.166 F 
HETATM   22  F3  UNL     1       6.894  -2.490  -2.016  1.00  0.00    -0.166 F 
ENDBRANCH  15  19
BRANCH  16  23
HETATM   23  C27 UNL     1       6.431  -1.919   1.393  1.00  0.00     0.311 C 
BRANCH  23  24
HETATM   24  N7  UNL     1       7.492  -1.266   0.611  1.00  0.00     0.096 N 
HETATM   25  C28 UNL     1       7.247   0.178   0.424  1.00  0.00     0.303 C 
HETATM   26  C29 UNL     1       7.314   1.035   1.717  1.00  0.00     0.302 C 
HETATM   27  N8  UNL     1       8.138   0.451   2.798  1.00  0.00     0.093 N 
HETATM   28  C30 UNL     1       9.264  -0.300   2.219  1.00  0.00     0.302 C 
HETATM   29  C31 UNL     1       8.808  -1.441   1.268  1.00  0.00     0.303 C 
BRANCH  27  30
HETATM   30  C32 UNL     1       8.605   1.462   3.755  1.00  0.00     0.298 C 
BRANCH  30  31
HETATM   31  C33 UNL     1       7.473   2.158   4.526  1.00  0.00     0.194 C 
BRANCH  31  32
HETATM   32  O2  UNL     1       8.010   3.021   5.525  1.00  0.00    -0.399 OA
HETATM   33  H32 UNL     1       8.438   2.457   6.191  1.00  0.00     0.209 HD
ENDBRANCH  31  32
ENDBRANCH  30  31
ENDBRANCH  27  30
ENDBRANCH  23  24
ENDBRANCH  16  23
ENDBRANCH  10  13
ENDBRANCH   5   9
BRANCH   7  34
HETATM   34  C8  UNL     1      -4.568  -0.665  -2.126  1.00  0.00    -0.059 C 
BRANCH  34  35
HETATM   35  C9  UNL     1      -5.615  -0.177  -1.795  1.00  0.00    -0.041 C 
BRANCH  35  36
HETATM   36  C10 UNL     1      -6.850   0.403  -1.401  1.00  0.00     0.110 A 
HETATM   37  C11 UNL     1      -8.079   0.258  -1.998  1.00  0.00     0.129 A 
HETATM   38  N1  UNL     1      -9.039   0.968  -1.328  1.00  0.00    -0.347 N 
HETATM   39  C12 UNL     1      -8.419   1.576  -0.331  1.00  0.00     0.139 A 
ATOM     40  H1  UNL     1     -10.033   1.018  -1.553  1.00  0.00     0.167 HD
HETATM   41  C16 UNL     1      -8.904   2.456   0.717  1.00  0.00     0.077 A 
HETATM   42  N2  UNL     1      -7.065   1.227  -0.317  1.00  0.00    -0.298 N 
HETATM   43  C15 UNL     1      -8.004   2.824   1.667  1.00  0.00     0.035 A 
HETATM   44  C14 UNL     1      -6.604   2.441   1.648  1.00  0.00     0.020 A 
HETATM   45  C13 UNL     1      -6.165   1.657   0.655  1.00  0.00     0.099 A 
BRANCH  41  46
HETATM   46  N3  UNL     1     -10.228   2.888   0.837  1.00  0.00    -0.351 N 
HETATM   47  H29 UNL     1     -10.441   3.198   1.780  1.00  0.00     0.166 HD
BRANCH  46  48
HETATM   48  C17 UNL     1     -11.201   3.066  -0.086  1.00  0.00     0.066 A 
HETATM   49  C18 UNL     1     -12.498   3.388   0.232  1.00  0.00     0.138 A 
HETATM   50  N4  UNL     1     -13.159   3.513  -0.955  1.00  0.00    -0.310 N 
HETATM   51  N5  UNL     1     -12.374   3.338  -2.029  1.00  0.00    -0.310 N 
HETATM   52  H30 UNL     1     -14.138   3.729  -1.109  1.00  0.00     0.186 HD
HETATM   53  C19 UNL     1     -11.179   3.051  -1.496  1.00  0.00     0.138 A 
ATOM     54  H5  UNL     1     -12.627   3.407  -3.015  1.00  0.00     0.186 HD
ENDBRANCH  46  48
ENDBRANCH  41  46
ENDBRANCH  35  36
ENDBRANCH  34  35
ENDBRANCH   7  34
TORSDOF 13
