REMARK  0 active torsions:
REMARK  status: ('A' for Active; 'I' for Inactive)
REMARK       I    between atoms: C2_2  and  C3_3 
REMARK       I    between atoms: C3_3  and  N1_65 
REMARK       I    between atoms: C4_4  and  C5_5 
REMARK       I    between atoms: C4_4  and  C49_49 
REMARK       I    between atoms: C4_4  and  N1_65 
REMARK       I    between atoms: C5_5  and  C6_6 
REMARK       I    between atoms: C6_6  and  C7_7 
REMARK       I    between atoms: C6_6  and  O12_90 
REMARK       I    between atoms: C8_8  and  C10_10 
REMARK       I    between atoms: C10_10  and  N3_68 
REMARK       I    between atoms: C11_11  and  C12_12 
REMARK       I    between atoms: C11_11  and  C43_43 
REMARK       I    between atoms: C11_11  and  N3_68 
REMARK       I    between atoms: C12_12  and  C13_13 
REMARK       I    between atoms: C15_15  and  N4_69 
REMARK       I    between atoms: C20_20  and  C21_21 
REMARK       I    between atoms: C20_20  and  N4_69 
REMARK       I    between atoms: C21_21  and  C22_22 
REMARK       I    between atoms: C22_22  and  C23_23 
REMARK       I    between atoms: C23_23  and  N5_70 
REMARK       I    between atoms: C24_24  and  C25_25 
REMARK       I    between atoms: C24_24  and  N5_70 
REMARK       I    between atoms: C25_25  and  C26_26 
REMARK       I    between atoms: C25_25  and  N7_72 
REMARK       I    between atoms: C26_26  and  C27_27 
REMARK       I    between atoms: C27_27  and  C28_28 
REMARK       I    between atoms: C28_28  and  C29_29 
REMARK       I    between atoms: C29_29  and  N6_71 
REMARK       I    between atoms: C30_30  and  C31_31 
REMARK       I    between atoms: C30_30  and  N6_71 
REMARK       I    between atoms: C31_31  and  C32_32 
REMARK       I    between atoms: C32_32  and  O5_83 
REMARK       I    between atoms: C33_33  and  C34_34 
REMARK       I    between atoms: C33_33  and  O5_83 
REMARK       I    between atoms: C34_34  and  O6_84 
REMARK       I    between atoms: C35_35  and  C36_36 
REMARK       I    between atoms: C35_35  and  N7_72 
REMARK       I    between atoms: C36_36  and  C37_37 
REMARK       I    between atoms: C37_37  and  N8_73 
REMARK       I    between atoms: C40_40  and  S2_78 
REMARK       I    between atoms: C43_43  and  C44_44 
REMARK       I    between atoms: C44_44  and  C46_46 
REMARK       I    between atoms: C46_46  and  O11_89 
REMARK       I    between atoms: C47_47  and  N9_74 
REMARK       I    between atoms: C47_47  and  O12_90 
REMARK       I    between atoms: C52_52  and  C53_53 
REMARK       I    between atoms: C52_52  and  N1_65 
REMARK       I    between atoms: C53_53  and  C54_54 
REMARK       I    between atoms: C53_53  and  N10_75 
REMARK       I    between atoms: C54_54  and  C56_56 
REMARK       I    between atoms: C58_58  and  C59_59 
REMARK       I    between atoms: C58_58  and  N10_75 
ROOT
HETATM    1  C1  UNL     1      -4.834   3.780  -0.821  1.00  0.00     0.006 C 
HETATM    2  C2  UNL     1      -6.294   3.475  -1.098  1.00  0.00     0.015 C 
HETATM    3  C3  UNL     1      -6.594   1.999  -1.383  1.00  0.00     0.126 C 
HETATM    4  C4  UNL     1      -5.421  -0.190  -0.845  1.00  0.00     0.093 C 
HETATM    5  C5  UNL     1      -4.012   0.167  -1.370  1.00  0.00     0.065 C 
HETATM    6  C6  UNL     1      -3.066   0.603  -0.236  1.00  0.00     0.192 C 
HETATM    7  C7  UNL     1      -1.707   0.947  -0.793  1.00  0.00     0.081 A 
HETATM    8  C8  UNL     1       0.244   0.737  -1.849  1.00  0.00     0.108 A 
HETATM    9  C9  UNL     1       0.384   2.029  -1.381  1.00  0.00     0.086 A 
HETATM   10  C10 UNL     1       1.272   0.001  -2.588  1.00  0.00     0.269 C 
HETATM   11  C11 UNL     1       1.835  -2.344  -3.188  1.00  0.00     0.089 C 
HETATM   12  C12 UNL     1       1.187  -3.734  -2.929  1.00  0.00     0.063 C 
HETATM   13  C13 UNL     1       0.654  -4.036  -1.539  1.00  0.00    -0.054 A 
HETATM   14  C14 UNL     1       0.907  -3.233  -0.420  1.00  0.00     0.037 A 
HETATM   15  C15 UNL     1       0.391  -3.515   0.862  1.00  0.00     0.041 A 
HETATM   16  C16 UNL     1      -0.437  -4.637   1.021  1.00  0.00    -0.035 A 
HETATM   17  C17 UNL     1      -0.650  -5.477  -0.090  1.00  0.00     0.009 A 
HETATM   18  C18 UNL     1      -0.118  -5.182  -1.348  1.00  0.00     0.008 A 
HETATM   19  C19 UNL     1      -1.149  -5.010   2.290  1.00  0.00     0.050 C 
HETATM   20  C20 UNL     1       0.912  -2.792   3.207  1.00  0.00     0.222 C 
HETATM   21  C21 UNL     1       1.061  -1.540   4.070  1.00  0.00     0.105 C 
HETATM   22  C22 UNL     1       1.933  -0.416   3.524  1.00  0.00     0.029 C 
HETATM   23  C23 UNL     1       3.365  -0.868   3.237  1.00  0.00     0.123 C 
HETATM   24  C24 UNL     1       3.656  -0.110   0.922  1.00  0.00     0.240 C 
HETATM   25  C25 UNL     1       4.596   0.570  -0.097  1.00  0.00     0.176 C 
HETATM   26  C26 UNL     1       4.508   2.103  -0.025  1.00  0.00     0.035 C 
HETATM   27  C27 UNL     1       4.657   2.781  -1.402  1.00  0.00     0.004 C 
HETATM   28  C28 UNL     1       5.810   3.787  -1.480  1.00  0.00     0.020 C 
HETATM   29  C29 UNL     1       7.197   3.155  -1.560  1.00  0.00     0.122 C 
HETATM   30  C30 UNL     1       7.369   1.377  -3.312  1.00  0.00     0.219 C 
HETATM   31  C31 UNL     1       7.913   1.107  -4.699  1.00  0.00     0.129 C 
HETATM   32  C32 UNL     1       9.435   1.061  -4.695  1.00  0.00     0.177 C 
HETATM   33  C33 UNL     1       9.970  -1.284  -4.735  1.00  0.00     0.193 C 
HETATM   34  C34 UNL     1      11.317  -1.391  -5.448  1.00  0.00     0.190 C 
HETATM   35  C35 UNL     1       6.882   0.239   0.929  1.00  0.00     0.219 C 
HETATM   36  C36 UNL     1       8.285  -0.195   0.552  1.00  0.00     0.123 C 
HETATM   37  C37 UNL     1       9.270  -0.145   1.717  1.00  0.00     0.144 C 
HETATM   38  C38 UNL     1       9.645   2.324   1.749  1.00  0.00     0.228 A 
HETATM   39  C39 UNL     1       9.697   3.435   2.753  1.00  0.00     0.128 A 
HETATM   40  C40 UNL     1       9.486   2.741   4.088  1.00  0.00     0.148 A 
HETATM   41  C41 UNL     1       9.355   1.276   3.745  1.00  0.00     0.240 A 
HETATM   42  C42 UNL     1      12.194   2.152   4.567  1.00  0.00     0.090 C 
HETATM   43  C43 UNL     1       2.315  -2.222  -4.656  1.00  0.00     0.040 C 
HETATM   44  C44 UNL     1       3.798  -2.540  -4.915  1.00  0.00     0.081 C 
HETATM   45  C45 UNL     1       4.282  -3.876  -4.363  1.00  0.00     0.021 C 
HETATM   46  C46 UNL     1       4.682  -1.384  -4.490  1.00  0.00     0.143 C 
HETATM   47  C47 UNL     1      -2.829  -0.209   1.970  1.00  0.00     0.360 C 
HETATM   48  C48 UNL     1      -2.892  -1.402   4.108  1.00  0.00     0.151 C 
HETATM   49  C49 UNL     1      -6.197  -1.148  -1.814  1.00  0.00     0.000 C 
HETATM   50  C50 UNL     1      -7.551  -1.595  -1.252  1.00  0.00     0.011 C 
HETATM   51  C51 UNL     1      -6.374  -0.659  -3.253  1.00  0.00     0.011 C 
HETATM   52  C52 UNL     1      -6.872   0.835   0.843  1.00  0.00     0.243 C 
HETATM   53  C53 UNL     1      -7.868   1.907   1.352  1.00  0.00     0.180 C 
HETATM   54  C54 UNL     1      -7.213   2.879   2.370  1.00  0.00     0.013 C 
HETATM   55  C55 UNL     1      -6.571   2.167   3.573  1.00  0.00     0.012 C 
HETATM   56  C56 UNL     1      -8.204   3.939   2.905  1.00  0.00     0.002 C 
HETATM   57  C57 UNL     1      -8.804   4.837   1.833  1.00  0.00     0.005 C 
HETATM   58  C58 UNL     1     -10.045   0.760   1.169  1.00  0.00     0.252 C 
HETATM   59  C59 UNL     1     -10.956  -0.284   1.858  1.00  0.00     0.313 C 
HETATM   60  C60 UNL     1     -10.359  -1.679   1.639  1.00  0.00     0.046 C 
HETATM   61  C61 UNL     1     -11.159  -2.750   2.380  1.00  0.00     0.004 C 
HETATM   62  C62 UNL     1     -12.629  -2.369   2.547  1.00  0.00     0.030 C 
HETATM   63  C63 UNL     1     -13.098  -1.445   1.426  1.00  0.00     0.273 C 
HETATM   64  C64 UNL     1     -13.063   0.923   1.971  1.00  0.00     0.310 C 
HETATM   65  N1  UNL     1      -6.191   1.002  -0.375  1.00  0.00    -0.345 N 
HETATM   66  N2  UNL     1      -0.975   0.133  -1.527  1.00  0.00    -0.347 N 
ATOM     67  H2  UNL     1      -1.257  -0.803  -1.818  1.00  0.00     0.166 HD
HETATM   68  N3  UNL     1       0.872  -1.284  -2.893  1.00  0.00    -0.351 N 
HETATM   69  N4  UNL     1       0.721  -2.562   1.861  1.00  0.00    -0.327 N 
HETATM   70  N5  UNL     1       4.021  -0.040   2.248  1.00  0.00    -0.359 N 
HETATM   71  N6  UNL     1       7.526   2.677  -2.891  1.00  0.00    -0.361 N 
HETATM   72  N7  UNL     1       5.973   0.063  -0.086  1.00  0.00    -0.348 N 
HETATM   73  N8  UNL     1       9.386   1.145   2.381  1.00  0.00    -0.287 N 
HETATM   74  N9  UNL     1      -2.713  -1.362   2.683  1.00  0.00    -0.341 N 
HETATM   75  N10 UNL     1      -8.973   1.155   1.957  1.00  0.00    -0.346 N 
HETATM   76  N11 UNL     1     -12.346  -0.188   1.349  1.00  0.00     0.098 N 
HETATM   77  S1  UNL     1      -1.007   2.491  -0.495  1.00  0.00    -0.084 SA
HETATM   78  S2  UNL     1      10.818   3.083   5.294  1.00  0.00    -0.159 SA
HETATM   79  O1  UNL     1       2.372   0.469  -2.862  1.00  0.00    -0.266 OA
HETATM   80  O2  UNL     1       0.939  -3.895   3.750  1.00  0.00    -0.273 OA
HETATM   81  O3  UNL     1       2.584  -0.611   0.576  1.00  0.00    -0.271 OA
HETATM   82  O4  UNL     1       6.836   0.492  -2.640  1.00  0.00    -0.274 OA
HETATM   83  O5  UNL     1       9.925  -0.070  -3.971  1.00  0.00    -0.389 OA
HETATM   84  O6  UNL     1      12.375  -1.336  -4.493  1.00  0.00    -0.399 OA
HETATM   85  O7  UNL     1       6.582   0.707   2.023  1.00  0.00    -0.274 OA
HETATM   86  O8  UNL     1       9.817   2.489   0.550  1.00  0.00    -0.273 OA
HETATM   87  O9  UNL     1       9.267   0.363   4.554  1.00  0.00    -0.272 OA
HETATM   88  O10 UNL     1       4.974  -0.432  -5.197  1.00  0.00    -0.650 OA
HETATM   89  O11 UNL     1       5.140  -1.483  -3.230  1.00  0.00    -0.776 OA
HETATM   90  O12 UNL     1      -2.874  -0.513   0.653  1.00  0.00    -0.292 OA
HETATM   91  O13 UNL     1      -2.902   0.914   2.443  1.00  0.00    -0.239 OA
HETATM   92  O14 UNL     1      -6.691  -0.168   1.553  1.00  0.00    -0.271 OA
HETATM   93  O15 UNL     1     -10.217   1.194   0.033  1.00  0.00    -0.271 OA
HETATM   94  H93 UNL     1      -0.015  -1.537  -2.458  1.00  0.00     0.163 HD
HETATM   95  H94 UNL     1       1.159  -1.715   1.494  1.00  0.00     0.169 HD
HETATM   96  H95 UNL     1       4.979   0.261   2.438  1.00  0.00     0.162 HD
HETATM   97  H96 UNL     1       7.918   3.353  -3.533  1.00  0.00     0.162 HD
HETATM   98  H97 UNL     1       6.378  -0.045  -1.017  1.00  0.00     0.163 HD
HETATM   99  H98 UNL     1      -2.770  -2.213   2.141  1.00  0.00     0.164 HD
HETATM  100  H99 UNL     1      -8.680   0.488   2.662  1.00  0.00     0.163 HD
HETATM  101  HA0 UNL     1      12.109  -0.655  -3.844  1.00  0.00     0.209 HD
HETATM  102  HA1 UNL     1       5.674  -0.662  -3.087  1.00  0.00     0.167 HD
ENDROOT
TORSDOF 44
