REMARK  0 active torsions:
REMARK  status: ('A' for Active; 'I' for Inactive)
REMARK       I    between atoms: C2_2  and  C4_4 
REMARK       I    between atoms: C4_4  and  C5_5 
REMARK       I    between atoms: C5_5  and  C6_6 
REMARK       I    between atoms: C5_5  and  N15_81 
REMARK       I    between atoms: C6_6  and  N1_65 
REMARK       I    between atoms: C7_7  and  C8_8 
REMARK       I    between atoms: C7_7  and  C12_12 
REMARK       I    between atoms: C7_7  and  N1_65 
REMARK       I    between atoms: C8_8  and  C9_9 
REMARK       I    between atoms: C12_12  and  N2_66 
REMARK       I    between atoms: C13_13  and  C14_14 
REMARK       I    between atoms: C13_13  and  C23_23 
REMARK       I    between atoms: C13_13  and  N2_66 
REMARK       I    between atoms: C14_14  and  C15_15 
REMARK       I    between atoms: C23_23  and  N4_68 
REMARK       I    between atoms: C24_24  and  C25_25 
REMARK       I    between atoms: C24_24  and  C29_29 
REMARK       I    between atoms: C24_24  and  N4_68 
REMARK       I    between atoms: C25_25  and  C26_26 
REMARK       I    between atoms: C29_29  and  N5_69 
REMARK       I    between atoms: C30_30  and  C31_31 
REMARK       I    between atoms: C30_30  and  C35_35 
REMARK       I    between atoms: C30_30  and  N5_69 
REMARK       I    between atoms: C31_31  and  C32_32 
REMARK       I    between atoms: C32_32  and  C33_33 
REMARK       I    between atoms: C33_33  and  N6_70 
REMARK       I    between atoms: C34_34  and  N7_72 
REMARK       I    between atoms: C34_34  and  N8_73 
REMARK       I    between atoms: C35_35  and  N9_74 
REMARK       I    between atoms: C36_36  and  C37_37 
REMARK       I    between atoms: C36_36  and  C40_40 
REMARK       I    between atoms: C36_36  and  N9_74 
REMARK       I    between atoms: C40_40  and  N10_75 
REMARK       I    between atoms: C41_41  and  C42_42 
REMARK       I    between atoms: C41_41  and  C46_46 
REMARK       I    between atoms: C41_41  and  N10_75 
REMARK       I    between atoms: C42_42  and  C43_43 
REMARK       I    between atoms: C43_43  and  C44_44 
REMARK       I    between atoms: C44_44  and  C45_45 
REMARK       I    between atoms: C45_45  and  N11_76 
REMARK       I    between atoms: C46_46  and  N12_77 
REMARK       I    between atoms: C47_47  and  C48_48 
REMARK       I    between atoms: C47_47  and  N12_77 
REMARK       I    between atoms: C51_51  and  C54_54 
REMARK       I    between atoms: C54_54  and  N14_80 
REMARK       I    between atoms: C55_55  and  N15_81 
ROOT
HETATM    1  C1  UNL     1     -11.431   1.549   0.709  1.00  0.00     0.009 C 
HETATM    2  C2  UNL     1     -10.931   0.202   0.178  1.00  0.00    -0.020 C 
HETATM    3  C3  UNL     1     -11.617  -0.935   0.935  1.00  0.00     0.009 C 
HETATM    4  C4  UNL     1      -9.392   0.149   0.271  1.00  0.00     0.038 C 
HETATM    5  C5  UNL     1      -8.769  -1.113  -0.343  1.00  0.00     0.177 C 
HETATM    6  C6  UNL     1      -7.322  -0.816  -0.798  1.00  0.00     0.241 C 
HETATM    7  C7  UNL     1      -5.951   0.300  -2.512  1.00  0.00     0.177 C 
HETATM    8  C8  UNL     1      -5.854   0.208  -4.042  1.00  0.00     0.038 C 
HETATM    9  C9  UNL     1      -5.582  -1.193  -4.630  1.00  0.00    -0.020 C 
HETATM   10  C10 UNL     1      -6.699  -2.196  -4.346  1.00  0.00     0.009 C 
HETATM   11  C11 UNL     1      -4.232  -1.759  -4.185  1.00  0.00     0.009 C 
HETATM   12  C12 UNL     1      -5.793   1.777  -2.094  1.00  0.00     0.241 C 
HETATM   13  C13 UNL     1      -4.028   3.506  -1.667  1.00  0.00     0.181 C 
HETATM   14  C14 UNL     1      -4.644   4.361  -0.555  1.00  0.00     0.075 C 
HETATM   15  C15 UNL     1      -4.237   4.004   0.843  1.00  0.00    -0.028 A 
HETATM   16  C16 UNL     1      -3.141   4.515   1.509  1.00  0.00     0.096 A 
HETATM   17  C17 UNL     1      -4.191   3.156   2.957  1.00  0.00     0.042 A 
HETATM   18  C18 UNL     1      -4.567   2.413   4.082  1.00  0.00     0.030 A 
HETATM   19  C19 UNL     1      -5.703   1.608   3.975  1.00  0.00     0.002 A 
HETATM   20  C20 UNL     1      -6.439   1.562   2.794  1.00  0.00     0.001 A 
HETATM   21  C21 UNL     1      -6.056   2.320   1.681  1.00  0.00     0.014 A 
HETATM   22  C22 UNL     1      -4.904   3.128   1.756  1.00  0.00    -0.002 A 
HETATM   23  C23 UNL     1      -2.481   3.489  -1.600  1.00  0.00     0.241 C 
HETATM   24  C24 UNL     1      -0.547   1.973  -0.966  1.00  0.00     0.177 C 
HETATM   25  C25 UNL     1       0.344   2.494  -2.105  1.00  0.00     0.038 C 
HETATM   26  C26 UNL     1       1.704   1.772  -2.236  1.00  0.00    -0.020 C 
HETATM   27  C27 UNL     1       1.546   0.303  -2.637  1.00  0.00     0.009 C 
HETATM   28  C28 UNL     1       2.572   2.493  -3.271  1.00  0.00     0.009 C 
HETATM   29  C29 UNL     1       0.029   2.362   0.414  1.00  0.00     0.241 C 
HETATM   30  C30 UNL     1       1.056   1.415   2.470  1.00  0.00     0.176 C 
HETATM   31  C31 UNL     1      -0.019   1.560   3.552  1.00  0.00     0.036 C 
HETATM   32  C32 UNL     1      -0.990   0.377   3.697  1.00  0.00     0.022 C 
HETATM   33  C33 UNL     1      -2.041   0.285   2.591  1.00  0.00     0.121 C 
HETATM   34  C34 UNL     1      -2.420  -0.807   0.560  1.00  0.00     0.121 C 
HETATM   35  C35 UNL     1       2.030   0.255   2.775  1.00  0.00     0.241 C 
HETATM   36  C36 UNL     1       3.600  -1.356   1.693  1.00  0.00     0.180 C 
HETATM   37  C37 UNL     1       2.876  -2.716   1.823  1.00  0.00     0.009 C 
HETATM   38  C38 UNL     1       1.996  -3.045   0.611  1.00  0.00     0.012 C 
HETATM   39  C39 UNL     1       3.841  -3.870   2.098  1.00  0.00     0.012 C 
HETATM   40  C40 UNL     1       4.460  -1.233   0.419  1.00  0.00     0.241 C 
HETATM   41  C41 UNL     1       6.653  -1.786  -0.608  1.00  0.00     0.176 C 
HETATM   42  C42 UNL     1       7.289  -0.405  -0.851  1.00  0.00     0.035 C 
HETATM   43  C43 UNL     1       8.076   0.143   0.350  1.00  0.00     0.004 C 
HETATM   44  C44 UNL     1       8.701   1.506   0.023  1.00  0.00     0.030 C 
HETATM   45  C45 UNL     1       9.365   2.177   1.227  1.00  0.00     0.267 C 
HETATM   46  C46 UNL     1       7.712  -2.873  -0.329  1.00  0.00     0.240 C 
HETATM   47  C47 UNL     1       9.803  -3.856  -1.166  1.00  0.00     0.161 C 
HETATM   48  C48 UNL     1      10.857  -2.963  -0.558  1.00  0.00    -0.040 A 
HETATM   49  C49 UNL     1      11.277  -1.799  -1.222  1.00  0.00     0.010 A 
HETATM   50  C50 UNL     1      12.185  -0.929  -0.617  1.00  0.00     0.015 A 
HETATM   51  C51 UNL     1      12.702  -1.227   0.647  1.00  0.00     0.002 A 
HETATM   52  C52 UNL     1      12.329  -2.406   1.295  1.00  0.00     0.015 A 
HETATM   53  C53 UNL     1      11.401  -3.264   0.699  1.00  0.00     0.010 A 
HETATM   54  C54 UNL     1      13.622  -0.270   1.319  1.00  0.00     0.081 C 
HETATM   55  C55 UNL     1      -8.773  -3.512   0.176  1.00  0.00     0.214 C 
HETATM   56  C56 UNL     1      -8.466  -4.536   1.236  1.00  0.00     0.117 C 
HETATM   57  O1  UNL     1      -6.333  -1.103  -0.120  1.00  0.00    -0.271 OA
HETATM   58  O2  UNL     1      -6.729   2.572  -2.122  1.00  0.00    -0.271 OA
HETATM   59  O3  UNL     1      -1.804   4.438  -1.977  1.00  0.00    -0.271 OA
HETATM   60  O4  UNL     1       0.071   3.508   0.847  1.00  0.00    -0.271 OA
HETATM   61  O5  UNL     1       2.323  -0.107   3.911  1.00  0.00    -0.271 OA
HETATM   62  O6  UNL     1       4.039  -0.700  -0.608  1.00  0.00    -0.271 OA
HETATM   63  O7  UNL     1       7.774  -3.453   0.754  1.00  0.00    -0.271 OA
HETATM   64  O8  UNL     1      -9.046  -3.826  -0.978  1.00  0.00    -0.274 OA
HETATM   65  N1  UNL     1      -7.231  -0.172  -2.014  1.00  0.00    -0.346 N 
HETATM   66  N2  UNL     1      -4.508   2.119  -1.750  1.00  0.00    -0.346 N 
HETATM   67  N3  UNL     1      -3.129   4.012   2.779  1.00  0.00    -0.365 N 
HETATM   68  N4  UNL     1      -1.966   2.312  -1.081  1.00  0.00    -0.346 N 
HETATM   69  N5  UNL     1       0.500   1.274   1.127  1.00  0.00    -0.346 N 
HETATM   70  N6  UNL     1      -1.582  -0.598   1.510  1.00  0.00    -0.372 N 
ATOM     71  H6  UNL     1      -0.653  -1.020   1.514  1.00  0.00     0.161 HD
HETATM   72  N7  UNL     1      -2.114  -1.672  -0.427  1.00  0.00    -0.279 NA
HETATM   73  N8  UNL     1      -3.627  -0.239   0.332  1.00  0.00    -0.279 NA
HETATM   74  N9  UNL     1       2.648  -0.253   1.656  1.00  0.00    -0.346 N 
HETATM   75  N10 UNL     1       5.716  -1.775   0.507  1.00  0.00    -0.346 N 
HETATM   76  N11 UNL     1      10.583   1.492   1.661  1.00  0.00     0.078 N 
HETATM   77  N12 UNL     1       8.575  -3.118  -1.375  1.00  0.00    -0.355 N 
HETATM   78  N13 UNL     1      14.529  -0.713   2.125  1.00  0.00    -0.389 N 
ATOM     79  H13 UNL     1      14.666  -1.692   2.375  1.00  0.00     0.157 HD
HETATM   80  N14 UNL     1      13.475   1.070   1.096  1.00  0.00    -0.288 NA
HETATM   81  N15 UNL     1      -8.709  -2.209   0.619  1.00  0.00    -0.348 N 
HETATM   82  H72 UNL     1      -8.053   0.313  -2.358  1.00  0.00     0.163 HD
HETATM   83  H73 UNL     1      -3.789   1.415  -1.876  1.00  0.00     0.163 HD
HETATM   84  H74 UNL     1      -2.434   4.229   3.480  1.00  0.00     0.165 HD
HETATM   85  H75 UNL     1      -2.565   1.866  -0.388  1.00  0.00     0.163 HD
HETATM   86  H76 UNL     1       0.015   0.388   0.971  1.00  0.00     0.163 HD
HETATM   87  H77 UNL     1      -1.155  -1.999  -0.387  1.00  0.00     0.126 HD
HETATM   88  H78 UNL     1      -2.406  -1.400  -1.354  1.00  0.00     0.126 HD
HETATM   89  H79 UNL     1      -4.348  -0.920   0.071  1.00  0.00     0.126 HD
HETATM   90  H80 UNL     1      -4.008   0.283   1.118  1.00  0.00     0.126 HD
HETATM   91  H81 UNL     1       2.409   0.140   0.749  1.00  0.00     0.163 HD
HETATM   92  H82 UNL     1       6.022  -2.246   1.356  1.00  0.00     0.163 HD
HETATM   93  H83 UNL     1      10.849   1.874   2.572  1.00  0.00     0.312 HD
HETATM   94  H84 UNL     1      10.364   0.510   1.850  1.00  0.00     0.312 HD
HETATM   95  H85 UNL     1       8.529  -2.530  -2.195  1.00  0.00     0.162 HD
HETATM   96  H86 UNL     1      15.088   0.067   2.474  1.00  0.00     0.157 HD
HETATM   97  H87 UNL     1      13.898   1.670   1.792  1.00  0.00     0.125 HD
HETATM   98  H88 UNL     1      12.495   1.349   0.951  1.00  0.00     0.125 HD
HETATM   99  H89 UNL     1      -8.114  -2.049   1.424  1.00  0.00     0.163 HD
ENDROOT
TORSDOF 36
