REMARK  21 active torsions:
REMARK  status: ('A' for Active; 'I' for Inactive)
REMARK    1  A    between atoms: C2_2  and  C3_3 
REMARK    2  A    between atoms: C3_3  and  C5_5 
REMARK    3  A    between atoms: C19_19  and  C47_47 
REMARK    4  A    between atoms: C21_21  and  O14_70 
REMARK    5  A    between atoms: C24_24  and  C26_26 
REMARK    6  A    between atoms: C26_26  and  C27_27 
REMARK       I    between atoms: C27_27  and  N9_81 
REMARK    7  A    between atoms: C28_28  and  C29_29 
REMARK    8  A    between atoms: C28_28  and  N9_81 
REMARK    9  A    between atoms: C32_32  and  N10_82 
REMARK   10  A    between atoms: C35_35  and  C36_36 
REMARK       I    between atoms: C35_35  and  N10_82 
REMARK   11  A    between atoms: C36_36  and  N11_83 
REMARK   12  A    between atoms: C38_38  and  C39_39 
REMARK       I    between atoms: C38_38  and  N11_83 
REMARK   13  A    between atoms: C39_39  and  N12_84 
REMARK   14  A    between atoms: C40_40  and  C41_41 
REMARK       I    between atoms: C40_40  and  N12_84 
REMARK   15  A    between atoms: C41_41  and  C42_42 
REMARK   16  A    between atoms: C42_42  and  N13_85 
REMARK   17  A    between atoms: C45_45  and  S2_88 
REMARK   18  A    between atoms: C47_47  and  C49_49 
REMARK   19  A    between atoms: C49_49  and  C50_50 
REMARK   20  A    between atoms: C49_49  and  O16_72 
REMARK   21  A    between atoms: C50_50  and  O15_71 
ROOT
HETATM    1  C5  UNL     1      -8.017  -1.078  -0.939  1.00  0.00     0.180 C 
HETATM    2  C6  UNL     1      -8.053  -2.048   0.270  1.00  0.00     0.241 C 
HETATM    3  C7  UNL     1      -7.277  -2.485   2.568  1.00  0.00     0.225 C 
HETATM    4  C8  UNL     1      -6.285  -3.653   2.510  1.00  0.00     0.236 C 
HETATM    5  C9  UNL     1      -4.237  -2.169   2.307  1.00  0.00     0.186 C 
HETATM    6  C10 UNL     1      -3.599  -2.107   3.702  1.00  0.00     0.116 C 
HETATM    7  C11 UNL     1      -4.060   0.565   4.395  1.00  0.00     0.077 A 
HETATM    8  C12 UNL     1      -4.357   1.808   3.862  1.00  0.00    -0.010 A 
HETATM    9  C13 UNL     1      -3.627   2.492   2.737  1.00  0.00     0.077 C 
HETATM   10  C14 UNL     1      -4.437   2.852   1.473  1.00  0.00     0.181 C 
HETATM   11  C15 UNL     1      -5.730   2.033   1.268  1.00  0.00     0.241 C 
HETATM   12  C16 UNL     1      -8.148   2.327   0.821  1.00  0.00     0.225 C 
HETATM   13  C17 UNL     1      -8.671   1.088   0.078  1.00  0.00     0.236 C 
HETATM   14  C18 UNL     1      -4.016   5.251   0.712  1.00  0.00     0.252 C 
HETATM   15  C19 UNL     1      -2.846   4.878  -0.251  1.00  0.00     0.320 C 
HETATM   16  C20 UNL     1      -1.116   3.170  -0.367  1.00  0.00     0.355 C 
HETATM   17  C21 UNL     1       0.342   2.934   0.129  1.00  0.00     0.189 C 
HETATM   18  C22 UNL     1      -0.210   1.725   0.913  1.00  0.00     0.163 C 
HETATM   19  C23 UNL     1      -2.072   0.878  -0.705  1.00  0.00     0.245 C 
HETATM   20  C24 UNL     1      -1.969  -0.630  -0.396  1.00  0.00     0.185 C 
HETATM   21  C25 UNL     1      -3.160  -2.138   1.207  1.00  0.00     0.241 C 
HETATM   22  C51 UNL     1      -5.465   2.315   4.628  1.00  0.00    -0.000 A 
HETATM   23  C52 UNL     1      -6.186   3.528   4.647  1.00  0.00     0.014 A 
HETATM   24  C53 UNL     1      -7.265   3.684   5.526  1.00  0.00     0.001 A 
HETATM   25  C54 UNL     1      -7.628   2.659   6.393  1.00  0.00     0.002 A 
HETATM   26  C55 UNL     1      -6.914   1.460   6.422  1.00  0.00     0.030 A 
HETATM   27  C56 UNL     1      -5.839   1.322   5.536  1.00  0.00     0.043 A 
HETATM   28  O1  UNL     1      -8.653  -3.120   0.227  1.00  0.00    -0.271 OA
HETATM   29  O2  UNL     1      -6.585  -4.787   2.885  1.00  0.00    -0.272 OA
HETATM   30  O3  UNL     1      -5.813   0.823   1.481  1.00  0.00    -0.271 OA
HETATM   31  O4  UNL     1      -9.867   0.808   0.075  1.00  0.00    -0.272 OA
HETATM   32  O5  UNL     1      -4.426   6.406   0.851  1.00  0.00    -0.271 OA
HETATM   33  O6  UNL     1      -2.936   1.273  -1.500  1.00  0.00    -0.271 OA
HETATM   34  O7  UNL     1      -2.621  -3.157   0.780  1.00  0.00    -0.271 OA
HETATM   35  N1  UNL     1      -7.277  -1.687   1.354  1.00  0.00    -0.351 N 
HETATM   36  N2  UNL     1      -4.987  -3.418   2.147  1.00  0.00    -0.346 N 
HETATM   37  N3  UNL     1      -6.754   2.717   0.639  1.00  0.00    -0.351 N 
HETATM   38  N4  UNL     1      -7.711   0.287  -0.492  1.00  0.00    -0.346 N 
HETATM   39  N5  UNL     1      -4.707   4.291   1.394  1.00  0.00    -0.346 N 
HETATM   40  N6  UNL     1      -1.788   4.150   0.502  1.00  0.00     0.123 N 
HETATM   41  N7  UNL     1      -1.367   1.788   0.035  1.00  0.00    -0.315 N 
HETATM   42  N8  UNL     1      -2.821  -0.872   0.778  1.00  0.00    -0.346 N 
HETATM   43  N14 UNL     1      -4.950   0.286   5.391  1.00  0.00    -0.350 N 
HETATM   44  S1  UNL     1      -2.756  -0.537   4.094  1.00  0.00    -0.109 SA
HETATM   45  H62 UNL     1      -6.935  -0.730   1.403  1.00  0.00     0.163 HD
HETATM   46  H63 UNL     1      -4.432  -4.266   2.083  1.00  0.00     0.163 HD
HETATM   47  H64 UNL     1      -6.585   3.708   0.500  1.00  0.00     0.163 HD
HETATM   48  H65 UNL     1      -6.751   0.505  -0.255  1.00  0.00     0.163 HD
HETATM   49  H66 UNL     1      -5.388   4.687   2.029  1.00  0.00     0.163 HD
HETATM   50  H67 UNL     1      -1.134   4.879   0.829  1.00  0.00     0.319 HD
HETATM   51  H68 UNL     1      -3.484  -0.138   1.010  1.00  0.00     0.163 HD
HETATM   52  H73 UNL     1      -4.925  -0.535   5.978  1.00  0.00     0.166 HD
ENDROOT
BRANCH  20  53
HETATM   53  C26 UNL     1      -0.588  -1.277  -0.303  1.00  0.00     0.137 C 
BRANCH  53  54
HETATM   54  C27 UNL     1       0.426  -0.753  -1.298  1.00  0.00     0.220 C 
HETATM   55  O8  UNL     1       0.262   0.250  -1.984  1.00  0.00    -0.274 OA
HETATM   56  N9  UNL     1       1.596  -1.475  -1.306  1.00  0.00    -0.357 N 
HETATM   57  H69 UNL     1       1.632  -2.372  -0.837  1.00  0.00     0.162 HD
BRANCH  56  58
HETATM   58  C28 UNL     1       2.670  -1.146  -2.214  1.00  0.00     0.161 C 
BRANCH  58  59
HETATM   59  C29 UNL     1       3.922  -1.895  -1.850  1.00  0.00    -0.040 A 
HETATM   60  C30 UNL     1       4.261  -3.087  -2.500  1.00  0.00     0.011 A 
HETATM   61  C31 UNL     1       5.411  -3.791  -2.130  1.00  0.00     0.030 A 
HETATM   62  C32 UNL     1       6.240  -3.323  -1.104  1.00  0.00     0.034 A 
HETATM   63  C33 UNL     1       5.893  -2.144  -0.444  1.00  0.00     0.030 A 
HETATM   64  C34 UNL     1       4.744  -1.436  -0.813  1.00  0.00     0.011 A 
BRANCH  62  65
HETATM   65  N10 UNL     1       7.381  -4.089  -0.807  1.00  0.00    -0.325 N 
HETATM   66  C35 UNL     1       8.380  -3.825   0.120  1.00  0.00     0.244 C 
HETATM   67  O9  UNL     1       8.414  -2.852   0.869  1.00  0.00    -0.271 OA
HETATM   68  H70 UNL     1       7.495  -4.956  -1.335  1.00  0.00     0.169 HD
BRANCH  66  69
HETATM   69  C36 UNL     1       9.457  -4.943   0.158  1.00  0.00     0.172 C 
HETATM   70  C37 UNL     1      10.470  -4.699   1.270  1.00  0.00     0.042 C 
BRANCH  69  71
HETATM   71  N11 UNL     1      10.148  -5.076  -1.127  1.00  0.00    -0.347 N 
HETATM   72  C38 UNL     1       9.614  -5.758  -2.192  1.00  0.00     0.236 C 
HETATM   73  O10 UNL     1       8.489  -6.257  -2.152  1.00  0.00    -0.272 OA
HETATM   74  H71 UNL     1      10.880  -4.390  -1.326  1.00  0.00     0.163 HD
BRANCH  72  75
HETATM   75  C39 UNL     1      10.490  -5.817  -3.443  1.00  0.00     0.225 C 
BRANCH  75  76
HETATM   76  N12 UNL     1      10.598  -4.511  -4.069  1.00  0.00    -0.352 N 
HETATM   77  C40 UNL     1      11.652  -3.674  -3.789  1.00  0.00     0.219 C 
HETATM   78  O11 UNL     1      12.576  -4.002  -3.053  1.00  0.00    -0.274 OA
HETATM   79  H72 UNL     1       9.798  -4.166  -4.583  1.00  0.00     0.162 HD
BRANCH  77  80
HETATM   80  C41 UNL     1      11.599  -2.341  -4.503  1.00  0.00     0.123 C 
BRANCH  80  81
HETATM   81  C42 UNL     1      12.094  -1.207  -3.608  1.00  0.00     0.144 C 
BRANCH  81  82
HETATM   82  N13 UNL     1      11.017  -0.599  -2.836  1.00  0.00    -0.287 N 
HETATM   83  C43 UNL     1      10.337   0.511  -3.241  1.00  0.00     0.228 C 
HETATM   84  C44 UNL     1       9.339   0.897  -2.192  1.00  0.00     0.128 C 
HETATM   85  O12 UNL     1      10.491   1.108  -4.296  1.00  0.00    -0.273 OA
HETATM   86  C45 UNL     1       9.343  -0.283  -1.233  1.00  0.00     0.145 C 
HETATM   87  C46 UNL     1      10.473  -1.160  -1.716  1.00  0.00     0.240 C 
HETATM   88  O13 UNL     1      10.803  -2.232  -1.226  1.00  0.00    -0.272 OA
BRANCH  86  89
HETATM   89  S2  UNL     1       9.599   0.221   0.488  1.00  0.00    -0.167 SA
HETATM   90  H74 UNL     1       9.393  -1.005   1.013  1.00  0.00     0.102 HD
ENDBRANCH  86  89
ENDBRANCH  81  82
ENDBRANCH  80  81
ENDBRANCH  77  80
ENDBRANCH  75  76
ENDBRANCH  72  75
ENDBRANCH  69  71
ENDBRANCH  66  69
ENDBRANCH  62  65
ENDBRANCH  58  59
ENDBRANCH  56  58
ENDBRANCH  53  54
ENDBRANCH  20  53
BRANCH  17  91
HETATM   91  O14 UNL     1       1.331   2.626  -0.890  1.00  0.00    -0.390 OA
HETATM   92  H59 UNL     1       0.918   1.925  -1.441  1.00  0.00     0.210 HD
ENDBRANCH  17  91
BRANCH  15  93
HETATM   93  C47 UNL     1      -2.336   6.179  -0.970  1.00  0.00     0.055 C 
HETATM   94  C48 UNL     1      -1.495   5.846  -2.211  1.00  0.00     0.015 C 
BRANCH  93  95
HETATM   95  C49 UNL     1      -1.593   7.150  -0.014  1.00  0.00     0.148 C 
BRANCH  95  96
HETATM   96  C50 UNL     1      -1.193   8.481  -0.665  1.00  0.00     0.196 C 
BRANCH  96  97
HETATM   97  O15 UNL     1      -0.515   9.266   0.322  1.00  0.00    -0.398 OA
HETATM   98  H60 UNL     1      -0.326  10.129  -0.088  1.00  0.00     0.209 HD
ENDBRANCH  96  97
ENDBRANCH  95  96
BRANCH  95  99
HETATM   99  O16 UNL     1      -0.404   6.527   0.502  1.00  0.00    -0.393 OA
HETATM  100  H61 UNL     1       0.094   7.266   0.912  1.00  0.00     0.210 HD
ENDBRANCH  95  99
ENDBRANCH  93  95
ENDBRANCH  15  93
BRANCH   1 101
HETATM  101  C3  UNL     1      -7.029  -1.505  -2.056  1.00  0.00     0.013 C 
HETATM  102  C4  UNL     1      -5.574  -1.617  -1.589  1.00  0.00     0.012 C 
BRANCH 101 103
HETATM  103  C2  UNL     1      -7.505  -2.751  -2.840  1.00  0.00     0.002 C 
HETATM  104  C1  UNL     1      -6.953  -4.097  -2.387  1.00  0.00     0.005 C 
ENDBRANCH 101 103
ENDBRANCH   1 101
TORSDOF 21
