REMARK  0 active torsions:
REMARK  status: ('A' for Active; 'I' for Inactive)
REMARK       I    between atoms: C2_2  and  C3_3 
REMARK       I    between atoms: C2_2  and  N17_91 
REMARK       I    between atoms: C3_3  and  N1_72 
REMARK       I    between atoms: C4_4  and  C5_5 
REMARK       I    between atoms: C4_4  and  C8_8 
REMARK       I    between atoms: C4_4  and  N1_72 
REMARK       I    between atoms: C8_8  and  N2_73 
REMARK       I    between atoms: C9_9  and  C10_10 
REMARK       I    between atoms: C9_9  and  C14_14 
REMARK       I    between atoms: C9_9  and  N2_73 
REMARK       I    between atoms: C10_10  and  C11_11 
REMARK       I    between atoms: C11_11  and  C12_12 
REMARK       I    between atoms: C12_12  and  N3_74 
REMARK       I    between atoms: C13_13  and  N4_76 
REMARK       I    between atoms: C13_13  and  N5_77 
REMARK       I    between atoms: C14_14  and  N6_78 
REMARK       I    between atoms: C15_15  and  C16_16 
REMARK       I    between atoms: C15_15  and  C20_20 
REMARK       I    between atoms: C15_15  and  N6_78 
REMARK       I    between atoms: C16_16  and  C17_17 
REMARK       I    between atoms: C17_17  and  C18_18 
REMARK       I    between atoms: C18_18  and  N7_79 
REMARK       I    between atoms: C19_19  and  N8_81 
REMARK       I    between atoms: C19_19  and  N9_82 
REMARK       I    between atoms: C20_20  and  N10_83 
REMARK       I    between atoms: C21_21  and  C22_22 
REMARK       I    between atoms: C21_21  and  C23_23 
REMARK       I    between atoms: C21_21  and  N10_83 
REMARK       I    between atoms: C22_22  and  O5_60 
REMARK       I    between atoms: C23_23  and  N11_84 
REMARK       I    between atoms: C24_24  and  C25_25 
REMARK       I    between atoms: C24_24  and  C27_27 
REMARK       I    between atoms: C24_24  and  N11_84 
REMARK       I    between atoms: C25_25  and  C26_26 
REMARK       I    between atoms: C26_26  and  O8_63 
REMARK       I    between atoms: C27_27  and  N12_85 
REMARK       I    between atoms: C28_28  and  C29_29 
REMARK       I    between atoms: C28_28  and  C33_33 
REMARK       I    between atoms: C28_28  and  N12_85 
REMARK       I    between atoms: C29_29  and  C30_30 
REMARK       I    between atoms: C30_30  and  C31_31 
REMARK       I    between atoms: C31_31  and  N13_86 
REMARK       I    between atoms: C32_32  and  N14_88 
REMARK       I    between atoms: C32_32  and  N15_89 
REMARK       I    between atoms: C33_33  and  N16_90 
REMARK       I    between atoms: C34_34  and  C36_36 
REMARK       I    between atoms: C34_34  and  N16_90 
REMARK       I    between atoms: C36_36  and  O12_67 
REMARK       I    between atoms: C37_37  and  C38_38 
REMARK       I    between atoms: C37_37  and  N17_91 
REMARK       I    between atoms: C42_42  and  C43_43 
REMARK       I    between atoms: C42_42  and  N18_92 
REMARK       I    between atoms: C43_43  and  N19_93 
REMARK       I    between atoms: C45_45  and  C46_46 
REMARK       I    between atoms: C45_45  and  N19_93 
REMARK       I    between atoms: C50_50  and  C51_51 
REMARK       I    between atoms: C50_50  and  N20_94 
REMARK       I    between atoms: C51_51  and  C52_52 
REMARK       I    between atoms: C51_51  and  N24_99 
REMARK       I    between atoms: C52_52  and  C53_53 
REMARK       I    between atoms: C53_53  and  C54_54 
REMARK       I    between atoms: C54_54  and  N21_95 
REMARK       I    between atoms: C55_55  and  N22_97 
REMARK       I    between atoms: C55_55  and  N23_98 
ROOT
HETATM    1  C1  UNL     1       2.017   1.230  -0.187  1.00  0.00     0.042 C 
HETATM    2  C2  UNL     1       3.264   1.263  -1.065  1.00  0.00     0.172 C 
HETATM    3  C3  UNL     1       2.815   1.121  -2.534  1.00  0.00     0.240 C 
HETATM    4  C4  UNL     1       2.371   2.418  -4.631  1.00  0.00     0.180 C 
HETATM    5  C5  UNL     1       3.633   2.152  -5.488  1.00  0.00     0.009 C 
HETATM    6  C6  UNL     1       4.025   0.681  -5.630  1.00  0.00     0.012 C 
HETATM    7  C7  UNL     1       3.508   2.789  -6.879  1.00  0.00     0.012 C 
HETATM    8  C8  UNL     1       1.068   1.690  -5.063  1.00  0.00     0.241 C 
HETATM    9  C9  UNL     1      -1.154   0.971  -4.242  1.00  0.00     0.176 C 
HETATM   10  C10 UNL     1      -0.882  -0.494  -3.877  1.00  0.00     0.036 C 
HETATM   11  C11 UNL     1      -1.942  -1.502  -4.322  1.00  0.00     0.022 C 
HETATM   12  C12 UNL     1      -2.022  -1.687  -5.836  1.00  0.00     0.121 C 
HETATM   13  C13 UNL     1      -2.564   0.076  -7.336  1.00  0.00     0.121 C 
HETATM   14  C14 UNL     1      -2.192   1.598  -3.297  1.00  0.00     0.241 C 
HETATM   15  C15 UNL     1      -4.568   2.187  -3.016  1.00  0.00     0.176 C 
HETATM   16  C16 UNL     1      -5.446   3.271  -3.671  1.00  0.00     0.036 C 
HETATM   17  C17 UNL     1      -5.921   3.072  -5.118  1.00  0.00     0.022 C 
HETATM   18  C18 UNL     1      -7.108   2.123  -5.273  1.00  0.00     0.121 C 
HETATM   19  C19 UNL     1      -6.248  -0.018  -5.818  1.00  0.00     0.121 C 
HETATM   20  C20 UNL     1      -5.271   0.922  -2.458  1.00  0.00     0.241 C 
HETATM   21  C21 UNL     1      -7.034   0.061  -0.923  1.00  0.00     0.200 C 
HETATM   22  C22 UNL     1      -7.776  -0.803  -1.951  1.00  0.00     0.199 C 
HETATM   23  C23 UNL     1      -6.190  -0.827   0.024  1.00  0.00     0.243 C 
HETATM   24  C24 UNL     1      -4.013  -0.927   1.274  1.00  0.00     0.186 C 
HETATM   25  C25 UNL     1      -2.614  -0.443   0.902  1.00  0.00     0.144 C 
HETATM   26  C26 UNL     1      -1.571  -1.255   1.611  1.00  0.00     0.141 C 
HETATM   27  C27 UNL     1      -4.332  -0.626   2.752  1.00  0.00     0.241 C 
HETATM   28  C28 UNL     1      -6.008  -1.015   4.544  1.00  0.00     0.176 C 
HETATM   29  C29 UNL     1      -6.669   0.366   4.725  1.00  0.00     0.036 C 
HETATM   30  C30 UNL     1      -7.653   0.777   3.621  1.00  0.00     0.022 C 
HETATM   31  C31 UNL     1      -9.057   0.191   3.769  1.00  0.00     0.121 C 
HETATM   32  C32 UNL     1      -9.731  -0.768   1.715  1.00  0.00     0.121 C 
HETATM   33  C33 UNL     1      -6.962  -2.170   4.891  1.00  0.00     0.241 C 
HETATM   34  C34 UNL     1      -8.205  -3.283   6.717  1.00  0.00     0.178 C 
HETATM   35  C35 UNL     1      -7.746  -3.966   7.997  1.00  0.00     0.043 C 
HETATM   36  C36 UNL     1      -9.520  -2.543   6.986  1.00  0.00     0.163 C 
HETATM   37  C37 UNL     1       5.326   2.592  -1.264  1.00  0.00     0.241 C 
HETATM   38  C38 UNL     1       6.179   3.631  -0.496  1.00  0.00     0.179 C 
HETATM   39  C39 UNL     1       7.562   3.832  -1.113  1.00  0.00     0.037 C 
HETATM   40  C40 UNL     1       8.393   2.727  -0.474  1.00  0.00     0.022 C 
HETATM   41  C41 UNL     1       7.835   2.633   0.941  1.00  0.00     0.127 C 
HETATM   42  C42 UNL     1       5.525   3.212   1.852  1.00  0.00     0.243 C 
HETATM   43  C43 UNL     1       5.823   2.701   3.282  1.00  0.00     0.172 C 
HETATM   44  C44 UNL     1       6.617   3.745   4.057  1.00  0.00     0.042 C 
HETATM   45  C45 UNL     1       5.798   0.260   2.952  1.00  0.00     0.241 C 
HETATM   46  C46 UNL     1       6.572  -1.074   3.125  1.00  0.00     0.179 C 
HETATM   47  C47 UNL     1       5.602  -2.261   3.101  1.00  0.00     0.037 C 
HETATM   48  C48 UNL     1       5.122  -2.324   4.547  1.00  0.00     0.022 C 
HETATM   49  C49 UNL     1       6.380  -2.000   5.339  1.00  0.00     0.127 C 
HETATM   50  C50 UNL     1       8.509  -0.921   4.823  1.00  0.00     0.253 C 
HETATM   51  C51 UNL     1       9.437  -0.204   3.815  1.00  0.00     0.309 C 
HETATM   52  C52 UNL     1      10.916  -0.565   4.034  1.00  0.00     0.047 C 
HETATM   53  C53 UNL     1      11.247  -2.056   3.876  1.00  0.00     0.022 C 
HETATM   54  C54 UNL     1      10.787  -2.653   2.548  1.00  0.00     0.121 C 
HETATM   55  C55 UNL     1      10.862  -5.002   2.891  1.00  0.00     0.121 C 
HETATM   56  O1  UNL     1       2.486   0.040  -3.016  1.00  0.00    -0.271 OA
HETATM   57  O2  UNL     1       0.862   1.242  -6.190  1.00  0.00    -0.271 OA
HETATM   58  O3  UNL     1      -1.912   1.931  -2.145  1.00  0.00    -0.271 OA
HETATM   59  O4  UNL     1      -4.908  -0.224  -2.729  1.00  0.00    -0.271 OA
HETATM   60  O5  UNL     1      -8.494   0.014  -2.879  1.00  0.00    -0.398 OA
HETATM   61  O6  UNL     1      -6.576  -1.913   0.455  1.00  0.00    -0.271 OA
HETATM   62  O7  UNL     1      -1.715  -2.350   2.127  1.00  0.00    -0.650 OA
HETATM   63  O8  UNL     1      -0.364  -0.657   1.594  1.00  0.00    -0.776 OA
HETATM   64  O9  UNL     1      -3.636   0.094   3.463  1.00  0.00    -0.271 OA
HETATM   65  O10 UNL     1      -7.529  -2.834   4.022  1.00  0.00    -0.271 OA
HETATM   66  O11 UNL     1     -10.579  -3.054   7.314  1.00  0.00    -0.648 OA
HETATM   67  O12 UNL     1      -9.423  -1.196   6.898  1.00  0.00    -0.775 OA
HETATM   68  O13 UNL     1       5.757   1.909  -2.189  1.00  0.00    -0.271 OA
HETATM   69  O14 UNL     1       4.452   3.789   1.622  1.00  0.00    -0.271 OA
HETATM   70  O15 UNL     1       4.705   0.321   2.390  1.00  0.00    -0.271 OA
HETATM   71  O16 UNL     1       8.904  -1.169   5.965  1.00  0.00    -0.271 OA
HETATM   72  N1  UNL     1       2.616   2.324  -3.185  1.00  0.00    -0.346 N 
HETATM   73  N2  UNL     1       0.071   1.749  -4.106  1.00  0.00    -0.346 N 
HETATM   74  N3  UNL     1      -2.949  -0.711  -6.403  1.00  0.00    -0.372 N 
ATOM     75  H3  UNL     1      -3.906  -0.656  -6.054  1.00  0.00     0.161 HD
HETATM   76  N4  UNL     1      -3.451   0.933  -7.886  1.00  0.00    -0.279 NA
HETATM   77  N5  UNL     1      -1.351   0.251  -7.905  1.00  0.00    -0.279 NA
HETATM   78  N6  UNL     1      -3.444   1.784  -3.855  1.00  0.00    -0.346 N 
HETATM   79  N7  UNL     1      -6.671   0.786  -4.920  1.00  0.00    -0.372 N 
ATOM     80  H7  UNL     1      -6.702   0.485  -3.946  1.00  0.00     0.161 HD
HETATM   81  N8  UNL     1      -6.233   0.100  -7.166  1.00  0.00    -0.279 NA
HETATM   82  N9  UNL     1      -5.656  -1.173  -5.451  1.00  0.00    -0.279 NA
HETATM   83  N10 UNL     1      -6.258   1.164  -1.521  1.00  0.00    -0.344 N 
HETATM   84  N11 UNL     1      -5.014  -0.247   0.447  1.00  0.00    -0.345 N 
HETATM   85  N12 UNL     1      -5.487  -1.220   3.203  1.00  0.00    -0.346 N 
HETATM   86  N13 UNL     1      -9.727   0.260   2.476  1.00  0.00    -0.372 N 
ATOM     87  H13 UNL     1     -10.188   1.120   2.181  1.00  0.00     0.161 HD
HETATM   88  N14 UNL     1     -10.327  -0.686   0.507  1.00  0.00    -0.279 NA
HETATM   89  N15 UNL     1      -9.228  -2.011   1.882  1.00  0.00    -0.279 NA
HETATM   90  N16 UNL     1      -7.162  -2.371   6.241  1.00  0.00    -0.345 N 
HETATM   91  N17 UNL     1       4.017   2.498  -0.820  1.00  0.00    -0.346 N 
HETATM   92  N18 UNL     1       6.466   3.119   0.850  1.00  0.00    -0.337 N 
HETATM   93  N19 UNL     1       6.472   1.399   3.327  1.00  0.00    -0.346 N 
HETATM   94  N20 UNL     1       7.218  -1.217   4.440  1.00  0.00    -0.337 N 
HETATM   95  N21 UNL     1      11.383  -3.969   2.352  1.00  0.00    -0.372 N 
ATOM     96  H21 UNL     1      12.222  -4.065   1.780  1.00  0.00     0.161 HD
HETATM   97  N22 UNL     1      11.428  -6.213   2.699  1.00  0.00    -0.279 NA
HETATM   98  N23 UNL     1       9.781  -5.127   3.690  1.00  0.00    -0.279 NA
HETATM   99  N24 UNL     1       9.250   1.257   4.002  1.00  0.00     0.092 N 
HETATM  100  H69 UNL     1      -7.855   0.218  -3.600  1.00  0.00     0.209 HD
HETATM  101  H70 UNL     1       0.223  -1.270   2.083  1.00  0.00     0.167 HD
HETATM  102  H71 UNL     1     -10.340  -0.890   7.067  1.00  0.00     0.167 HD
HETATM  103  H72 UNL     1       3.101   3.101  -2.750  1.00  0.00     0.163 HD
HETATM  104  H73 UNL     1       0.357   1.983  -3.160  1.00  0.00     0.163 HD
HETATM  105  H74 UNL     1      -4.404   0.698  -7.596  1.00  0.00     0.126 HD
HETATM  106  H75 UNL     1      -3.390   0.947  -8.896  1.00  0.00     0.126 HD
HETATM  107  H76 UNL     1      -1.190   1.218  -8.164  1.00  0.00     0.126 HD
HETATM  108  H77 UNL     1      -0.563  -0.019  -7.316  1.00  0.00     0.126 HD
HETATM  109  H78 UNL     1      -3.671   1.194  -4.654  1.00  0.00     0.163 HD
HETATM  110  H79 UNL     1      -6.300  -0.821  -7.592  1.00  0.00     0.126 HD
HETATM  111  H80 UNL     1      -6.972   0.694  -7.522  1.00  0.00     0.126 HD
HETATM  112  H81 UNL     1      -4.734  -1.264  -5.894  1.00  0.00     0.126 HD
HETATM  113  H82 UNL     1      -5.483  -1.164  -4.442  1.00  0.00     0.126 HD
HETATM  114  H83 UNL     1      -6.765   2.035  -1.605  1.00  0.00     0.163 HD
HETATM  115  H84 UNL     1      -4.835   0.706   0.151  1.00  0.00     0.163 HD
HETATM  116  H85 UNL     1      -6.049  -1.758   2.540  1.00  0.00     0.163 HD
HETATM  117  H86 UNL     1     -10.866  -1.515   0.290  1.00  0.00     0.126 HD
HETATM  118  H87 UNL     1     -10.898   0.150   0.449  1.00  0.00     0.126 HD
HETATM  119  H88 UNL     1      -8.692  -2.330   1.077  1.00  0.00     0.126 HD
HETATM  120  H89 UNL     1      -8.654  -2.175   2.709  1.00  0.00     0.126 HD
HETATM  121  H90 UNL     1      -6.936  -1.599   6.857  1.00  0.00     0.163 HD
HETATM  122  H91 UNL     1       3.861   2.929   0.095  1.00  0.00     0.163 HD
HETATM  123  H92 UNL     1       7.400   1.325   3.749  1.00  0.00     0.163 HD
HETATM  124  H93 UNL     1      12.326  -6.099   2.237  1.00  0.00     0.126 HD
HETATM  125  H94 UNL     1      11.543  -6.722   3.567  1.00  0.00     0.126 HD
HETATM  126  H95 UNL     1       9.175  -4.320   3.730  1.00  0.00     0.126 HD
HETATM  127  H96 UNL     1       9.258  -5.975   3.504  1.00  0.00     0.126 HD
HETATM  128  H97 UNL     1       9.464   1.459   4.987  1.00  0.00     0.313 HD
HETATM  129  H98 UNL     1       9.990   1.742   3.488  1.00  0.00     0.313 HD
ENDROOT
TORSDOF 45
