REMARK  0 active torsions:
REMARK  status: ('A' for Active; 'I' for Inactive)
REMARK       I    between atoms: C2_2  and  C3_3 
REMARK       I    between atoms: C3_3  and  C5_5 
REMARK       I    between atoms: C5_5  and  C6_6 
REMARK       I    between atoms: C5_5  and  N3_90 
REMARK       I    between atoms: C6_6  and  C7_7 
REMARK       I    between atoms: C6_6  and  O5_78 
REMARK       I    between atoms: C7_7  and  C8_8 
REMARK       I    between atoms: C8_8  and  N1_88 
REMARK       I    between atoms: C12_12  and  C13_13 
REMARK       I    between atoms: C13_13  and  C14_14 
REMARK       I    between atoms: C13_13  and  O4_77 
REMARK       I    between atoms: C14_14  and  C16_16 
REMARK       I    between atoms: C16_16  and  N2_89 
REMARK       I    between atoms: C17_17  and  C19_19 
REMARK       I    between atoms: C17_17  and  N2_89 
REMARK       I    between atoms: C19_19  and  C20_20 
REMARK       I    between atoms: C19_19  and  O3_76 
REMARK       I    between atoms: C29_29  and  C30_30 
REMARK       I    between atoms: C29_29  and  N3_90 
REMARK       I    between atoms: C30_30  and  C31_31 
REMARK       I    between atoms: C30_30  and  N4_91 
REMARK       I    between atoms: C34_34  and  C35_35 
REMARK       I    between atoms: C34_34  and  N4_91 
REMARK       I    between atoms: C35_35  and  C36_36 
REMARK       I    between atoms: C35_35  and  N5_92 
REMARK       I    between atoms: C40_40  and  O9_82 
REMARK       I    between atoms: C40_40  and  N5_92 
REMARK       I    between atoms: C41_41  and  C42_42 
REMARK       I    between atoms: C41_41  and  O9_82 
REMARK       I    between atoms: C45_45  and  N6_93 
REMARK       I    between atoms: C48_48  and  C49_49 
REMARK       I    between atoms: C48_48  and  N6_93 
REMARK       I    between atoms: C49_49  and  C50_50 
REMARK       I    between atoms: C49_49  and  N9_96 
REMARK       I    between atoms: C50_50  and  C51_51 
REMARK       I    between atoms: C51_51  and  C52_52 
REMARK       I    between atoms: C52_52  and  N7_94 
REMARK       I    between atoms: C53_53  and  N7_94 
REMARK       I    between atoms: C53_53  and  N8_95 
REMARK       I    between atoms: C54_54  and  C55_55 
REMARK       I    between atoms: C54_54  and  N9_96 
REMARK       I    between atoms: C55_55  and  C56_56 
REMARK       I    between atoms: C55_55  and  N10_97 
REMARK       I    between atoms: C59_59  and  O14_87 
REMARK       I    between atoms: C59_59  and  N10_97 
REMARK       I    between atoms: C60_60  and  C61_61 
REMARK       I    between atoms: C60_60  and  O14_87 
ROOT
HETATM    1  C1  UNL     1      -2.229  -2.081  -0.669  1.00  0.00     0.005 C 
HETATM    2  C2  UNL     1      -1.020  -2.009   0.255  1.00  0.00     0.002 C 
HETATM    3  C3  UNL     1       0.286  -1.549  -0.441  1.00  0.00     0.006 C 
HETATM    4  C4  UNL     1       0.633  -2.477  -1.614  1.00  0.00     0.012 C 
HETATM    5  C5  UNL     1       1.465  -1.472   0.590  1.00  0.00     0.119 C 
HETATM    6  C6  UNL     1       2.888  -1.161  -0.011  1.00  0.00     0.152 C 
HETATM    7  C7  UNL     1       2.958   0.091  -0.899  1.00  0.00     0.137 C 
HETATM    8  C8  UNL     1       4.036  -0.054  -1.963  1.00  0.00     0.222 C 
HETATM    9  C9  UNL     1       4.238   2.450  -2.090  1.00  0.00     0.126 C 
HETATM   10  C10 UNL     1       4.707   3.200  -3.325  1.00  0.00     0.022 C 
HETATM   11  C11 UNL     1       6.056   2.561  -3.615  1.00  0.00     0.029 C 
HETATM   12  C12 UNL     1       5.848   1.078  -3.246  1.00  0.00     0.117 C 
HETATM   13  C13 UNL     1       7.173   0.419  -2.745  1.00  0.00     0.156 C 
HETATM   14  C14 UNL     1       7.670   0.924  -1.364  1.00  0.00     0.105 C 
HETATM   15  C15 UNL     1       7.009   0.288  -0.139  1.00  0.00     0.022 C 
HETATM   16  C16 UNL     1       9.177   0.706  -1.300  1.00  0.00     0.224 C 
HETATM   17  C17 UNL     1      10.977  -0.991  -1.449  1.00  0.00     0.113 C 
HETATM   18  C18 UNL     1      11.165  -2.395  -0.870  1.00  0.00     0.035 C 
HETATM   19  C19 UNL     1      11.397  -0.888  -2.951  1.00  0.00     0.173 C 
HETATM   20  C20 UNL     1      12.878  -1.025  -3.286  1.00  0.00    -0.028 A 
HETATM   21  C21 UNL     1      13.256  -1.254  -4.624  1.00  0.00     0.010 A 
HETATM   22  C22 UNL     1      14.599  -1.365  -4.990  1.00  0.00     0.001 A 
HETATM   23  C23 UNL     1      15.594  -1.232  -4.027  1.00  0.00     0.000 A 
HETATM   24  C24 UNL     1      15.245  -0.977  -2.704  1.00  0.00     0.001 A 
HETATM   25  C25 UNL     1      13.899  -0.865  -2.338  1.00  0.00     0.010 A 
HETATM   26  C26 UNL     1       7.091  -1.657  -3.957  1.00  0.00     0.202 C 
HETATM   27  C27 UNL     1       4.324  -2.144   1.644  1.00  0.00     0.202 C 
HETATM   28  C28 UNL     1       1.098   0.823   1.559  1.00  0.00     0.153 C 
HETATM   29  C29 UNL     1       1.043  -1.238   3.012  1.00  0.00     0.243 C 
HETATM   30  C30 UNL     1       1.143  -0.441   4.350  1.00  0.00     0.180 C 
HETATM   31  C31 UNL     1      -0.246  -0.266   5.016  1.00  0.00     0.009 C 
HETATM   32  C32 UNL     1      -1.194   0.675   4.275  1.00  0.00     0.012 C 
HETATM   33  C33 UNL     1      -0.101   0.193   6.472  1.00  0.00     0.012 C 
HETATM   34  C34 UNL     1       3.320   0.748   4.397  1.00  0.00     0.241 C 
HETATM   35  C35 UNL     1       4.003   2.100   4.055  1.00  0.00     0.184 C 
HETATM   36  C36 UNL     1       5.463   2.273   4.554  1.00  0.00     0.010 C 
HETATM   37  C37 UNL     1       5.724   1.823   5.995  1.00  0.00     0.012 C 
HETATM   38  C38 UNL     1       6.447   1.560   3.617  1.00  0.00     0.012 C 
HETATM   39  C39 UNL     1       2.890   3.586   5.782  1.00  0.00     0.156 C 
HETATM   40  C40 UNL     1       2.635   4.043   3.349  1.00  0.00     0.363 C 
HETATM   41  C41 UNL     1       1.143   5.790   2.787  1.00  0.00     0.219 C 
HETATM   42  C42 UNL     1      -0.122   5.041   2.452  1.00  0.00    -0.034 A 
HETATM   43  C43 UNL     1      -1.177   4.979   3.368  1.00  0.00     0.011 A 
HETATM   44  C44 UNL     1      -2.304   4.197   3.097  1.00  0.00     0.030 A 
HETATM   45  C45 UNL     1      -2.387   3.449   1.916  1.00  0.00     0.034 A 
HETATM   46  C46 UNL     1      -1.352   3.541   0.987  1.00  0.00     0.030 A 
HETATM   47  C47 UNL     1      -0.228   4.329   1.253  1.00  0.00     0.011 A 
HETATM   48  C48 UNL     1      -3.741   1.688   0.756  1.00  0.00     0.245 C 
HETATM   49  C49 UNL     1      -5.025   0.857   0.988  1.00  0.00     0.177 C 
HETATM   50  C50 UNL     1      -4.775  -0.173   2.097  1.00  0.00     0.036 C 
HETATM   51  C51 UNL     1      -5.931  -1.149   2.346  1.00  0.00     0.022 C 
HETATM   52  C52 UNL     1      -7.271  -0.461   2.602  1.00  0.00     0.124 C 
HETATM   53  C53 UNL     1      -8.332  -1.717   4.408  1.00  0.00     0.291 C 
HETATM   54  C54 UNL     1      -6.395   0.713  -1.061  1.00  0.00     0.241 C 
HETATM   55  C55 UNL     1      -6.584  -0.007  -2.415  1.00  0.00     0.182 C 
HETATM   56  C56 UNL     1      -5.728   0.577  -3.561  1.00  0.00     0.009 C 
HETATM   57  C57 UNL     1      -4.258   0.171  -3.446  1.00  0.00     0.012 C 
HETATM   58  C58 UNL     1      -5.839   2.099  -3.698  1.00  0.00     0.012 C 
HETATM   59  C59 UNL     1      -8.886  -0.834  -2.231  1.00  0.00     0.361 C 
HETATM   60  C60 UNL     1     -11.192  -1.230  -1.913  1.00  0.00     0.194 C 
HETATM   61  C61 UNL     1     -11.484  -2.383  -2.882  1.00  0.00     0.078 A 
HETATM   62  C62 UNL     1     -12.365  -1.946  -4.051  1.00  0.00    -0.036 A 
HETATM   63  C63 UNL     1     -12.103  -0.984  -5.015  1.00  0.00     0.009 A 
HETATM   64  C64 UNL     1     -13.068  -0.758  -5.998  1.00  0.00     0.001 A 
HETATM   65  C65 UNL     1     -14.268  -1.490  -6.010  1.00  0.00     0.001 A 
HETATM   66  C66 UNL     1     -14.522  -2.463  -5.039  1.00  0.00     0.013 A 
HETATM   67  C67 UNL     1     -13.566  -2.688  -4.062  1.00  0.00    -0.018 A 
HETATM   68  C68 UNL     1     -13.551  -3.622  -2.956  1.00  0.00    -0.018 A 
HETATM   69  C69 UNL     1     -14.487  -4.561  -2.556  1.00  0.00     0.013 A 
HETATM   70  C70 UNL     1     -14.199  -5.357  -1.442  1.00  0.00     0.001 A 
HETATM   71  C71 UNL     1     -12.987  -5.212  -0.747  1.00  0.00     0.001 A 
HETATM   72  C72 UNL     1     -12.043  -4.265  -1.149  1.00  0.00     0.009 A 
HETATM   73  C73 UNL     1     -12.341  -3.471  -2.246  1.00  0.00    -0.036 A 
HETATM   74  O1  UNL     1       4.227  -1.127  -2.534  1.00  0.00    -0.273 OA
HETATM   75  O2  UNL     1       9.969   1.646  -1.292  1.00  0.00    -0.273 OA
HETATM   76  O3  UNL     1      10.646  -1.870  -3.692  1.00  0.00    -0.389 OA
HETATM   77  O4  UNL     1       7.122  -1.019  -2.687  1.00  0.00    -0.388 OA
HETATM   78  O5  UNL     1       3.857  -0.944   1.041  1.00  0.00    -0.388 OA
HETATM   79  O6  UNL     1       0.794  -2.450   3.085  1.00  0.00    -0.271 OA
HETATM   80  O7  UNL     1       3.940  -0.294   4.589  1.00  0.00    -0.271 OA
HETATM   81  O8  UNL     1       2.833   3.813   2.162  1.00  0.00    -0.238 OA
HETATM   82  O9  UNL     1       1.861   5.067   3.797  1.00  0.00    -0.299 OA
HETATM   83  O10 UNL     1      -3.003   1.458  -0.201  1.00  0.00    -0.271 OA
HETATM   84  O11 UNL     1      -7.569  -1.330   5.279  1.00  0.00    -0.254 OA
HETATM   85  O12 UNL     1      -7.098   1.663  -0.715  1.00  0.00    -0.271 OA
HETATM   86  O13 UNL     1      -8.589  -1.883  -1.682  1.00  0.00    -0.239 OA
HETATM   87  O14 UNL     1     -10.146  -0.374  -2.414  1.00  0.00    -0.303 OA
HETATM   88  N1  UNL     1       4.733   1.096  -2.294  1.00  0.00    -0.345 N 
HETATM   89  N2  UNL     1       9.571  -0.613  -1.281  1.00  0.00    -0.354 N 
HETATM   90  N3  UNL     1       1.137  -0.613   1.767  1.00  0.00    -0.347 N 
HETATM   91  N4  UNL     1       1.937   0.782   4.327  1.00  0.00    -0.346 N 
HETATM   92  N5  UNL     1       3.131   3.261   4.382  1.00  0.00    -0.319 N 
HETATM   93  N6  UNL     1      -3.513   2.616   1.761  1.00  0.00    -0.325 N 
HETATM   94  N7  UNL     1      -8.263  -1.398   3.085  1.00  0.00    -0.348 N 
HETATM   95  N8  UNL     1      -9.371  -2.547   4.679  1.00  0.00    -0.254 NA
HETATM   96  N9  UNL     1      -5.395   0.206  -0.263  1.00  0.00    -0.346 N 
HETATM   97  N10 UNL     1      -8.005   0.069  -2.743  1.00  0.00    -0.323 N 
HETATM   98  H96 UNL     1      11.181  -2.683  -3.699  1.00  0.00     0.210 HD
HETATM   99  H97 UNL     1       8.875  -1.270  -1.636  1.00  0.00     0.163 HD
HETATM  100  H98 UNL     1       1.510   1.658   4.054  1.00  0.00     0.163 HD
HETATM  101  H99 UNL     1      -4.206   2.673   2.498  1.00  0.00     0.169 HD
HETATM  102  HA0 UNL     1      -9.143  -1.437   2.590  1.00  0.00     0.163 HD
HETATM  103  HA1 UNL     1      -9.352  -2.891   5.631  1.00  0.00     0.128 HD
HETATM  104  HA2 UNL     1      -9.544  -3.264   3.989  1.00  0.00     0.128 HD
HETATM  105  HA3 UNL     1      -4.670  -0.347  -0.707  1.00  0.00     0.163 HD
HETATM  106  HA4 UNL     1      -8.411   0.989  -2.857  1.00  0.00     0.165 HD
ENDROOT
TORSDOF 37
