REMARK  32 active torsions:
REMARK  status: ('A' for Active; 'I' for Inactive)
REMARK    1  A    between atoms: C2_2  and  C5_5 
REMARK    2  A    between atoms: C5_5  and  C6_6 
REMARK    3  A    between atoms: C5_5  and  N6_51 
REMARK       I    between atoms: C6_6  and  N1_44 
REMARK    4  A    between atoms: C7_7  and  C8_8 
REMARK    5  A    between atoms: C7_7  and  C12_12 
REMARK    6  A    between atoms: C7_7  and  N1_44 
REMARK    7  A    between atoms: C8_8  and  C9_9 
REMARK    8  A    between atoms: C9_9  and  C10_10 
REMARK    9  A    between atoms: C10_10  and  C11_11 
REMARK       I    between atoms: C12_12  and  N3_47 
REMARK   10  A    between atoms: C13_13  and  C14_14 
REMARK   11  A    between atoms: C13_13  and  N3_47 
REMARK   12  A    between atoms: C17_17  and  C20_20 
REMARK   13  A    between atoms: C20_20  and  N5_50 
REMARK   14  A    between atoms: C21_21  and  C22_22 
REMARK       I    between atoms: C21_21  and  N6_51 
REMARK   15  A    between atoms: C22_22  and  C23_23 
REMARK   16  A    between atoms: C22_22  and  N10_56 
REMARK   17  A    between atoms: C23_23  and  C24_24 
REMARK   18  A    between atoms: C24_24  and  C25_25 
REMARK   19  A    between atoms: C25_25  and  N7_52 
REMARK       I    between atoms: C26_26  and  N8_54 
REMARK       I    between atoms: C26_26  and  N9_55 
REMARK   20  A    between atoms: C27_27  and  C28_28 
REMARK       I    between atoms: C27_27  and  N10_56 
REMARK   21  A    between atoms: C28_28  and  C29_29 
REMARK   22  A    between atoms: C28_28  and  N14_61 
REMARK   23  A    between atoms: C29_29  and  C30_30 
REMARK   24  A    between atoms: C30_30  and  C31_31 
REMARK   25  A    between atoms: C31_31  and  N11_57 
REMARK       I    between atoms: C32_32  and  N12_59 
REMARK       I    between atoms: C32_32  and  N13_60 
REMARK   26  A    between atoms: C33_33  and  C34_34 
REMARK       I    between atoms: C33_33  and  N14_61 
REMARK   27  A    between atoms: C34_34  and  C35_35 
REMARK   28  A    between atoms: C34_34  and  N16_63 
REMARK   29  A    between atoms: C35_35  and  C36_36 
REMARK   30  A    between atoms: C36_36  and  C37_37 
REMARK   31  A    between atoms: C37_37  and  C38_38 
REMARK   32  A    between atoms: C38_38  and  N15_62 
ROOT
HETATM    1  C22 UNL     1       0.152   0.375  -1.961  1.00  0.00     0.176 C 
ENDROOT
BRANCH   1   2
HETATM    2  C21 UNL     1       0.378  -0.633  -0.810  1.00  0.00     0.241 C 
HETATM    3  O3  UNL     1      -0.365  -0.692   0.170  1.00  0.00    -0.271 OA
HETATM    4  N6  UNL     1       1.504  -1.430  -0.934  1.00  0.00    -0.345 N 
HETATM    5  H54 UNL     1       1.916  -1.427  -1.859  1.00  0.00     0.163 HD
BRANCH   4   6
HETATM    6  C5  UNL     1       1.510  -2.728  -0.232  1.00  0.00     0.184 C 
BRANCH   6   7
HETATM    7  C2  UNL     1       2.586  -3.706  -0.820  1.00  0.00    -0.022 C 
HETATM    8  C1  UNL     1       2.162  -4.126  -2.247  1.00  0.00     0.017 C 
HETATM    9  C3  UNL     1       3.990  -3.076  -0.906  1.00  0.00     0.017 C 
HETATM   10  C4  UNL     1       2.676  -4.995   0.023  1.00  0.00     0.017 C 
ENDBRANCH   6   7
BRANCH   6  11
HETATM   11  C6  UNL     1       1.619  -2.563   1.309  1.00  0.00     0.241 C 
HETATM   12  O1  UNL     1       0.975  -3.279   2.076  1.00  0.00    -0.271 OA
HETATM   13  N1  UNL     1       2.579  -1.684   1.761  1.00  0.00    -0.346 N 
HETATM   14  H48 UNL     1       2.987  -1.037   1.096  1.00  0.00     0.163 HD
BRANCH  13  15
HETATM   15  C7  UNL     1       2.814  -1.479   3.193  1.00  0.00     0.176 C 
BRANCH  15  16
HETATM   16  C8  UNL     1       3.439  -2.709   3.884  1.00  0.00     0.035 C 
BRANCH  16  17
HETATM   17  C9  UNL     1       4.811  -3.104   3.327  1.00  0.00     0.007 C 
BRANCH  17  18
HETATM   18  C10 UNL     1       5.352  -4.352   4.019  1.00  0.00     0.044 C 
BRANCH  18  19
HETATM   19  C11 UNL     1       6.726  -4.660   3.497  1.00  0.00     0.052 C 
HETATM   20  N2  UNL     1       6.933  -5.644   2.688  1.00  0.00    -0.411 N 
HETATM   21  H49 UNL     1       7.928  -5.686   2.439  1.00  0.00     0.155 HD
ATOM     22  H2  UNL     1       6.216  -6.284   2.347  1.00  0.00     0.155 HD
ENDBRANCH  18  19
ENDBRANCH  17  18
ENDBRANCH  16  17
ENDBRANCH  15  16
BRANCH  15  23
HETATM   23  C12 UNL     1       3.656  -0.212   3.466  1.00  0.00     0.240 C 
HETATM   24  O2  UNL     1       4.368  -0.078   4.459  1.00  0.00    -0.271 OA
HETATM   25  N3  UNL     1       3.466   0.806   2.555  1.00  0.00    -0.355 N 
HETATM   26  H50 UNL     1       2.545   0.844   2.125  1.00  0.00     0.162 HD
BRANCH  25  27
HETATM   27  C13 UNL     1       4.163   2.064   2.717  1.00  0.00     0.161 C 
BRANCH  27  28
HETATM   28  C14 UNL     1       4.404   2.737   1.391  1.00  0.00    -0.040 A 
HETATM   29  C15 UNL     1       4.009   4.065   1.182  1.00  0.00     0.010 A 
HETATM   30  C16 UNL     1       4.249   4.694  -0.045  1.00  0.00     0.015 A 
HETATM   31  C17 UNL     1       4.884   3.999  -1.079  1.00  0.00     0.002 A 
HETATM   32  C18 UNL     1       5.308   2.683  -0.866  1.00  0.00     0.015 A 
HETATM   33  C19 UNL     1       5.073   2.058   0.361  1.00  0.00     0.010 A 
BRANCH  31  34
HETATM   34  C20 UNL     1       5.117   4.640  -2.409  1.00  0.00     0.081 C 
HETATM   35  N4  UNL     1       5.982   4.125  -3.221  1.00  0.00    -0.389 N 
HETATM   36  H51 UNL     1       6.046   4.697  -4.065  1.00  0.00     0.157 HD
ATOM     37  H4  UNL     1       6.519   3.276  -3.045  1.00  0.00     0.157 HD
BRANCH  34  38
HETATM   38  N5  UNL     1       4.413   5.750  -2.781  1.00  0.00    -0.288 NA
HETATM   39  H52 UNL     1       3.492   5.844  -2.366  1.00  0.00     0.125 HD
HETATM   40  H53 UNL     1       4.384   5.934  -3.776  1.00  0.00     0.125 HD
ENDBRANCH  34  38
ENDBRANCH  31  34
ENDBRANCH  27  28
ENDBRANCH  25  27
ENDBRANCH  15  23
ENDBRANCH  13  15
ENDBRANCH   6  11
ENDBRANCH   4   6
ENDBRANCH   1   2
BRANCH   1  41
HETATM   41  C23 UNL     1       1.069   1.599  -1.843  1.00  0.00     0.036 C 
BRANCH  41  42
HETATM   42  C24 UNL     1       1.194   2.216  -0.447  1.00  0.00     0.022 C 
BRANCH  42  43
HETATM   43  C25 UNL     1      -0.111   2.659   0.207  1.00  0.00     0.121 C 
BRANCH  43  44
HETATM   44  N7  UNL     1       0.148   3.138   1.567  1.00  0.00    -0.372 N 
HETATM   45  C26 UNL     1       0.255   2.286   2.515  1.00  0.00     0.121 C 
HETATM   46  N8  UNL     1       0.462   2.718   3.777  1.00  0.00    -0.279 NA
HETATM   47  N9  UNL     1       0.239   0.933   2.495  1.00  0.00    -0.279 NA
HETATM   48  H55 UNL     1       1.168   2.194   4.279  1.00  0.00     0.126 HD
HETATM   49  H56 UNL     1       0.653   3.714   3.787  1.00  0.00     0.126 HD
HETATM   50  H57 UNL     1      -0.140   0.507   1.644  1.00  0.00     0.126 HD
HETATM   51  H58 UNL     1      -0.279   0.552   3.282  1.00  0.00     0.126 HD
ATOM     52  H7  UNL     1       0.242   4.136   1.755  1.00  0.00     0.161 HD
ENDBRANCH  43  44
ENDBRANCH  42  43
ENDBRANCH  41  42
ENDBRANCH   1  41
BRANCH   1  53
HETATM   53  N10 UNL     1      -1.260   0.730  -2.000  1.00  0.00    -0.346 N 
HETATM   54  C27 UNL     1      -1.838   1.304  -3.109  1.00  0.00     0.241 C 
HETATM   55  O4  UNL     1      -1.193   1.609  -4.111  1.00  0.00    -0.271 OA
HETATM   56  H59 UNL     1      -1.884   0.114  -1.467  1.00  0.00     0.163 HD
BRANCH  54  57
HETATM   57  C28 UNL     1      -3.375   1.464  -3.046  1.00  0.00     0.176 C 
BRANCH  57  58
HETATM   58  C29 UNL     1      -3.878   2.017  -1.699  1.00  0.00     0.036 C 
BRANCH  58  59
HETATM   59  C30 UNL     1      -5.317   2.542  -1.795  1.00  0.00     0.022 C 
BRANCH  59  60
HETATM   60  C31 UNL     1      -5.723   3.383  -0.583  1.00  0.00     0.121 C 
BRANCH  60  61
HETATM   61  N11 UNL     1      -5.918   2.524   0.583  1.00  0.00    -0.372 N 
HETATM   62  C32 UNL     1      -6.279   3.098   1.673  1.00  0.00     0.121 C 
HETATM   63  N12 UNL     1      -6.525   2.386   2.797  1.00  0.00    -0.279 NA
HETATM   64  N13 UNL     1      -6.484   4.410   1.932  1.00  0.00    -0.279 NA
HETATM   65  H60 UNL     1      -6.561   1.380   2.607  1.00  0.00     0.126 HD
HETATM   66  H61 UNL     1      -7.388   2.662   3.247  1.00  0.00     0.126 HD
HETATM   67  H62 UNL     1      -6.075   5.041   1.256  1.00  0.00     0.126 HD
HETATM   68  H63 UNL     1      -6.187   4.655   2.871  1.00  0.00     0.126 HD
ATOM     69  H11 UNL     1      -5.774   1.515   0.533  1.00  0.00     0.161 HD
ENDBRANCH  60  61
ENDBRANCH  59  60
ENDBRANCH  58  59
ENDBRANCH  57  58
BRANCH  57  70
HETATM   70  N14 UNL     1      -4.066   0.257  -3.493  1.00  0.00    -0.346 N 
HETATM   71  C33 UNL     1      -4.004  -0.940  -2.810  1.00  0.00     0.251 C 
HETATM   72  O5  UNL     1      -3.199  -1.147  -1.906  1.00  0.00    -0.271 OA
HETATM   73  H64 UNL     1      -4.823   0.382  -4.153  1.00  0.00     0.163 HD
BRANCH  71  74
HETATM   74  C34 UNL     1      -4.983  -2.008  -3.356  1.00  0.00     0.308 C 
BRANCH  74  75
HETATM   75  C35 UNL     1      -5.255  -3.145  -2.359  1.00  0.00     0.045 C 
BRANCH  75  76
HETATM   76  C36 UNL     1      -6.274  -2.795  -1.260  1.00  0.00     0.004 C 
BRANCH  76  77
HETATM   77  C37 UNL     1      -5.828  -1.665  -0.336  1.00  0.00     0.030 C 
BRANCH  77  78
HETATM   78  C38 UNL     1      -6.801  -1.435   0.817  1.00  0.00     0.267 C 
BRANCH  78  79
HETATM   79  N15 UNL     1      -6.337  -0.311   1.630  1.00  0.00     0.078 N 
HETATM   80  H65 UNL     1      -6.167   0.486   0.991  1.00  0.00     0.312 HD
HETATM   81  H66 UNL     1      -5.400  -0.533   1.978  1.00  0.00     0.312 HD
ENDBRANCH  78  79
ENDBRANCH  77  78
ENDBRANCH  76  77
ENDBRANCH  75  76
ENDBRANCH  74  75
BRANCH  74  82
HETATM   82  N16 UNL     1      -4.384  -2.570  -4.586  1.00  0.00     0.092 N 
HETATM   83  H67 UNL     1      -3.539  -3.084  -4.328  1.00  0.00     0.313 HD
HETATM   84  H68 UNL     1      -4.064  -1.809  -5.186  1.00  0.00     0.313 HD
ENDBRANCH  74  82
ENDBRANCH  71  74
ENDBRANCH  57  70
ENDBRANCH  54  57
ENDBRANCH   1  53
TORSDOF 32
