REMARK  12 active torsions:
REMARK  status: ('A' for Active; 'I' for Inactive)
REMARK    1  A    between atoms: C3_3  and  C4_4 
REMARK    2  A    between atoms: C7_7  and  N3_50 
REMARK    3  A    between atoms: C10_10  and  C11_11 
REMARK       I    between atoms: C10_10  and  N3_50 
REMARK    4  A    between atoms: C13_13  and  N6_54 
REMARK    5  A    between atoms: C15_15  and  C17_17 
REMARK    6  A    between atoms: C20_20  and  C21_21 
REMARK       I    between atoms: C20_20  and  N6_54 
REMARK    7  A    between atoms: C24_24  and  C27_27 
REMARK       I    between atoms: C27_27  and  N7_55 
REMARK    8  A    between atoms: C28_28  and  N7_55 
REMARK    9  A    between atoms: C30_30  and  C44_44 
REMARK   10  A    between atoms: C32_32  and  C34_34 
REMARK       I    between atoms: C34_34  and  N8_56 
REMARK   11  A    between atoms: C35_35  and  N8_56 
REMARK   12  A    between atoms: C38_38  and  C41_41 
ROOT
HETATM    1  C21 UNL     1      -0.872  -0.286   0.516  1.00  0.00     0.032 A 
HETATM    2  C22 UNL     1      -0.302  -1.051  -0.512  1.00  0.00     0.018 A 
HETATM    3  C23 UNL     1       1.089  -1.123  -0.645  1.00  0.00     0.018 A 
HETATM    4  C24 UNL     1       1.919  -0.430   0.249  1.00  0.00     0.032 A 
HETATM    5  C25 UNL     1       1.347   0.363   1.252  1.00  0.00     0.018 A 
HETATM    6  C26 UNL     1      -0.042   0.434   1.385  1.00  0.00     0.018 A 
ENDROOT
BRANCH   1   7
HETATM    7  C20 UNL     1      -2.349  -0.173   0.691  1.00  0.00     0.256 C 
HETATM    8  N6  UNL     1      -3.063  -1.321   0.400  1.00  0.00    -0.323 N 
HETATM    9  H38 UNL     1      -2.531  -2.149   0.167  1.00  0.00     0.169 HD
HETATM   10  O2  UNL     1      -2.803   0.892   1.089  1.00  0.00    -0.267 OA
BRANCH   8  11
HETATM   11  C13 UNL     1      -4.463  -1.496   0.453  1.00  0.00     0.036 A 
HETATM   12  C12 UNL     1      -5.368  -0.495   0.811  1.00  0.00     0.046 A 
HETATM   13  C11 UNL     1      -6.744  -0.758   0.803  1.00  0.00     0.035 A 
HETATM   14  C16 UNL     1      -7.232  -2.025   0.471  1.00  0.00     0.032 A 
HETATM   15  C15 UNL     1      -6.329  -3.032   0.131  1.00  0.00     0.005 A 
HETATM   16  C14 UNL     1      -4.954  -2.763   0.112  1.00  0.00     0.044 A 
BRANCH  13  17
HETATM   17  C10 UNL     1      -7.686   0.326   1.179  1.00  0.00     0.256 C 
HETATM   18  N3  UNL     1      -8.728   0.499   0.286  1.00  0.00    -0.323 N 
HETATM   19  H36 UNL     1      -8.686  -0.035  -0.573  1.00  0.00     0.169 HD
HETATM   20  O1  UNL     1      -7.464   0.957   2.202  1.00  0.00    -0.267 OA
BRANCH  18  21
HETATM   21  C7  UNL     1      -9.804   1.403   0.396  1.00  0.00     0.035 A 
HETATM   22  C6  UNL     1     -10.699   1.466  -0.681  1.00  0.00     0.030 A 
HETATM   23  C5  UNL     1     -11.797   2.332  -0.650  1.00  0.00     0.017 A 
HETATM   24  C4  UNL     1     -12.014   3.144   0.466  1.00  0.00     0.002 A 
HETATM   25  C9  UNL     1     -11.134   3.075   1.548  1.00  0.00     0.017 A 
HETATM   26  C8  UNL     1     -10.032   2.211   1.511  1.00  0.00     0.030 A 
BRANCH  24  27
HETATM   27  C3  UNL     1     -13.173   4.070   0.514  1.00  0.00     0.086 C 
HETATM   28  N1  UNL     1     -13.574   4.608   1.640  1.00  0.00    -0.379 N 
HETATM   29  C2  UNL     1     -14.743   5.446   1.261  1.00  0.00     0.135 C 
ATOM     30  H1  UNL     1     -13.174   4.480   2.569  1.00  0.00     0.160 HD
HETATM   31  C1  UNL     1     -14.711   5.562  -0.262  1.00  0.00     0.113 C 
HETATM   32  N2  UNL     1     -13.872   4.438  -0.616  1.00  0.00    -0.277 NA
HETATM   33  H35 UNL     1     -13.323   4.546  -1.461  1.00  0.00     0.129 HD
ENDBRANCH  24  27
ENDBRANCH  18  21
ENDBRANCH  13  17
BRANCH  15  34
HETATM   34  C17 UNL     1      -6.811  -4.389  -0.224  1.00  0.00     0.086 C 
HETATM   35  N4  UNL     1      -6.026  -5.256  -0.814  1.00  0.00    -0.379 N 
HETATM   36  C18 UNL     1      -6.877  -6.462  -1.008  1.00  0.00     0.135 C 
ATOM     37  H4  UNL     1      -5.049  -5.132  -1.081  1.00  0.00     0.160 HD
HETATM   38  C19 UNL     1      -8.123  -6.251  -0.147  1.00  0.00     0.113 C 
HETATM   39  N5  UNL     1      -8.087  -4.819   0.060  1.00  0.00    -0.277 NA
HETATM   40  H37 UNL     1      -8.491  -4.496   0.933  1.00  0.00     0.129 HD
ENDBRANCH  15  34
ENDBRANCH   8  11
ENDBRANCH   1   7
BRANCH   4  41
HETATM   41  C27 UNL     1       3.405  -0.475   0.135  1.00  0.00     0.256 C 
HETATM   42  N7  UNL     1       3.924  -1.687  -0.286  1.00  0.00    -0.323 N 
HETATM   43  H39 UNL     1       3.288  -2.475  -0.322  1.00  0.00     0.169 HD
HETATM   44  O3  UNL     1       4.049   0.517   0.457  1.00  0.00    -0.267 OA
BRANCH  42  45
HETATM   45  C28 UNL     1       5.281  -1.985  -0.533  1.00  0.00     0.036 A 
HETATM   46  C29 UNL     1       5.614  -3.326  -0.747  1.00  0.00     0.044 A 
HETATM   47  C30 UNL     1       6.939  -3.702  -1.001  1.00  0.00     0.005 A 
HETATM   48  C31 UNL     1       7.940  -2.730  -1.045  1.00  0.00     0.032 A 
HETATM   49  C32 UNL     1       7.618  -1.384  -0.825  1.00  0.00     0.035 A 
HETATM   50  C33 UNL     1       6.285  -1.016  -0.594  1.00  0.00     0.046 A 
BRANCH  47  51
HETATM   51  C44 UNL     1       7.255  -5.136  -1.225  1.00  0.00     0.086 C 
HETATM   52  N11 UNL     1       6.302  -6.033  -1.322  1.00  0.00    -0.379 N 
HETATM   53  C45 UNL     1       7.019  -7.318  -1.555  1.00  0.00     0.135 C 
ATOM     54  H11 UNL     1       5.295  -5.884  -1.253  1.00  0.00     0.160 HD
HETATM   55  C46 UNL     1       8.490  -7.054  -1.236  1.00  0.00     0.113 C 
HETATM   56  N12 UNL     1       8.541  -5.613  -1.321  1.00  0.00    -0.277 NA
HETATM   57  H42 UNL     1       9.258  -5.153  -0.773  1.00  0.00     0.129 HD
ENDBRANCH  47  51
BRANCH  49  58
HETATM   58  C34 UNL     1       8.722  -0.378  -0.878  1.00  0.00     0.256 C 
HETATM   59  N8  UNL     1       8.523   0.770  -0.131  1.00  0.00    -0.323 N 
HETATM   60  H40 UNL     1       7.698   0.811   0.454  1.00  0.00     0.169 HD
HETATM   61  O4  UNL     1       9.720  -0.658  -1.533  1.00  0.00    -0.267 OA
BRANCH  59  62
HETATM   62  C35 UNL     1       9.380   1.886  -0.032  1.00  0.00     0.035 A 
HETATM   63  C36 UNL     1      10.562   2.033  -0.761  1.00  0.00     0.030 A 
HETATM   64  C37 UNL     1      11.359   3.175  -0.608  1.00  0.00     0.017 A 
HETATM   65  C38 UNL     1      10.979   4.184   0.281  1.00  0.00     0.002 A 
HETATM   66  C39 UNL     1       9.790   4.050   1.002  1.00  0.00     0.017 A 
HETATM   67  C40 UNL     1       8.997   2.909   0.846  1.00  0.00     0.030 A 
BRANCH  65  68
HETATM   68  C41 UNL     1      11.817   5.397   0.462  1.00  0.00     0.086 C 
HETATM   69  N9  UNL     1      11.374   6.444   1.115  1.00  0.00    -0.379 N 
HETATM   70  C42 UNL     1      12.493   7.423   1.059  1.00  0.00     0.135 C 
ATOM     71  H9  UNL     1      10.465   6.561   1.562  1.00  0.00     0.160 HD
HETATM   72  C43 UNL     1      13.722   6.642   0.594  1.00  0.00     0.113 C 
HETATM   73  N10 UNL     1      13.108   5.483  -0.012  1.00  0.00    -0.277 NA
HETATM   74  H41 UNL     1      13.653   4.629   0.004  1.00  0.00     0.129 HD
ENDBRANCH  65  68
ENDBRANCH  59  62
ENDBRANCH  49  58
ENDBRANCH  42  45
ENDBRANCH   4  41
TORSDOF 12
