REMARK  22 active torsions:
REMARK  status: ('A' for Active; 'I' for Inactive)
REMARK    1  A    between atoms: C8_8  and  C49_49 
REMARK    2  A    between atoms: C12_12  and  O15_72 
REMARK    3  A    between atoms: C14_14  and  O14_71 
REMARK    4  A    between atoms: C16_16  and  O13_70 
REMARK    5  A    between atoms: C18_18  and  O12_69 
REMARK    6  A    between atoms: C20_20  and  O11_68 
REMARK    7  A    between atoms: C22_22  and  O10_67 
REMARK    8  A    between atoms: C24_24  and  O9_66 
REMARK    9  A    between atoms: C26_26  and  O8_65 
REMARK   10  A    between atoms: C27_27  and  O7_64 
REMARK   11  A    between atoms: C30_30  and  O6_63 
REMARK   12  A    between atoms: C34_34  and  O5_62 
REMARK   13  A    between atoms: C40_40  and  O4_61 
REMARK   14  A    between atoms: C42_42  and  O3_60 
REMARK   15  A    between atoms: C49_49  and  C51_51 
REMARK   16  A    between atoms: C51_51  and  C52_52 
REMARK   17  A    between atoms: C51_51  and  O17_74 
REMARK   18  A    between atoms: C52_52  and  C53_53 
REMARK   19  A    between atoms: C53_53  and  C54_54 
REMARK       I    between atoms: C54_54  and  N1_75 
REMARK   20  A    between atoms: C55_55  and  C56_56 
REMARK   21  A    between atoms: C55_55  and  N1_75 
REMARK   22  A    between atoms: C56_56  and  N2_76 
ROOT
HETATM    1  C1  UNL     1       3.384  -3.523   1.716  1.00  0.00     0.012 C 
HETATM    2  C2  UNL     1       2.408  -2.354   1.514  1.00  0.00     0.011 C 
HETATM    3  C3  UNL     1       3.188  -1.039   1.240  1.00  0.00     0.010 C 
HETATM    4  C4  UNL     1       4.031  -0.474   2.391  1.00  0.00     0.028 C 
HETATM    5  C5  UNL     1       5.290  -1.230   2.703  1.00  0.00    -0.014 C 
HETATM    6  C6  UNL     1       6.460  -1.230   2.033  1.00  0.00     0.009 C 
HETATM    7  C7  UNL     1       6.693  -0.383   0.824  1.00  0.00     0.289 C 
HETATM    8  C8  UNL     1       7.954  -0.390  -1.224  1.00  0.00     0.141 C 
HETATM    9  C9  UNL     1       7.031  -0.695  -2.429  1.00  0.00     0.060 C 
HETATM   10  C10 UNL     1       5.691  -0.013  -2.334  1.00  0.00    -0.026 C 
HETATM   11  C11 UNL     1       4.511  -0.606  -2.579  1.00  0.00     0.001 C 
HETATM   12  C12 UNL     1       3.149   0.029  -2.449  1.00  0.00     0.143 C 
HETATM   13  C13 UNL     1       3.103   1.301  -1.595  1.00  0.00     0.067 C 
HETATM   14  C14 UNL     1       1.682   1.749  -1.219  1.00  0.00     0.123 C 
HETATM   15  C15 UNL     1       0.908   2.403  -2.364  1.00  0.00     0.064 C 
HETATM   16  C16 UNL     1      -0.272   3.325  -1.994  1.00  0.00     0.126 C 
HETATM   17  C17 UNL     1      -1.456   2.758  -1.156  1.00  0.00     0.040 C 
HETATM   18  C18 UNL     1      -1.212   2.903   0.372  1.00  0.00     0.130 C 
HETATM   19  C19 UNL     1      -2.427   3.292   1.261  1.00  0.00     0.040 C 
HETATM   20  C20 UNL     1      -3.650   2.352   1.125  1.00  0.00     0.126 C 
HETATM   21  C21 UNL     1      -4.508   2.342   2.407  1.00  0.00     0.064 C 
HETATM   22  C22 UNL     1      -5.787   1.499   2.284  1.00  0.00     0.123 C 
HETATM   23  C23 UNL     1      -6.570   1.451   3.609  1.00  0.00     0.063 C 
HETATM   24  C24 UNL     1      -8.095   1.298   3.426  1.00  0.00     0.123 C 
HETATM   25  C25 UNL     1      -8.485   0.165   2.472  1.00  0.00     0.066 C 
HETATM   26  C26 UNL     1      -9.987  -0.162   2.370  1.00  0.00     0.153 C 
HETATM   27  C27 UNL     1     -10.925   0.911   1.733  1.00  0.00     0.170 C 
HETATM   28  C28 UNL     1     -10.395   1.437   0.424  1.00  0.00     0.012 C 
HETATM   29  C29 UNL     1     -10.748   1.096  -0.834  1.00  0.00    -0.056 C 
HETATM   30  C30 UNL     1      -9.943   1.651  -2.004  1.00  0.00     0.153 C 
HETATM   31  C31 UNL     1      -9.044   0.587  -2.694  1.00  0.00     0.037 C 
HETATM   32  C32 UNL     1      -8.135  -0.132  -1.712  1.00  0.00    -0.021 C 
HETATM   33  C33 UNL     1      -8.176  -1.458  -1.496  1.00  0.00     0.002 C 
HETATM   34  C34 UNL     1      -7.288  -2.208  -0.538  1.00  0.00     0.148 C 
HETATM   35  C35 UNL     1      -6.196  -3.086  -1.216  1.00  0.00     0.036 C 
HETATM   36  C36 UNL     1      -5.027  -2.264  -1.728  1.00  0.00    -0.024 C 
HETATM   37  C37 UNL     1      -3.740  -2.648  -1.788  1.00  0.00    -0.030 C 
HETATM   38  C38 UNL     1      -3.191  -3.999  -1.427  1.00  0.00     0.029 C 
HETATM   39  C39 UNL     1      -2.251  -3.981  -0.215  1.00  0.00     0.036 C 
HETATM   40  C40 UNL     1      -0.861  -3.396  -0.515  1.00  0.00     0.124 C 
HETATM   41  C41 UNL     1       0.083  -3.325   0.722  1.00  0.00     0.039 C 
HETATM   42  C42 UNL     1       1.413  -2.600   0.337  1.00  0.00     0.128 C 
HETATM   43  C43 UNL     1       0.313  -4.704   1.350  1.00  0.00     0.015 C 
HETATM   44  C44 UNL     1      -6.756  -3.974  -2.336  1.00  0.00     0.017 C 
HETATM   45  C45 UNL     1      -8.188   1.232  -3.792  1.00  0.00     0.017 C 
HETATM   46  C46 UNL     1     -11.853   0.134  -1.187  1.00  0.00     0.046 C 
HETATM   47  C47 UNL     1      -2.781   4.773   1.060  1.00  0.00     0.015 C 
HETATM   48  C48 UNL     1      -1.838   1.344  -1.617  1.00  0.00     0.015 C 
HETATM   49  C57 UNL     1       7.618  -2.072   2.489  1.00  0.00     0.054 C 
HETATM   50  O1  UNL     1       6.293   0.763   0.690  1.00  0.00    -0.260 OA
HETATM   51  O2  UNL     1       7.425  -1.095  -0.071  1.00  0.00    -0.311 OA
ENDROOT
BRANCH   8  52
HETATM   52  C49 UNL     1       9.425  -0.890  -1.410  1.00  0.00     0.040 C 
HETATM   53  C50 UNL     1       9.946  -0.688  -2.843  1.00  0.00     0.015 C 
BRANCH  52  54
HETATM   54  C51 UNL     1      10.406  -0.200  -0.412  1.00  0.00     0.124 C 
BRANCH  54  55
HETATM   55  C52 UNL     1      11.741  -0.964  -0.263  1.00  0.00     0.041 C 
BRANCH  55  56
HETATM   56  C53 UNL     1      12.952  -0.036  -0.110  1.00  0.00     0.105 C 
BRANCH  56  57
HETATM   57  C54 UNL     1      12.972   0.761   1.180  1.00  0.00     0.217 C 
HETATM   58  O16 UNL     1      12.060   0.735   2.000  1.00  0.00    -0.274 OA
HETATM   59  N1  UNL     1      14.101   1.536   1.313  1.00  0.00    -0.359 N 
HETATM   60  HA0 UNL     1      14.835   1.442   0.623  1.00  0.00     0.162 HD
BRANCH  59  61
HETATM   61  C55 UNL     1      14.395   2.332   2.498  1.00  0.00     0.152 C 
BRANCH  61  62
HETATM   62  C56 UNL     1      13.495   3.572   2.650  1.00  0.00     0.286 C 
BRANCH  62  63
HETATM   63  N2  UNL     1      12.226   3.271   3.308  1.00  0.00     0.079 N 
HETATM   64  HA1 UNL     1      11.867   2.378   2.944  1.00  0.00     0.312 HD
HETATM   65  HA2 UNL     1      11.530   3.973   3.066  1.00  0.00     0.312 HD
ENDBRANCH  62  63
ENDBRANCH  61  62
ENDBRANCH  59  61
ENDBRANCH  56  57
ENDBRANCH  55  56
ENDBRANCH  54  55
BRANCH  54  66
HETATM   66  O17 UNL     1       9.809  -0.103   0.877  1.00  0.00    -0.395 OA
HETATM   67  H99 UNL     1      10.476   0.267   1.496  1.00  0.00     0.210 HD
ENDBRANCH  54  66
ENDBRANCH  52  54
ENDBRANCH   8  52
BRANCH  12  68
HETATM   68  O15 UNL     1       2.684   0.328  -3.760  1.00  0.00    -0.392 OA
HETATM   69  H98 UNL     1       2.822  -0.469  -4.300  1.00  0.00     0.210 HD
ENDBRANCH  12  68
BRANCH  14  70
HETATM   70  O14 UNL     1       1.780   2.659  -0.117  1.00  0.00    -0.395 OA
HETATM   71  H97 UNL     1       2.538   3.250  -0.291  1.00  0.00     0.210 HD
ENDBRANCH  14  70
BRANCH  16  72
HETATM   72  O13 UNL     1      -0.840   3.788  -3.237  1.00  0.00    -0.395 OA
HETATM   73  H96 UNL     1      -0.116   4.132  -3.788  1.00  0.00     0.210 HD
ENDBRANCH  16  72
BRANCH  42  74
HETATM   74  O3  UNL     1       2.102  -3.270  -0.720  1.00  0.00    -0.395 OA
HETATM   75  H86 UNL     1       1.420  -3.554  -1.366  1.00  0.00     0.210 HD
ENDBRANCH  42  74
BRANCH  18  76
HETATM   76  O12 UNL     1      -0.636   1.719   0.930  1.00  0.00    -0.395 OA
HETATM   77  H95 UNL     1       0.334   1.858   0.869  1.00  0.00     0.210 HD
ENDBRANCH  18  76
BRANCH  40  78
HETATM   78  O4  UNL     1      -0.228  -4.157  -1.553  1.00  0.00    -0.395 OA
HETATM   79  H87 UNL     1      -0.345  -5.102  -1.341  1.00  0.00     0.210 HD
ENDBRANCH  40  78
BRANCH  20  80
HETATM   80  O11 UNL     1      -4.456   2.722   0.009  1.00  0.00    -0.395 OA
HETATM   81  H94 UNL     1      -4.871   3.581   0.189  1.00  0.00     0.210 HD
ENDBRANCH  20  80
BRANCH  22  82
HETATM   82  O10 UNL     1      -5.474   0.159   1.907  1.00  0.00    -0.395 OA
HETATM   83  H93 UNL     1      -4.702  -0.138   2.419  1.00  0.00     0.210 HD
ENDBRANCH  22  82
BRANCH  24  84
HETATM   84  O9  UNL     1      -8.616   2.546   2.957  1.00  0.00    -0.395 OA
HETATM   85  H92 UNL     1      -8.355   3.228   3.605  1.00  0.00     0.210 HD
ENDBRANCH  24  84
BRANCH  34  86
HETATM   86  O5  UNL     1      -8.143  -3.063   0.227  1.00  0.00    -0.391 OA
HETATM   87  H88 UNL     1      -8.612  -2.502   0.877  1.00  0.00     0.210 HD
ENDBRANCH  34  86
BRANCH  26  88
HETATM   88  O8  UNL     1     -10.072  -1.392   1.617  1.00  0.00    -0.393 OA
HETATM   89  H91 UNL     1     -10.154  -1.145   0.676  1.00  0.00     0.210 HD
ENDBRANCH  26  88
BRANCH  27  90
HETATM   90  O7  UNL     1     -11.134   2.016   2.604  1.00  0.00    -0.389 OA
HETATM   91  H90 UNL     1     -10.260   2.446   2.708  1.00  0.00     0.210 HD
ENDBRANCH  27  90
BRANCH  30  92
HETATM   92  O6  UNL     1     -10.853   2.215  -2.947  1.00  0.00    -0.391 OA
HETATM   93  H89 UNL     1     -11.423   2.825  -2.447  1.00  0.00     0.210 HD
ENDBRANCH  30  92
TORSDOF 22
