REMARK  12 active torsions:
REMARK  status: ('A' for Active; 'I' for Inactive)
REMARK    1  A    between atoms: C3_3  and  N8_39 
REMARK    2  A    between atoms: C5_5  and  C6_6 
REMARK       I    between atoms: C6_6  and  N2_32 
REMARK    3  A    between atoms: C7_7  and  N2_32 
REMARK    4  A    between atoms: C10_10  and  C12_12 
REMARK       I    between atoms: C12_12  and  N4_34 
REMARK    5  A    between atoms: C13_13  and  C14_14 
REMARK    6  A    between atoms: C13_13  and  N4_34 
REMARK    7  A    between atoms: C14_14  and  N5_35 
REMARK       I    between atoms: C15_15  and  N6_37 
REMARK       I    between atoms: C15_15  and  N7_38 
REMARK    8  A    between atoms: C16_16  and  C17_17 
REMARK       I    between atoms: C16_16  and  N8_39 
REMARK    9  A    between atoms: C19_19  and  N10_41 
REMARK   10  A    between atoms: C22_22  and  C23_23 
REMARK       I    between atoms: C22_22  and  N10_41 
REMARK   11  A    between atoms: C25_25  and  N12_43 
REMARK   12  A    between atoms: C28_28  and  C29_29 
REMARK       I    between atoms: C28_28  and  N12_43 
ROOT
HETATM    1  C1  UNL     1      -2.283   2.610   3.095  1.00  0.00     0.156 C 
HETATM    2  C2  UNL     1      -0.214   1.749   2.007  1.00  0.00     0.120 A 
HETATM    3  C3  UNL     1       0.106   0.840   1.028  1.00  0.00     0.053 A 
HETATM    4  C4  UNL     1      -1.112   0.284   0.575  1.00  0.00     0.066 A 
HETATM    5  C5  UNL     1      -2.166   0.874   1.268  1.00  0.00     0.105 A 
HETATM    6  N1  UNL     1      -1.580   1.763   2.153  1.00  0.00    -0.354 N 
ENDROOT
BRANCH   3   7
HETATM    7  N8  UNL     1       1.407   0.583   0.642  1.00  0.00    -0.320 N 
HETATM    8  C16 UNL     1       1.784  -0.271  -0.379  1.00  0.00     0.273 C 
HETATM    9  O3  UNL     1       0.993  -0.868  -1.105  1.00  0.00    -0.266 OA
HETATM   10  H33 UNL     1       2.122   1.111   1.117  1.00  0.00     0.169 HD
BRANCH   8  11
HETATM   11  C17 UNL     1       3.230  -0.388  -0.547  1.00  0.00     0.105 A 
HETATM   12  C18 UNL     1       4.262  -0.076   0.335  1.00  0.00     0.066 A 
HETATM   13  C19 UNL     1       5.502  -0.371  -0.285  1.00  0.00     0.053 A 
HETATM   14  C20 UNL     1       5.211  -0.868  -1.529  1.00  0.00     0.120 A 
HETATM   15  N9  UNL     1       3.848  -0.889  -1.681  1.00  0.00    -0.354 N 
HETATM   16  C21 UNL     1       3.180  -1.355  -2.879  1.00  0.00     0.156 C 
BRANCH  13  17
HETATM   17  N10 UNL     1       6.743  -0.194   0.296  1.00  0.00    -0.320 N 
HETATM   18  C22 UNL     1       7.964  -0.401  -0.320  1.00  0.00     0.273 C 
HETATM   19  O4  UNL     1       8.130  -0.677  -1.502  1.00  0.00    -0.266 OA
HETATM   20  H34 UNL     1       6.752   0.196   1.227  1.00  0.00     0.169 HD
BRANCH  18  21
HETATM   21  C23 UNL     1       9.086  -0.193   0.579  1.00  0.00     0.105 A 
HETATM   22  C24 UNL     1      10.235   0.539   0.312  1.00  0.00     0.066 A 
HETATM   23  C25 UNL     1      11.063   0.515   1.460  1.00  0.00     0.053 A 
HETATM   24  C26 UNL     1      10.422  -0.266   2.391  1.00  0.00     0.120 A 
HETATM   25  N11 UNL     1       9.256  -0.731   1.838  1.00  0.00    -0.354 N 
HETATM   26  C27 UNL     1       8.404  -1.714   2.475  1.00  0.00     0.156 C 
BRANCH  23  27
HETATM   27  N12 UNL     1      12.279   1.159   1.573  1.00  0.00    -0.321 N 
HETATM   28  C28 UNL     1      13.099   1.155   2.683  1.00  0.00     0.262 C 
HETATM   29  O5  UNL     1      12.868   0.590   3.749  1.00  0.00    -0.267 OA
HETATM   30  H35 UNL     1      12.589   1.672   0.757  1.00  0.00     0.169 HD
BRANCH  28  31
HETATM   31  C29 UNL     1      14.376   1.942   2.495  1.00  0.00     0.069 C 
HETATM   32  C30 UNL     1      15.255   1.998   3.508  1.00  0.00     0.037 C 
HETATM   33 BR1  UNL     1      14.722   2.823   0.880  1.00  0.00    -0.046 Br
ENDBRANCH  28  31
ENDBRANCH  23  27
ENDBRANCH  18  21
ENDBRANCH  13  17
ENDBRANCH   8  11
ENDBRANCH   3   7
BRANCH   5  34
HETATM   34  C6  UNL     1      -3.604   0.637   1.156  1.00  0.00     0.274 C 
HETATM   35  N2  UNL     1      -3.964  -0.059   0.013  1.00  0.00    -0.307 N 
HETATM   36  H27 UNL     1      -3.282  -0.067  -0.734  1.00  0.00     0.170 HD
HETATM   37  O1  UNL     1      -4.396   1.069   1.987  1.00  0.00    -0.266 OA
BRANCH  35  38
HETATM   38  C7  UNL     1      -5.261  -0.386  -0.349  1.00  0.00     0.110 C 
HETATM   39  C8  UNL     1      -5.693  -0.561  -1.647  1.00  0.00     0.051 C 
HETATM   40  C9  UNL     1      -7.088  -0.766  -1.612  1.00  0.00     0.039 C 
HETATM   41  C10 UNL     1      -7.501  -0.766  -0.286  1.00  0.00     0.104 C 
HETATM   42  N3  UNL     1      -6.336  -0.660   0.476  1.00  0.00    -0.333 N 
HETATM   43  C11 UNL     1      -6.279  -0.980   1.890  1.00  0.00     0.158 C 
BRANCH  41  44
HETATM   44  C12 UNL     1      -8.847  -0.894   0.261  1.00  0.00     0.268 C 
HETATM   45  N4  UNL     1      -9.856  -0.827  -0.673  1.00  0.00    -0.354 N 
HETATM   46  H28 UNL     1      -9.647  -0.423  -1.576  1.00  0.00     0.162 HD
HETATM   47  O2  UNL     1      -9.092  -1.032   1.456  1.00  0.00    -0.266 OA
BRANCH  45  48
HETATM   48  C13 UNL     1     -11.247  -0.727  -0.279  1.00  0.00     0.142 C 
BRANCH  48  49
HETATM   49  C14 UNL     1     -12.175  -0.970  -1.471  1.00  0.00     0.141 C 
BRANCH  49  50
HETATM   50  N5  UNL     1     -11.839  -0.020  -2.539  1.00  0.00    -0.370 N 
HETATM   51  C15 UNL     1     -12.478  -0.112  -3.643  1.00  0.00     0.121 C 
HETATM   52  N6  UNL     1     -12.196   0.733  -4.657  1.00  0.00    -0.279 NA
HETATM   53  N7  UNL     1     -13.453  -0.969  -4.016  1.00  0.00    -0.279 NA
HETATM   54  H29 UNL     1     -11.365   1.275  -4.440  1.00  0.00     0.126 HD
HETATM   55  H30 UNL     1     -12.086   0.252  -5.542  1.00  0.00     0.126 HD
HETATM   56  H31 UNL     1     -14.152  -0.522  -4.599  1.00  0.00     0.126 HD
HETATM   57  H32 UNL     1     -13.890  -1.467  -3.252  1.00  0.00     0.126 HD
ATOM     58  H5  UNL     1     -11.119   0.690  -2.405  1.00  0.00     0.161 HD
ENDBRANCH  49  50
ENDBRANCH  48  49
ENDBRANCH  45  48
ENDBRANCH  41  44
ENDBRANCH  35  38
ENDBRANCH   5  34
TORSDOF 12
