REMARK  20 active torsions:
REMARK  status: ('A' for Active; 'I' for Inactive)
REMARK    1  A    between atoms: C5_5  and  N1_39 
REMARK       I    between atoms: C7_7  and  N1_39 
REMARK       I    between atoms: C7_7  and  N2_40 
REMARK    2  A    between atoms: C8_8  and  C9_9 
REMARK    3  A    between atoms: C8_8  and  N2_40 
REMARK    4  A    between atoms: C9_9  and  C10_10 
REMARK    5  A    between atoms: C10_10  and  N3_41 
REMARK       I    between atoms: C11_11  and  N3_41 
REMARK       I    between atoms: C11_11  and  N4_42 
REMARK    6  A    between atoms: C12_12  and  C13_13 
REMARK    7  A    between atoms: C12_12  and  N4_42 
REMARK    8  A    between atoms: C13_13  and  C14_14 
REMARK    9  A    between atoms: C14_14  and  N5_43 
REMARK       I    between atoms: C15_15  and  N5_43 
REMARK       I    between atoms: C15_15  and  N6_44 
REMARK   10  A    between atoms: C16_16  and  N6_44 
REMARK   11  A    between atoms: C18_18  and  N7_45 
REMARK       I    between atoms: C22_22  and  N7_45 
REMARK       I    between atoms: C22_22  and  N8_46 
REMARK   12  A    between atoms: C23_23  and  C24_24 
REMARK   13  A    between atoms: C23_23  and  N8_46 
REMARK   14  A    between atoms: C24_24  and  C25_25 
REMARK   15  A    between atoms: C25_25  and  N9_47 
REMARK       I    between atoms: C26_26  and  N9_47 
REMARK       I    between atoms: C26_26  and  N10_48 
REMARK   16  A    between atoms: C27_27  and  C28_28 
REMARK   17  A    between atoms: C27_27  and  N10_48 
REMARK   18  A    between atoms: C28_28  and  C29_29 
REMARK   19  A    between atoms: C29_29  and  N11_49 
REMARK       I    between atoms: C30_30  and  N11_49 
REMARK       I    between atoms: C30_30  and  N12_50 
REMARK   20  A    between atoms: C31_31  and  N12_50 
ROOT
HETATM    1  C31 UNL     1      14.948  -2.587  -0.845  1.00  0.00     0.037 A 
HETATM    2  C32 UNL     1      16.074  -1.800  -0.570  1.00  0.00     0.029 A 
HETATM    3  C33 UNL     1      17.361  -2.330  -0.685  1.00  0.00     0.004 A 
HETATM    4  C34 UNL     1      17.534  -3.656  -1.073  1.00  0.00     0.023 A 
HETATM    5  C35 UNL     1      16.419  -4.454  -1.343  1.00  0.00     0.046 A 
HETATM    6  C36 UNL     1      15.129  -3.919  -1.227  1.00  0.00     0.052 A 
HETATM    7  C37 UNL     1      16.598  -5.822  -1.737  1.00  0.00     0.099 C 
HETATM    8  N13 UNL     1      16.764  -6.927  -2.051  1.00  0.00    -0.191 NA
ENDROOT
BRANCH   1   9
HETATM    9  N12 UNL     1      13.686  -1.978  -0.698  1.00  0.00    -0.309 N 
HETATM   10  C30 UNL     1      12.458  -2.496  -1.047  1.00  0.00     0.320 C 
HETATM   11  N11 UNL     1      11.445  -1.632  -0.669  1.00  0.00    -0.343 N 
HETATM   12  O6  UNL     1      12.245  -3.553  -1.625  1.00  0.00    -0.247 OA
HETATM   13  H47 UNL     1      11.625  -1.149   0.199  1.00  0.00     0.164 HD
HETATM   14  H48 UNL     1      13.677  -1.001  -0.446  1.00  0.00     0.170 HD
BRANCH  11  15
HETATM   15  C29 UNL     1      10.064  -2.024  -0.881  1.00  0.00     0.126 C 
BRANCH  15  16
HETATM   16  C28 UNL     1       9.124  -0.838  -0.711  1.00  0.00     0.039 C 
BRANCH  16  17
HETATM   17  C27 UNL     1       7.670  -1.264  -0.901  1.00  0.00     0.126 C 
BRANCH  17  18
HETATM   18  N10 UNL     1       6.749  -0.150  -0.776  1.00  0.00    -0.343 N 
HETATM   19  C26 UNL     1       6.454   0.368   0.462  1.00  0.00     0.316 C 
HETATM   20  N9  UNL     1       5.484   1.333   0.368  1.00  0.00    -0.343 N 
HETATM   21  O5  UNL     1       6.984   0.016   1.506  1.00  0.00    -0.247 OA
HETATM   22  H45 UNL     1       5.452   1.822  -0.515  1.00  0.00     0.164 HD
HETATM   23  H46 UNL     1       5.951  -0.163  -1.396  1.00  0.00     0.164 HD
BRANCH  20  24
HETATM   24  C25 UNL     1       5.044   2.060   1.543  1.00  0.00     0.126 C 
BRANCH  24  25
HETATM   25  C24 UNL     1       4.002   1.275   2.336  1.00  0.00     0.039 C 
BRANCH  25  26
HETATM   26  C23 UNL     1       3.647   1.953   3.657  1.00  0.00     0.126 C 
BRANCH  26  27
HETATM   27  N8  UNL     1       3.118   3.299   3.511  1.00  0.00    -0.343 N 
HETATM   28  C22 UNL     1       1.835   3.490   3.024  1.00  0.00     0.320 C 
HETATM   29  N7  UNL     1       1.518   4.832   3.045  1.00  0.00    -0.309 N 
HETATM   30  O4  UNL     1       1.134   2.578   2.611  1.00  0.00    -0.247 OA
HETATM   31  H43 UNL     1       2.315   5.450   3.035  1.00  0.00     0.170 HD
HETATM   32  H44 UNL     1       3.335   3.925   4.273  1.00  0.00     0.164 HD
BRANCH  29  33
HETATM   33  C18 UNL     1       0.260   5.406   2.773  1.00  0.00     0.038 A 
HETATM   34  C17 UNL     1      -0.940   4.686   2.810  1.00  0.00     0.059 A 
HETATM   35  C16 UNL     1      -2.159   5.318   2.541  1.00  0.00     0.038 A 
HETATM   36  C21 UNL     1      -2.168   6.678   2.210  1.00  0.00     0.029 A 
HETATM   37  C20 UNL     1      -0.980   7.407   2.195  1.00  0.00     0.004 A 
HETATM   38  C19 UNL     1       0.228   6.775   2.487  1.00  0.00     0.029 A 
BRANCH  35  39
HETATM   39  N6  UNL     1      -3.398   4.645   2.548  1.00  0.00    -0.309 N 
HETATM   40  C15 UNL     1      -3.677   3.450   3.177  1.00  0.00     0.320 C 
HETATM   41  N5  UNL     1      -4.926   2.994   2.804  1.00  0.00    -0.343 N 
HETATM   42  O3  UNL     1      -2.963   2.859   3.973  1.00  0.00    -0.247 OA
HETATM   43  H41 UNL     1      -5.231   3.269   1.883  1.00  0.00     0.164 HD
HETATM   44  H42 UNL     1      -4.213   5.187   2.309  1.00  0.00     0.170 HD
BRANCH  41  45
HETATM   45  C14 UNL     1      -5.451   1.740   3.313  1.00  0.00     0.126 C 
BRANCH  45  46
HETATM   46  C13 UNL     1      -4.755   0.495   2.763  1.00  0.00     0.039 C 
BRANCH  46  47
HETATM   47  C12 UNL     1      -4.770   0.381   1.239  1.00  0.00     0.126 C 
BRANCH  47  48
HETATM   48  N4  UNL     1      -6.093   0.435   0.639  1.00  0.00    -0.343 N 
HETATM   49  C11 UNL     1      -6.977  -0.605   0.813  1.00  0.00     0.316 C 
HETATM   50  N3  UNL     1      -8.110  -0.401   0.061  1.00  0.00    -0.343 N 
HETATM   51  O2  UNL     1      -6.784  -1.571   1.533  1.00  0.00    -0.247 OA
HETATM   52  H39 UNL     1      -8.348   0.576  -0.023  1.00  0.00     0.164 HD
HETATM   53  H40 UNL     1      -6.123   0.802  -0.301  1.00  0.00     0.164 HD
BRANCH  50  54
HETATM   54  C10 UNL     1      -9.240  -1.309   0.173  1.00  0.00     0.126 C 
BRANCH  54  55
HETATM   55  C9  UNL     1      -9.006  -2.680  -0.460  1.00  0.00     0.039 C 
BRANCH  55  56
HETATM   56  C8  UNL     1      -8.713  -2.627  -1.959  1.00  0.00     0.126 C 
BRANCH  56  57
HETATM   57  N2  UNL     1      -9.786  -2.049  -2.753  1.00  0.00    -0.343 N 
HETATM   58  C7  UNL     1     -10.953  -2.760  -2.972  1.00  0.00     0.320 C 
HETATM   59  N1  UNL     1     -11.797  -2.051  -3.800  1.00  0.00    -0.309 N 
HETATM   60  O1  UNL     1     -11.173  -3.850  -2.467  1.00  0.00    -0.247 OA
HETATM   61  H37 UNL     1     -11.554  -1.080  -3.925  1.00  0.00     0.170 HD
HETATM   62  H38 UNL     1      -9.478  -1.525  -3.559  1.00  0.00     0.164 HD
BRANCH  59  63
HETATM   63  C5  UNL     1     -13.041  -2.467  -4.316  1.00  0.00     0.037 A 
HETATM   64  C4  UNL     1     -13.538  -3.767  -4.195  1.00  0.00     0.052 A 
HETATM   65  C3  UNL     1     -14.783  -4.104  -4.743  1.00  0.00     0.046 A 
HETATM   66  C2  UNL     1     -15.534  -3.139  -5.420  1.00  0.00     0.023 A 
HETATM   67  C38 UNL     1     -15.287  -5.441  -4.617  1.00  0.00     0.099 C 
HETATM   68  C1  UNL     1     -15.042  -1.842  -5.551  1.00  0.00     0.004 A 
HETATM   69  C6  UNL     1     -13.800  -1.510  -5.003  1.00  0.00     0.029 A 
HETATM   70  N14 UNL     1     -15.712  -6.517  -4.529  1.00  0.00    -0.191 NA
ENDBRANCH  59  63
ENDBRANCH  56  57
ENDBRANCH  55  56
ENDBRANCH  54  55
ENDBRANCH  50  54
ENDBRANCH  47  48
ENDBRANCH  46  47
ENDBRANCH  45  46
ENDBRANCH  41  45
ENDBRANCH  35  39
ENDBRANCH  29  33
ENDBRANCH  26  27
ENDBRANCH  25  26
ENDBRANCH  24  25
ENDBRANCH  20  24
ENDBRANCH  17  18
ENDBRANCH  16  17
ENDBRANCH  15  16
ENDBRANCH  11  15
ENDBRANCH   1   9
TORSDOF 20
