REMARK  0 active torsions:
REMARK  status: ('A' for Active; 'I' for Inactive)
REMARK       I    between atoms: C2_2  and  C3_3 
REMARK       I    between atoms: C3_3  and  C4_4 
REMARK       I    between atoms: C4_4  and  N1_59 
REMARK       I    between atoms: C5_5  and  N1_59 
REMARK       I    between atoms: C6_6  and  N8_71 
REMARK       I    between atoms: C7_7  and  N5_66 
REMARK       I    between atoms: C8_8  and  N5_66 
REMARK       I    between atoms: C10_10  and  S1_101 
REMARK       I    between atoms: C15_15  and  N6_67 
REMARK       I    between atoms: C16_16  and  O1_85 
REMARK       I    between atoms: C18_18  and  N7_69 
REMARK       I    between atoms: C20_20  and  C25_25 
REMARK       I    between atoms: C22_22  and  C24_24 
REMARK       I    between atoms: C24_24  and  O2_86 
REMARK       I    between atoms: C25_25  and  O4_88 
REMARK       I    between atoms: C27_27  and  N8_71 
REMARK       I    between atoms: C30_30  and  N9_72 
REMARK       I    between atoms: C33_33  and  N9_72 
REMARK       I    between atoms: C34_34  and  N14_80 
REMARK       I    between atoms: C35_35  and  N13_79 
REMARK       I    between atoms: C36_36  and  C37_37 
REMARK       I    between atoms: C36_36  and  N13_79 
REMARK       I    between atoms: C37_37  and  C38_38 
REMARK       I    between atoms: C40_40  and  N14_80 
REMARK       I    between atoms: C42_42  and  S2_102 
REMARK       I    between atoms: C47_47  and  N15_81 
REMARK       I    between atoms: C48_48  and  O9_93 
REMARK       I    between atoms: C50_50  and  N16_83 
REMARK       I    between atoms: C52_52  and  C57_57 
REMARK       I    between atoms: C54_54  and  C56_56 
REMARK       I    between atoms: C56_56  and  O10_94 
REMARK       I    between atoms: C57_57  and  O12_96 
REMARK       I    between atoms: O2_86  and  O3_87 
REMARK       I    between atoms: O4_88  and  O5_89 
REMARK       I    between atoms: O8_92  and  S1_101 
REMARK       I    between atoms: O10_94  and  O11_95 
REMARK       I    between atoms: O12_96  and  O13_97 
REMARK       I    between atoms: O16_100  and  S2_102 
ROOT
HETATM    1  C1  UNL     1       9.453  -3.515   1.536  1.00  0.00     0.005 C 
HETATM    2  C2  UNL     1       8.671  -3.938   0.303  1.00  0.00    -0.003 C 
HETATM    3  C3  UNL     1       7.164  -3.882   0.548  1.00  0.00     0.014 C 
HETATM    4  C4  UNL     1       6.383  -4.305  -0.699  1.00  0.00     0.095 C 
HETATM    5  C5  UNL     1       4.313  -3.088  -0.355  1.00  0.00     0.186 A 
HETATM    6  C6  UNL     1       2.648  -1.893   0.549  1.00  0.00     0.699 A 
HETATM    7  C7  UNL     1       4.097  -0.906  -0.866  1.00  0.00     0.699 A 
HETATM    8  C8  UNL     1       4.062   1.471  -1.887  1.00  0.00     0.064 A 
HETATM    9  C9  UNL     1       2.813   1.900  -1.415  1.00  0.00     0.056 A 
HETATM   10  C10 UNL     1       2.356   3.186  -1.693  1.00  0.00     0.075 A 
HETATM   11  C11 UNL     1       3.136   4.077  -2.426  1.00  0.00     0.038 A 
HETATM   12  C12 UNL     1       4.389   3.687  -2.909  1.00  0.00    -0.019 A 
HETATM   13  C13 UNL     1       5.153   4.608  -3.649  1.00  0.00     0.021 A 
HETATM   14  C14 UNL     1       6.413   4.279  -4.166  1.00  0.00    -0.030 A 
HETATM   15  C15 UNL     1       6.928   3.000  -3.930  1.00  0.00     0.088 A 
HETATM   16  C16 UNL     1       6.156   2.072  -3.197  1.00  0.00     0.107 A 
HETATM   17  C17 UNL     1       4.877   2.378  -2.655  1.00  0.00     0.037 A 
HETATM   18  C18 UNL     1      10.296   2.213  -4.078  1.00  0.00     0.049 A 
HETATM   19  C19 UNL     1      10.947   2.981  -5.052  1.00  0.00     0.040 A 
HETATM   20  C20 UNL     1      12.211   2.616  -5.535  1.00  0.00    -0.029 A 
HETATM   21  C21 UNL     1      12.820   1.456  -5.035  1.00  0.00     0.019 A 
HETATM   22  C22 UNL     1      12.189   0.676  -4.055  1.00  0.00    -0.029 A 
HETATM   23  C23 UNL     1      10.933   1.074  -3.574  1.00  0.00     0.040 A 
HETATM   24  C24 UNL     1      12.868  -0.552  -3.504  1.00  0.00     0.248 C 
HETATM   25  C25 UNL     1      12.893   3.439  -6.597  1.00  0.00     0.248 C 
HETATM   26  C26 UNL     1       7.195   5.291  -4.953  1.00  0.00     0.050 C 
HETATM   27  C27 UNL     1       0.373  -2.530   1.464  1.00  0.00     0.049 A 
HETATM   28  C28 UNL     1      -0.794  -1.946   1.969  1.00  0.00     0.032 A 
HETATM   29  C29 UNL     1      -1.994  -2.658   2.015  1.00  0.00     0.032 A 
HETATM   30  C30 UNL     1      -2.059  -3.997   1.620  1.00  0.00     0.049 A 
HETATM   31  C31 UNL     1      -0.872  -4.608   1.204  1.00  0.00     0.032 A 
HETATM   32  C32 UNL     1       0.330  -3.886   1.134  1.00  0.00     0.032 A 
HETATM   33  C33 UNL     1      -4.568  -4.208   1.389  1.00  0.00     0.699 A 
HETATM   34  C34 UNL     1      -5.999  -2.545   0.850  1.00  0.00     0.699 A 
HETATM   35  C35 UNL     1      -6.780  -4.526   1.567  1.00  0.00     0.186 A 
HETATM   36  C36 UNL     1      -7.831  -6.726   1.626  1.00  0.00     0.095 C 
HETATM   37  C37 UNL     1      -8.317  -7.091   0.220  1.00  0.00     0.014 C 
HETATM   38  C38 UNL     1      -7.358  -6.759  -0.927  1.00  0.00    -0.003 C 
HETATM   39  C39 UNL     1      -6.061  -7.553  -0.882  1.00  0.00     0.005 C 
HETATM   40  C40 UNL     1      -5.307  -0.210   0.164  1.00  0.00     0.064 A 
HETATM   41  C41 UNL     1      -4.172  -0.497  -0.614  1.00  0.00     0.056 A 
HETATM   42  C42 UNL     1      -3.208   0.480  -0.845  1.00  0.00     0.075 A 
HETATM   43  C43 UNL     1      -3.358   1.758  -0.313  1.00  0.00     0.038 A 
HETATM   44  C44 UNL     1      -4.487   2.080   0.454  1.00  0.00    -0.019 A 
HETATM   45  C45 UNL     1      -4.615   3.380   0.975  1.00  0.00     0.021 A 
HETATM   46  C46 UNL     1      -5.724   3.763   1.742  1.00  0.00    -0.030 A 
HETATM   47  C47 UNL     1      -6.724   2.822   2.008  1.00  0.00     0.088 A 
HETATM   48  C48 UNL     1      -6.602   1.520   1.480  1.00  0.00     0.107 A 
HETATM   49  C49 UNL     1      -5.490   1.105   0.700  1.00  0.00     0.037 A 
HETATM   50  C50 UNL     1      -8.921   3.079   4.672  1.00  0.00     0.049 A 
HETATM   51  C51 UNL     1      -9.315   4.412   4.855  1.00  0.00     0.040 A 
HETATM   52  C52 UNL     1     -10.436   4.735   5.634  1.00  0.00    -0.029 A 
HETATM   53  C53 UNL     1     -11.167   3.698   6.233  1.00  0.00     0.019 A 
HETATM   54  C54 UNL     1     -10.781   2.359   6.077  1.00  0.00    -0.029 A 
HETATM   55  C55 UNL     1      -9.651   2.065   5.299  1.00  0.00     0.040 A 
HETATM   56  C56 UNL     1     -11.554   1.250   6.741  1.00  0.00     0.248 C 
HETATM   57  C57 UNL     1     -10.868   6.170   5.798  1.00  0.00     0.248 C 
HETATM   58  C58 UNL     1      -5.821   5.163   2.279  1.00  0.00     0.050 C 
HETATM   59  N1  UNL     1       4.951  -4.315  -0.457  1.00  0.00    -0.263 NA
HETATM   60  N2  UNL     1       3.248  -3.067   0.429  1.00  0.00    -0.165 N 
ATOM     61  H2  UNL     1       2.911  -3.901   0.910  1.00  0.00     0.187 HD
HETATM   62  N3  UNL     1       3.053  -0.790  -0.062  1.00  0.00    -0.022 N 
ATOM     63  H3  UNL     1       2.583   0.104   0.080  1.00  0.00     0.203 HD
HETATM   64  N4  UNL     1       4.772  -2.037  -1.020  1.00  0.00    -0.165 N 
ATOM     65  H4  UNL     1       5.598  -2.095  -1.616  1.00  0.00     0.187 HD
HETATM   66  N5  UNL     1       4.554   0.180  -1.604  1.00  0.00    -0.190 N 
HETATM   67  N6  UNL     1       8.178   2.617  -4.463  1.00  0.00    -0.297 N 
ATOM     68  H6  UNL     1       8.352   2.401  -5.444  1.00  0.00     0.187 HD
HETATM   69  N7  UNL     1       9.041   2.581  -3.558  1.00  0.00    -0.300 N 
ATOM     70  H7  UNL     1       8.860   2.790  -2.576  1.00  0.00     0.187 HD
HETATM   71  N8  UNL     1       1.515  -1.719   1.352  1.00  0.00    -0.191 N 
HETATM   72  N9  UNL     1      -3.268  -4.696   1.531  1.00  0.00    -0.191 N 
HETATM   73  N10 UNL     1      -4.751  -2.976   0.940  1.00  0.00    -0.022 N 
ATOM     74  H10 UNL     1      -3.964  -2.384   0.675  1.00  0.00     0.203 HD
HETATM   75  N11 UNL     1      -7.047  -3.286   1.179  1.00  0.00    -0.165 N 
ATOM     76  H11 UNL     1      -8.000  -2.925   1.137  1.00  0.00     0.187 HD
HETATM   77  N12 UNL     1      -5.560  -5.034   1.680  1.00  0.00    -0.165 N 
ATOM     78  H12 UNL     1      -5.397  -5.998   1.972  1.00  0.00     0.187 HD
HETATM   79  N13 UNL     1      -7.887  -5.297   1.873  1.00  0.00    -0.263 NA
HETATM   80  N14 UNL     1      -6.248  -1.235   0.425  1.00  0.00    -0.190 N 
HETATM   81  N15 UNL     1      -7.872   3.177   2.749  1.00  0.00    -0.297 N 
ATOM     82  H15 UNL     1      -8.658   3.717   2.386  1.00  0.00     0.187 HD
HETATM   83  N16 UNL     1      -7.785   2.733   3.915  1.00  0.00    -0.300 N 
ATOM     84  H16 UNL     1      -6.996   2.192   4.270  1.00  0.00     0.187 HD
HETATM   85  O1  UNL     1       6.684   0.804  -3.017  1.00  0.00    -0.357 OA
HETATM   86  O2  UNL     1      13.921  -0.175  -2.614  1.00  0.00    -0.239 OA
HETATM   87  O3  UNL     1      13.293   0.110  -1.328  1.00  0.00    -0.250 OA
HETATM   88  O4  UNL     1      12.816   2.773  -7.860  1.00  0.00    -0.239 OA
HETATM   89  O5  UNL     1      11.498   3.078  -8.408  1.00  0.00    -0.250 OA
HETATM   90  O6  UNL     1       0.257   2.732  -0.177  1.00  0.00    -0.598 OA
HETATM   91  O7  UNL     1       0.914   5.110  -0.693  1.00  0.00    -0.598 OA
HETATM   92  O8  UNL     1      -0.159   3.680  -2.407  1.00  0.00    -0.292 OA
HETATM   93  O9  UNL     1      -7.622   0.620   1.737  1.00  0.00    -0.357 OA
HETATM   94  O10 UNL     1     -12.063   0.372   5.735  1.00  0.00    -0.239 OA
HETATM   95  O11 UNL     1     -12.802  -0.663   6.447  1.00  0.00    -0.250 OA
HETATM   96  O12 UNL     1     -11.000   6.469   7.190  1.00  0.00    -0.239 OA
HETATM   97  O13 UNL     1     -11.415   7.864   7.259  1.00  0.00    -0.250 OA
HETATM   98  O14 UNL     1      -2.190  -0.977  -2.764  1.00  0.00    -0.598 OA
HETATM   99  O15 UNL     1      -1.296   1.357  -2.409  1.00  0.00    -0.598 OA
HETATM  100  O16 UNL     1      -0.720  -0.491  -0.873  1.00  0.00    -0.292 OA
HETATM  101  S1  UNL     1       0.776   3.726  -1.094  1.00  0.00     0.129 S 
HETATM  102  S2  UNL     1      -1.820   0.108  -1.882  1.00  0.00     0.129 S 
HETATM  103  H49 UNL     1       4.636  -4.886   0.319  1.00  0.00     0.130 HD
HETATM  104  H50 UNL     1       5.403  -0.063  -2.109  1.00  0.00     0.184 HD
HETATM  105  H51 UNL     1       1.286  -0.731   1.286  1.00  0.00     0.184 HD
HETATM  106  H52 UNL     1      -3.259  -5.680   1.751  1.00  0.00     0.184 HD
HETATM  107  H53 UNL     1      -8.709  -4.815   1.529  1.00  0.00     0.130 HD
HETATM  108  H54 UNL     1      -7.107  -0.903   0.861  1.00  0.00     0.184 HD
HETATM  109  H55 UNL     1       7.578   0.835  -3.413  1.00  0.00     0.217 HD
HETATM  110  H56 UNL     1      13.420   1.077  -1.359  1.00  0.00     0.253 HD
HETATM  111  H57 UNL     1      11.117   2.191  -8.268  1.00  0.00     0.253 HD
HETATM  112  H58 UNL     1      -0.566   2.775  -2.480  1.00  0.00     0.232 HD
HETATM  113  H59 UNL     1      -8.240   1.085   2.338  1.00  0.00     0.217 HD
HETATM  114  H60 UNL     1     -13.662  -0.494   6.020  1.00  0.00     0.253 HD
HETATM  115  H61 UNL     1     -10.653   8.177   7.780  1.00  0.00     0.253 HD
HETATM  116  H62 UNL     1      -0.813  -1.470  -0.851  1.00  0.00     0.232 HD
ENDROOT
TORSDOF 38
