REMARK  15 active torsions:
REMARK  status: ('A' for Active; 'I' for Inactive)
REMARK    1  A    between atoms: C2_2  and  C3_3 
REMARK    2  A    between atoms: C3_3  and  C4_4 
REMARK    3  A    between atoms: C7_7  and  C8_8 
REMARK    4  A    between atoms: C7_7  and  N2_46 
REMARK    5  A    between atoms: C11_11  and  C14_14 
REMARK    6  A    between atoms: C19_19  and  C20_20 
REMARK    7  A    between atoms: C23_23  and  C24_24 
REMARK    8  A    between atoms: C23_23  and  N7_53 
REMARK    9  A    between atoms: C24_24  and  O3_61 
REMARK   10  A    between atoms: C25_25  and  O3_61 
REMARK   11  A    between atoms: C31_31  and  C33_33 
REMARK   12  A    between atoms: C33_33  and  O4_62 
REMARK   13  A    between atoms: C34_34  and  O4_62 
REMARK   14  A    between atoms: C37_37  and  C40_40 
REMARK   15  A    between atoms: C40_40  and  C41_41 
ROOT
HETATM    1  C4  UNL     1      -4.166  -3.211  -1.008  1.00  0.00     0.085 A 
HETATM    2  C5  UNL     1      -2.857  -2.294  -2.446  1.00  0.00     0.136 A 
HETATM    3  C6  UNL     1      -3.180  -1.295  -1.554  1.00  0.00     0.139 A 
HETATM    4  C21 UNL     1      -2.712   0.059  -1.662  1.00  0.00     0.291 C 
HETATM    5  C22 UNL     1      -1.986  -2.059  -3.584  1.00  0.00     0.289 C 
HETATM    6  N1  UNL     1      -3.468  -3.471  -2.099  1.00  0.00    -0.339 N 
ATOM      7  H1  UNL     1      -3.398  -4.365  -2.584  1.00  0.00     0.167 HD
HETATM    8  N2  UNL     1      -3.992  -1.894  -0.618  1.00  0.00    -0.326 N 
HETATM    9  N7  UNL     1      -1.877   0.278  -2.769  1.00  0.00    -0.251 N 
HETATM   10  N8  UNL     1      -1.463  -0.775  -3.640  1.00  0.00    -0.259 N 
HETATM   11  O1  UNL     1      -3.027   0.949  -0.879  1.00  0.00    -0.264 OA
HETATM   12  O2  UNL     1      -1.709  -2.886  -4.448  1.00  0.00    -0.264 OA
HETATM   13  H38 UNL     1      -0.990  -0.537  -4.504  1.00  0.00     0.190 HD
ENDROOT
BRANCH   9  14
HETATM   14  C23 UNL     1      -1.103   1.509  -2.907  1.00  0.00     0.179 C 
BRANCH  14  15
HETATM   15  C24 UNL     1       0.263   1.429  -2.214  1.00  0.00     0.197 C 
BRANCH  15  16
HETATM   16  O3  UNL     1       0.070   1.389  -0.801  1.00  0.00    -0.349 OA
BRANCH  16  17
HETATM   17  C25 UNL     1       1.182   1.293  -0.009  1.00  0.00     0.071 A 
HETATM   18  C26 UNL     1       2.503   1.209  -0.468  1.00  0.00     0.068 A 
HETATM   19  C27 UNL     1       3.516   1.111   0.500  1.00  0.00     0.065 A 
HETATM   20  C28 UNL     1       3.251   1.104   1.866  1.00  0.00     0.060 A 
HETATM   21  N10 UNL     1       4.887   1.005   0.426  1.00  0.00    -0.337 N 
HETATM   22  C29 UNL     1       1.926   1.190   2.312  1.00  0.00     0.035 A 
HETATM   23  N9  UNL     1       4.408   1.010   2.593  1.00  0.00    -0.342 N 
HETATM   24  C30 UNL     1       0.903   1.282   1.361  1.00  0.00     0.039 A 
HETATM   25  C31 UNL     1       5.390   0.972   1.711  1.00  0.00     0.108 A 
ATOM     26  H9  UNL     1       4.494   0.976   3.609  1.00  0.00     0.167 HD
HETATM   27  C32 UNL     1       5.662   0.949  -0.791  1.00  0.00     0.158 C 
BRANCH  25  28
HETATM   28  C33 UNL     1       6.845   0.868   2.044  1.00  0.00     0.252 C 
BRANCH  28  29
HETATM   29  O4  UNL     1       7.519   1.917   1.350  1.00  0.00    -0.344 OA
BRANCH  29  30
HETATM   30  C34 UNL     1       8.881   1.961   1.465  1.00  0.00     0.069 A 
HETATM   31  C35 UNL     1       9.497   2.956   0.705  1.00  0.00     0.037 A 
HETATM   32  C36 UNL     1      10.885   3.113   0.722  1.00  0.00     0.010 A 
HETATM   33  C37 UNL     1      11.680   2.271   1.507  1.00  0.00    -0.056 A 
HETATM   34  C38 UNL     1      11.058   1.277   2.275  1.00  0.00     0.010 A 
HETATM   35  C39 UNL     1       9.667   1.124   2.255  1.00  0.00     0.037 A 
BRANCH  33  36
HETATM   36  C40 UNL     1      13.183   2.424   1.524  1.00  0.00     0.063 C 
BRANCH  36  37
HETATM   37  C41 UNL     1      13.911   1.382   0.671  1.00  0.00     0.153 C 
HETATM   38  C42 UNL     1      15.405   1.453   0.908  1.00  0.00     0.239 C 
HETATM   39  N11 UNL     1      16.109   1.503  -0.256  1.00  0.00    -0.287 N 
HETATM   40  O5  UNL     1      15.940   1.460   2.009  1.00  0.00    -0.272 OA
HETATM   41  C43 UNL     1      15.432   1.697  -1.411  1.00  0.00     0.287 C 
HETATM   42  H39 UNL     1      17.113   1.585  -0.246  1.00  0.00     0.172 HD
HETATM   43  O6  UNL     1      15.937   1.907  -2.500  1.00  0.00    -0.260 OA
HETATM   44  S1  UNL     1      13.714   1.649  -1.127  1.00  0.00    -0.054 SA
ENDBRANCH  36  37
ENDBRANCH  33  36
ENDBRANCH  29  30
ENDBRANCH  28  29
ENDBRANCH  25  28
ENDBRANCH  16  17
ENDBRANCH  15  16
ENDBRANCH  14  15
ENDBRANCH   9  14
BRANCH   8  45
HETATM   45  C7  UNL     1      -4.481  -1.287   0.616  1.00  0.00     0.169 C 
BRANCH  45  46
HETATM   46  C8  UNL     1      -5.936  -0.883   0.564  1.00  0.00    -0.040 A 
HETATM   47  C9  UNL     1      -6.760  -1.130   1.672  1.00  0.00     0.010 A 
HETATM   48  C10 UNL     1      -8.096  -0.716   1.682  1.00  0.00     0.013 A 
HETATM   49  C11 UNL     1      -8.650  -0.043   0.584  1.00  0.00    -0.025 A 
HETATM   50  C12 UNL     1      -7.822   0.210  -0.520  1.00  0.00     0.013 A 
HETATM   51  C13 UNL     1      -6.482  -0.194  -0.527  1.00  0.00     0.010 A 
BRANCH  49  52
HETATM   52  C14 UNL     1     -10.042   0.445   0.612  1.00  0.00    -0.012 A 
HETATM   53  C15 UNL     1     -10.244   1.843   0.635  1.00  0.00     0.013 A 
HETATM   54  C16 UNL     1     -11.521   2.400   0.709  1.00  0.00     0.001 A 
HETATM   55  C17 UNL     1     -12.632   1.570   0.769  1.00  0.00     0.001 A 
HETATM   56  C18 UNL     1     -12.462   0.186   0.746  1.00  0.00     0.016 A 
HETATM   57  C19 UNL     1     -11.179  -0.396   0.660  1.00  0.00     0.021 A 
BRANCH  57  58
HETATM   58  C20 UNL     1     -11.096  -1.853   0.608  1.00  0.00     0.145 A 
HETATM   59  N3  UNL     1     -11.981  -2.679   1.202  1.00  0.00    -0.271 N 
HETATM   60  N4  UNL     1     -11.485  -3.867   0.830  1.00  0.00    -0.225 N 
ATOM     61  H3  UNL     1     -12.797  -2.461   1.773  1.00  0.00     0.190 HD
HETATM   62  N5  UNL     1     -10.394  -3.834   0.061  1.00  0.00    -0.005 NA
HETATM   63  H37 UNL     1     -11.912  -4.745   1.111  1.00  0.00     0.205 HD
HETATM   64  N6  UNL     1     -10.139  -2.544  -0.098  1.00  0.00    -0.266 N 
ATOM     65  H6  UNL     1      -9.377  -2.139  -0.642  1.00  0.00     0.186 HD
ENDBRANCH  57  58
ENDBRANCH  49  52
ENDBRANCH  45  46
ENDBRANCH   8  45
BRANCH   1  66
HETATM   66  C3  UNL     1      -5.021  -4.212  -0.294  1.00  0.00     0.076 C 
BRANCH  66  67
HETATM   67  C2  UNL     1      -6.053  -4.862  -1.219  1.00  0.00     0.003 C 
HETATM   68  C1  UNL     1      -7.098  -3.880  -1.727  1.00  0.00     0.005 C 
ENDBRANCH  66  67
ENDBRANCH   1  66
TORSDOF 15
