REMARK  0 active torsions:
REMARK  status: ('A' for Active; 'I' for Inactive)
REMARK       I    between atoms: C2_2  and  C3_3 
REMARK       I    between atoms: C3_3  and  N1_56 
REMARK       I    between atoms: C5_5  and  C6_6 
REMARK       I    between atoms: C5_5  and  N1_56 
REMARK       I    between atoms: C6_6  and  N2_57 
REMARK       I    between atoms: C7_7  and  C8_8 
REMARK       I    between atoms: C7_7  and  N2_57 
REMARK       I    between atoms: C8_8  and  O2_68 
REMARK       I    between atoms: C10_10  and  C11_11 
REMARK       I    between atoms: C10_10  and  N2_57 
REMARK       I    between atoms: C11_11  and  N3_58 
REMARK       I    between atoms: C12_12  and  C13_13 
REMARK       I    between atoms: C12_12  and  N3_58 
REMARK       I    between atoms: C13_13  and  O4_70 
REMARK       I    between atoms: C15_15  and  C16_16 
REMARK       I    between atoms: C15_15  and  N3_58 
REMARK       I    between atoms: C16_16  and  N4_59 
REMARK       I    between atoms: C17_17  and  C18_18 
REMARK       I    between atoms: C17_17  and  N4_59 
REMARK       I    between atoms: C18_18  and  N5_60 
REMARK       I    between atoms: C19_19  and  C20_20 
REMARK       I    between atoms: C19_19  and  N5_60 
REMARK       I    between atoms: C20_20  and  N6_61 
REMARK       I    between atoms: C21_21  and  C22_22 
REMARK       I    between atoms: C21_21  and  N6_61 
REMARK       I    between atoms: C22_22  and  O8_74 
REMARK       I    between atoms: C24_24  and  C25_25 
REMARK       I    between atoms: C24_24  and  N6_61 
REMARK       I    between atoms: C25_25  and  N7_62 
REMARK       I    between atoms: C26_26  and  C27_27 
REMARK       I    between atoms: C26_26  and  N7_62 
REMARK       I    between atoms: C27_27  and  O10_76 
REMARK       I    between atoms: C29_29  and  C30_30 
REMARK       I    between atoms: C29_29  and  N7_62 
REMARK       I    between atoms: C30_30  and  N8_63 
REMARK       I    between atoms: C31_31  and  C32_32 
REMARK       I    between atoms: C31_31  and  N8_63 
REMARK       I    between atoms: C32_32  and  N9_64 
REMARK       I    between atoms: C33_33  and  C34_34 
REMARK       I    between atoms: C33_33  and  N9_64 
REMARK       I    between atoms: C34_34  and  N10_65 
REMARK       I    between atoms: C35_35  and  C36_36 
REMARK       I    between atoms: C35_35  and  N10_65 
REMARK       I    between atoms: C36_36  and  O14_80 
REMARK       I    between atoms: C38_38  and  C39_39 
REMARK       I    between atoms: C38_38  and  N10_65 
REMARK       I    between atoms: C39_39  and  N11_66 
REMARK       I    between atoms: C40_40  and  C42_42 
REMARK       I    between atoms: C40_40  and  N9_64 
REMARK       I    between atoms: C44_44  and  C46_46 
REMARK       I    between atoms: C44_44  and  N8_63 
REMARK       I    between atoms: C48_48  and  C50_50 
REMARK       I    between atoms: C48_48  and  N5_60 
REMARK       I    between atoms: C52_52  and  C54_54 
REMARK       I    between atoms: C52_52  and  N4_59 
ROOT
HETATM    1  C1  UNL     1       6.634  -5.597  -1.659  1.00  0.00     0.007 C 
HETATM    2  C2  UNL     1       6.595  -5.697  -0.142  1.00  0.00     0.030 C 
HETATM    3  C3  UNL     1       7.896  -5.318   0.599  1.00  0.00     0.216 C 
HETATM    4  C4  UNL     1       9.022  -6.327   0.351  1.00  0.00     0.042 C 
HETATM    5  C5  UNL     1       9.244  -3.620  -0.635  1.00  0.00     0.372 C 
HETATM    6  C6  UNL     1       9.288  -2.103  -0.881  1.00  0.00     0.248 C 
HETATM    7  C7  UNL     1      10.830  -1.808   1.097  1.00  0.00     0.157 C 
HETATM    8  C8  UNL     1      12.259  -2.262   0.736  1.00  0.00     0.132 C 
HETATM    9  C9  UNL     1      13.179  -1.104   0.373  1.00  0.00     0.041 C 
HETATM   10  C10 UNL     1       9.905   0.149  -0.170  1.00  0.00     0.228 C 
HETATM   11  C11 UNL     1       8.869   0.731   0.815  1.00  0.00     0.238 C 
HETATM   12  C12 UNL     1       8.864   2.906  -0.511  1.00  0.00     0.157 C 
HETATM   13  C13 UNL     1       7.847   3.220  -1.627  1.00  0.00     0.132 C 
HETATM   14  C14 UNL     1       7.348   1.997  -2.383  1.00  0.00     0.041 C 
HETATM   15  C15 UNL     1       7.364   2.544   1.480  1.00  0.00     0.228 C 
HETATM   16  C16 UNL     1       5.946   2.087   1.099  1.00  0.00     0.238 C 
HETATM   17  C17 UNL     1       3.553   2.367   0.964  1.00  0.00     0.229 C 
HETATM   18  C18 UNL     1       3.343   2.672  -0.542  1.00  0.00     0.238 C 
HETATM   19  C19 UNL     1       0.953   1.929  -0.261  1.00  0.00     0.229 C 
HETATM   20  C20 UNL     1       0.171   3.027   0.486  1.00  0.00     0.238 C 
HETATM   21  C21 UNL     1      -1.547   3.661   2.105  1.00  0.00     0.157 C 
HETATM   22  C22 UNL     1      -0.787   3.811   3.441  1.00  0.00     0.132 C 
HETATM   23  C23 UNL     1      -1.413   4.895   4.306  1.00  0.00     0.041 C 
HETATM   24  C24 UNL     1      -1.289   1.238   1.488  1.00  0.00     0.228 C 
HETATM   25  C25 UNL     1      -2.790   0.951   1.634  1.00  0.00     0.238 C 
HETATM   26  C26 UNL     1      -3.133   1.242  -0.868  1.00  0.00     0.157 C 
HETATM   27  C27 UNL     1      -2.903  -0.031  -1.700  1.00  0.00     0.132 C 
HETATM   28  C28 UNL     1      -2.261   0.300  -3.040  1.00  0.00     0.041 C 
HETATM   29  C29 UNL     1      -4.995   0.567   0.686  1.00  0.00     0.228 C 
HETATM   30  C30 UNL     1      -5.106  -0.966   0.850  1.00  0.00     0.238 C 
HETATM   31  C31 UNL     1      -7.418  -0.658   1.777  1.00  0.00     0.229 C 
HETATM   32  C32 UNL     1      -7.983   0.346   0.748  1.00  0.00     0.238 C 
HETATM   33  C33 UNL     1      -8.672  -1.517  -0.810  1.00  0.00     0.229 C 
HETATM   34  C34 UNL     1      -9.964  -2.140  -0.254  1.00  0.00     0.238 C 
HETATM   35  C35 UNL     1      -9.831  -4.001  -1.979  1.00  0.00     0.157 C 
HETATM   36  C36 UNL     1      -8.592  -4.864  -1.674  1.00  0.00     0.132 C 
HETATM   37  C37 UNL     1      -8.916  -6.046  -0.770  1.00  0.00     0.041 C 
HETATM   38  C38 UNL     1     -11.698  -3.843  -0.329  1.00  0.00     0.228 C 
HETATM   39  C39 UNL     1     -12.843  -3.202  -1.123  1.00  0.00     0.233 C 
HETATM   40  C40 UNL     1      -9.184   0.868  -1.367  1.00  0.00     0.083 C 
HETATM   41  C41 UNL     1     -10.359   1.602  -0.712  1.00  0.00     0.032 C 
HETATM   42  C42 UNL     1      -8.150   1.820  -2.001  1.00  0.00     0.020 C 
HETATM   43  C43 UNL     1      -8.709   2.629  -3.163  1.00  0.00     0.007 C 
HETATM   44  C44 UNL     1      -6.134  -2.845   2.007  1.00  0.00     0.083 C 
HETATM   45  C45 UNL     1      -5.402  -2.693   3.348  1.00  0.00     0.032 C 
HETATM   46  C46 UNL     1      -7.403  -3.723   2.114  1.00  0.00     0.020 C 
HETATM   47  C47 UNL     1      -8.188  -3.648   3.420  1.00  0.00     0.007 C 
HETATM   48  C48 UNL     1       1.745   2.865  -2.450  1.00  0.00     0.083 C 
HETATM   49  C49 UNL     1       2.026   4.347  -2.724  1.00  0.00     0.032 C 
HETATM   50  C50 UNL     1       2.428   1.922  -3.458  1.00  0.00     0.020 C 
HETATM   51  C51 UNL     1       1.919   2.093  -4.882  1.00  0.00     0.007 C 
HETATM   52  C52 UNL     1       4.806   4.028   2.388  1.00  0.00     0.083 C 
HETATM   53  C53 UNL     1       5.521   3.777   3.721  1.00  0.00     0.032 C 
HETATM   54  C54 UNL     1       5.258   5.354   1.750  1.00  0.00     0.020 C 
HETATM   55  C55 UNL     1       4.252   5.923   0.759  1.00  0.00     0.007 C 
HETATM   56  N1  UNL     1       8.269  -3.912   0.420  1.00  0.00     0.096 N 
HETATM   57  N2  UNL     1      10.067  -1.305  -0.049  1.00  0.00    -0.340 N 
HETATM   58  N3  UNL     1       8.403   2.023   0.574  1.00  0.00    -0.340 N 
HETATM   59  N4  UNL     1       4.841   2.847   1.491  1.00  0.00    -0.338 N 
HETATM   60  N5  UNL     1       2.059   2.474  -1.059  1.00  0.00    -0.338 N 
HETATM   61  N6  UNL     1      -0.952   2.644   1.220  1.00  0.00    -0.340 N 
HETATM   62  N7  UNL     1      -3.600   0.986   0.503  1.00  0.00    -0.340 N 
HETATM   63  N8  UNL     1      -6.307  -1.521   1.341  1.00  0.00    -0.338 N 
HETATM   64  N9  UNL     1      -8.529  -0.099  -0.452  1.00  0.00    -0.338 N 
HETATM   65  N10 UNL     1     -10.403  -3.342  -0.799  1.00  0.00    -0.340 N 
HETATM   66  N11 UNL     1     -14.029  -3.086  -0.452  1.00  0.00    -0.369 N 
HETATM   67  O1  UNL     1       8.622  -1.622  -1.804  1.00  0.00    -0.271 OA
HETATM   68  O2  UNL     1      12.840  -2.963   1.839  1.00  0.00    -0.394 OA
HETATM   69  O3  UNL     1       8.534   0.106   1.827  1.00  0.00    -0.272 OA
HETATM   70  O4  UNL     1       6.780   4.005  -1.101  1.00  0.00    -0.394 OA
HETATM   71  O5  UNL     1       5.776   1.032   0.475  1.00  0.00    -0.272 OA
HETATM   72  O6  UNL     1       4.272   3.065  -1.254  1.00  0.00    -0.272 OA
HETATM   73  O7  UNL     1       0.545   4.204   0.476  1.00  0.00    -0.272 OA
HETATM   74  O8  UNL     1       0.590   4.148   3.238  1.00  0.00    -0.394 OA
HETATM   75  O9  UNL     1      -3.257   0.709   2.752  1.00  0.00    -0.272 OA
HETATM   76  O10 UNL     1      -2.034  -0.920  -1.000  1.00  0.00    -0.394 OA
HETATM   77  O11 UNL     1      -4.160  -1.694   0.517  1.00  0.00    -0.272 OA
HETATM   78  O12 UNL     1      -7.930   1.548   1.029  1.00  0.00    -0.272 OA
HETATM   79  O13 UNL     1     -10.558  -1.620   0.696  1.00  0.00    -0.272 OA
HETATM   80  O14 UNL     1      -8.062  -5.388  -2.891  1.00  0.00    -0.394 OA
HETATM   81  O15 UNL     1     -12.756  -2.855  -2.298  1.00  0.00    -0.272 OA
HETATM   82  H96 UNL     1       7.434  -3.338   0.280  1.00  0.00     0.316 HD
HETATM   83  H97 UNL     1     -14.750  -2.570  -0.942  1.00  0.00     0.159 HD
HETATM   84  H98 UNL     1     -14.031  -3.003   0.557  1.00  0.00     0.159 HD
HETATM   85  H99 UNL     1      12.811  -2.379   2.617  1.00  0.00     0.210 HD
HETATM   86  HA0 UNL     1       5.923   3.561  -1.304  1.00  0.00     0.210 HD
HETATM   87  HA1 UNL     1       0.659   4.612   2.377  1.00  0.00     0.210 HD
HETATM   88  HA2 UNL     1      -2.608  -1.380  -0.344  1.00  0.00     0.210 HD
HETATM   89  HA3 UNL     1      -7.717  -4.650  -3.421  1.00  0.00     0.210 HD
ENDROOT
TORSDOF 45
