REMARK  0 active torsions:
REMARK  status: ('A' for Active; 'I' for Inactive)
REMARK       I    between atoms: C2_2  and  C4_4 
REMARK       I    between atoms: C4_4  and  C5_5 
REMARK       I    between atoms: C5_5  and  C6_6 
REMARK       I    between atoms: C8_8  and  N8_63 
REMARK       I    between atoms: C9_9  and  S1_75 
REMARK       I    between atoms: C10_10  and  N1_54 
REMARK       I    between atoms: C12_12  and  C13_13 
REMARK       I    between atoms: C12_12  and  N1_54 
REMARK       I    between atoms: C12_12  and  N2_55 
REMARK       I    between atoms: C13_13  and  C14_14 
REMARK       I    between atoms: C13_13  and  N6_61 
REMARK       I    between atoms: C14_14  and  C15_15 
REMARK       I    between atoms: C15_15  and  C16_16 
REMARK       I    between atoms: C16_16  and  N3_57 
REMARK       I    between atoms: C17_17  and  N3_57 
REMARK       I    between atoms: C17_17  and  N5_60 
REMARK       I    between atoms: C18_18  and  C19_19 
REMARK       I    between atoms: C18_18  and  S1_75 
REMARK       I    between atoms: C19_19  and  N7_62 
REMARK       I    between atoms: C20_20  and  C21_21 
REMARK       I    between atoms: C20_20  and  N8_63 
REMARK       I    between atoms: C23_23  and  C29_29 
REMARK       I    between atoms: C25_25  and  O3_50 
REMARK       I    between atoms: C27_27  and  C28_28 
REMARK       I    between atoms: C27_27  and  O3_50 
REMARK       I    between atoms: C28_28  and  N9_64 
REMARK       I    between atoms: C29_29  and  N10_65 
REMARK       I    between atoms: C30_30  and  N10_65 
REMARK       I    between atoms: C31_31  and  S2_76 
REMARK       I    between atoms: C32_32  and  N11_66 
REMARK       I    between atoms: C34_34  and  C36_36 
REMARK       I    between atoms: C36_36  and  O6_53 
REMARK       I    between atoms: C37_37  and  O6_53 
REMARK       I    between atoms: C40_40  and  C41_41 
REMARK       I    between atoms: C40_40  and  N11_66 
REMARK       I    between atoms: C41_41  and  C42_42 
REMARK       I    between atoms: C41_41  and  N16_73 
REMARK       I    between atoms: C42_42  and  C43_43 
REMARK       I    between atoms: C43_43  and  C44_44 
REMARK       I    between atoms: C44_44  and  N13_69 
REMARK       I    between atoms: C45_45  and  N13_69 
REMARK       I    between atoms: C45_45  and  N15_72 
REMARK       I    between atoms: C46_46  and  C47_47 
REMARK       I    between atoms: C46_46  and  S2_76 
REMARK       I    between atoms: C47_47  and  N17_74 
ROOT
HETATM    1  C1  UNL     1      -9.890  -4.344  -3.176  1.00  0.00     0.010 C 
HETATM    2  C2  UNL     1      -8.721  -5.295  -3.428  1.00  0.00    -0.015 C 
HETATM    3  C3  UNL     1      -8.853  -5.988  -4.784  1.00  0.00     0.010 C 
HETATM    4  C4  UNL     1      -7.353  -4.617  -3.230  1.00  0.00     0.087 C 
HETATM    5  C5  UNL     1      -7.064  -3.404  -4.107  1.00  0.00     0.160 C 
HETATM    6  C6  UNL     1      -5.959  -2.483  -3.701  1.00  0.00     0.014 A 
HETATM    7  C7  UNL     1      -4.939  -2.897  -2.835  1.00  0.00     0.046 A 
HETATM    8  C8  UNL     1      -3.915  -2.019  -2.471  1.00  0.00     0.055 A 
HETATM    9  C9  UNL     1      -3.904  -0.712  -3.015  1.00  0.00     0.054 A 
HETATM   10  C10 UNL     1      -4.918  -0.289  -3.911  1.00  0.00     0.053 A 
HETATM   11  C11 UNL     1      -5.946  -1.184  -4.224  1.00  0.00     0.046 A 
HETATM   12  C12 UNL     1      -5.937   1.871  -4.680  1.00  0.00     0.108 C 
HETATM   13  C13 UNL     1      -5.622   3.325  -5.154  1.00  0.00     0.284 C 
HETATM   14  C14 UNL     1      -4.270   3.865  -4.672  1.00  0.00     0.045 C 
HETATM   15  C15 UNL     1      -4.157   5.385  -4.829  1.00  0.00     0.022 C 
HETATM   16  C16 UNL     1      -2.753   5.921  -4.541  1.00  0.00     0.122 C 
HETATM   17  C17 UNL     1      -2.727   5.885  -2.050  1.00  0.00     0.143 C 
HETATM   18  C18 UNL     1      -3.337   1.357  -1.231  1.00  0.00     0.109 C 
HETATM   19  C19 UNL     1      -3.498   0.552   0.067  1.00  0.00     0.277 C 
HETATM   20  C20 UNL     1      -2.719  -3.561  -0.880  1.00  0.00     0.256 C 
HETATM   21  C21 UNL     1      -1.523  -3.629   0.012  1.00  0.00     0.035 A 
HETATM   22  C22 UNL     1      -0.352  -2.911  -0.255  1.00  0.00     0.034 A 
HETATM   23  C23 UNL     1       0.731  -2.990   0.627  1.00  0.00     0.035 A 
HETATM   24  C24 UNL     1       0.655  -3.828   1.746  1.00  0.00     0.053 A 
HETATM   25  C25 UNL     1      -0.503  -4.565   2.007  1.00  0.00     0.070 A 
HETATM   26  C26 UNL     1      -1.589  -4.462   1.141  1.00  0.00     0.053 A 
HETATM   27  C27 UNL     1      -1.536  -6.173   3.477  1.00  0.00     0.205 C 
HETATM   28  C28 UNL     1      -2.624  -5.427   4.268  1.00  0.00     0.293 C 
HETATM   29  C29 UNL     1       1.951  -2.187   0.325  1.00  0.00     0.256 C 
HETATM   30  C30 UNL     1       3.863  -1.005   1.458  1.00  0.00     0.055 A 
HETATM   31  C31 UNL     1       4.361  -0.598   2.722  1.00  0.00     0.054 A 
HETATM   32  C32 UNL     1       5.532   0.196   2.822  1.00  0.00     0.053 A 
HETATM   33  C33 UNL     1       6.212   0.524   1.643  1.00  0.00     0.048 A 
HETATM   34  C34 UNL     1       5.742   0.101   0.391  1.00  0.00     0.043 A 
HETATM   35  C35 UNL     1       4.570  -0.660   0.305  1.00  0.00     0.048 A 
HETATM   36  C36 UNL     1       6.515   0.508  -0.815  1.00  0.00     0.293 C 
HETATM   37  C37 UNL     1       6.698   0.198  -3.162  1.00  0.00     0.124 C 
HETATM   38  C38 UNL     1       6.124   1.485  -3.744  1.00  0.00     0.040 C 
HETATM   39  C39 UNL     1       6.452  -0.976  -4.102  1.00  0.00     0.040 C 
HETATM   40  C40 UNL     1       7.161   1.234   4.438  1.00  0.00     0.108 C 
HETATM   41  C41 UNL     1       7.047   2.283   5.572  1.00  0.00     0.284 C 
HETATM   42  C42 UNL     1       7.650   3.646   5.206  1.00  0.00     0.044 C 
HETATM   43  C43 UNL     1       7.324   4.241   3.827  1.00  0.00     0.017 C 
HETATM   44  C44 UNL     1       5.860   4.330   3.400  1.00  0.00     0.095 C 
HETATM   45  C45 UNL     1       5.019   6.151   4.817  1.00  0.00     0.122 C 
HETATM   46  C46 UNL     1       4.584  -2.336   4.898  1.00  0.00     0.109 C 
HETATM   47  C47 UNL     1       4.522  -3.647   4.105  1.00  0.00     0.277 C 
HETATM   48  O1  UNL     1      -7.686  -3.159  -5.137  1.00  0.00    -0.292 OA
HETATM   49  O2  UNL     1      -3.470  -4.529  -0.912  1.00  0.00    -0.267 OA
HETATM   50  O3  UNL     1      -0.433  -5.331   3.135  1.00  0.00    -0.349 OA
HETATM   51  O4  UNL     1       2.202  -1.934  -0.847  1.00  0.00    -0.267 OA
HETATM   52  O5  UNL     1       7.455   1.285  -0.775  1.00  0.00    -0.259 OA
HETATM   53  O6  UNL     1       6.034  -0.106  -1.921  1.00  0.00    -0.313 OA
HETATM   54  N1  UNL     1      -4.880   1.028  -4.426  1.00  0.00    -0.343 N 
HETATM   55  N2  UNL     1      -7.184   1.526  -4.583  1.00  0.00    -0.387 N 
ATOM     56  H2  UNL     1      -7.507   0.603  -4.293  1.00  0.00     0.157 HD
HETATM   57  N3  UNL     1      -2.244   5.504  -3.248  1.00  0.00    -0.367 N 
HETATM   58  N4  UNL     1      -3.566   6.811  -1.779  1.00  0.00    -0.376 N 
ATOM     59  H4  UNL     1      -3.901   7.048  -0.845  1.00  0.00     0.158 HD
HETATM   60  N5  UNL     1      -2.196   5.163  -1.044  1.00  0.00    -0.274 NA
HETATM   61  N6  UNL     1      -5.694   3.335  -6.624  1.00  0.00     0.090 N 
HETATM   62  N7  UNL     1      -2.258  -0.089   0.523  1.00  0.00     0.079 N 
HETATM   63  N8  UNL     1      -2.885  -2.374  -1.564  1.00  0.00    -0.322 N 
HETATM   64  N9  UNL     1      -2.154  -4.932   5.565  1.00  0.00     0.080 N 
HETATM   65  N10 UNL     1       2.663  -1.759   1.428  1.00  0.00    -0.322 N 
HETATM   66  N11 UNL     1       5.997   0.592   4.096  1.00  0.00    -0.343 N 
HETATM   67  N12 UNL     1       8.331   0.981   3.948  1.00  0.00    -0.387 N 
ATOM     68  H12 UNL     1       9.194   1.470   4.187  1.00  0.00     0.157 HD
HETATM   69  N13 UNL     1       4.968   4.849   4.437  1.00  0.00    -0.270 NA
HETATM   70  N14 UNL     1       5.917   6.994   4.475  1.00  0.00    -0.381 N 
ATOM     71  H14 UNL     1       6.723   6.781   3.887  1.00  0.00     0.158 HD
HETATM   72  N15 UNL     1       3.980   6.459   5.618  1.00  0.00    -0.279 NA
HETATM   73  N16 UNL     1       5.624   2.388   5.995  1.00  0.00     0.090 N 
HETATM   74  N17 UNL     1       5.372  -4.687   4.685  1.00  0.00     0.079 N 
HETATM   75  S1  UNL     1      -2.557   0.434  -2.611  1.00  0.00    -0.124 SA
HETATM   76  S2  UNL     1       3.450  -1.065   4.222  1.00  0.00    -0.124 SA
HETATM   77  H50 UNL     1      -3.953   1.430  -4.338  1.00  0.00     0.167 HD
HETATM   78  H51 UNL     1      -7.801   2.304  -4.836  1.00  0.00     0.157 HD
HETATM   79  H52 UNL     1      -1.858   4.567  -3.246  1.00  0.00     0.162 HD
HETATM   80  H53 UNL     1      -3.848   7.277  -2.643  1.00  0.00     0.158 HD
HETATM   81  H54 UNL     1      -1.184   5.151  -1.089  1.00  0.00     0.127 HD
HETATM   82  H55 UNL     1      -2.487   5.588  -0.167  1.00  0.00     0.127 HD
HETATM   83  H56 UNL     1      -6.604   2.963  -6.907  1.00  0.00     0.313 HD
HETATM   84  H57 UNL     1      -5.022   2.662  -6.996  1.00  0.00     0.313 HD
HETATM   85  H58 UNL     1      -2.420  -0.491   1.448  1.00  0.00     0.312 HD
HETATM   86  H59 UNL     1      -1.542   0.628   0.656  1.00  0.00     0.312 HD
HETATM   87  H60 UNL     1      -2.275  -1.596  -1.311  1.00  0.00     0.169 HD
HETATM   88  H61 UNL     1      -2.943  -4.562   6.094  1.00  0.00     0.312 HD
HETATM   89  H62 UNL     1      -1.772  -5.702   6.113  1.00  0.00     0.312 HD
HETATM   90  H63 UNL     1       2.256  -1.917   2.345  1.00  0.00     0.169 HD
HETATM   91  H64 UNL     1       5.230   0.845   4.730  1.00  0.00     0.167 HD
HETATM   92  H65 UNL     1       8.249   0.209   3.280  1.00  0.00     0.157 HD
HETATM   93  H66 UNL     1       4.005   4.594   4.237  1.00  0.00     0.130 HD
HETATM   94  H67 UNL     1       5.712   7.911   4.874  1.00  0.00     0.158 HD
HETATM   95  H68 UNL     1       4.079   7.337   6.112  1.00  0.00     0.126 HD
HETATM   96  H69 UNL     1       3.742   5.713   6.261  1.00  0.00     0.126 HD
HETATM   97  H70 UNL     1       5.241   3.223   5.531  1.00  0.00     0.313 HD
HETATM   98  H71 UNL     1       5.633   2.669   6.979  1.00  0.00     0.313 HD
HETATM   99  H72 UNL     1       5.100  -4.865   5.651  1.00  0.00     0.312 HD
HETATM  100  H73 UNL     1       6.341  -4.371   4.715  1.00  0.00     0.312 HD
ENDROOT
TORSDOF 39
