REMARK  22 active torsions:
REMARK  status: ('A' for Active; 'I' for Inactive)
REMARK    1  A    between atoms: C2_2  and  C3_3 
REMARK    2  A    between atoms: C2_2  and  N12_89 
REMARK       I    between atoms: C3_3  and  N1_77 
REMARK    3  A    between atoms: C4_4  and  C5_5 
REMARK    4  A    between atoms: C4_4  and  C63_63 
REMARK    5  A    between atoms: C4_4  and  N1_77 
REMARK       I    between atoms: C5_5  and  N2_78 
REMARK    6  A    between atoms: C7_7  and  N4_80 
REMARK    7  A    between atoms: C9_9  and  C10_10 
REMARK       I    between atoms: C10_10  and  N3_79 
REMARK    8  A    between atoms: C11_11  and  N3_79 
REMARK    9  A    between atoms: C21_21  and  C22_22 
REMARK       I    between atoms: C21_21  and  N4_80 
REMARK   10  A    between atoms: C25_25  and  C28_28 
REMARK       I    between atoms: C28_28  and  N5_81 
REMARK   11  A    between atoms: C29_29  and  N5_81 
REMARK   12  A    between atoms: C34_34  and  C50_50 
REMARK   13  A    between atoms: C36_36  and  C37_37 
REMARK       I    between atoms: C36_36  and  N6_82 
REMARK   14  A    between atoms: C37_37  and  C38_38 
REMARK   15  A    between atoms: C37_37  and  N9_86 
REMARK   16  A    between atoms: C38_38  and  S1_90 
REMARK   17  A    between atoms: C41_41  and  C42_42 
REMARK   18  A    between atoms: C41_41  and  S1_90 
REMARK       I    between atoms: C42_42  and  N7_83 
REMARK   19  A    between atoms: C43_43  and  N7_83 
REMARK   20  A    between atoms: C46_46  and  C47_47 
REMARK       I    between atoms: C46_46  and  N9_86 
REMARK   21  A    between atoms: C47_47  and  N10_87 
REMARK       I    between atoms: C50_50  and  N11_88 
REMARK   22  A    between atoms: C51_51  and  N11_88 
ROOT
HETATM    1  C29 UNL     1      -3.085  -0.668   0.735  1.00  0.00     0.035 A 
HETATM    2  C30 UNL     1      -3.232  -0.750  -0.651  1.00  0.00     0.038 A 
HETATM    3  C31 UNL     1      -4.045  -1.737  -1.235  1.00  0.00    -0.036 A 
HETATM    4  C32 UNL     1      -4.692  -2.676  -0.417  1.00  0.00    -0.049 A 
HETATM    5  C33 UNL     1      -5.590  -3.725  -1.025  1.00  0.00     0.068 C 
HETATM    6  C34 UNL     1      -5.413  -3.860  -2.549  1.00  0.00     0.162 C 
HETATM    7  C35 UNL     1      -4.152  -1.824  -2.737  1.00  0.00     0.138 C 
HETATM    8  C36 UNL     1      -5.429  -2.550  -4.573  1.00  0.00     0.225 C 
HETATM    9  C61 UNL     1      -4.549  -2.594   0.972  1.00  0.00     0.010 A 
HETATM   10  C62 UNL     1      -3.750  -1.599   1.540  1.00  0.00     0.030 A 
HETATM   11  O6  UNL     1      -4.711  -3.336  -5.201  1.00  0.00    -0.277 OA
HETATM   12  N6  UNL     1      -5.364  -2.521  -3.176  1.00  0.00    -0.234 NA
ENDROOT
BRANCH   1  13
HETATM   13  N5  UNL     1      -2.292   0.299   1.388  1.00  0.00    -0.323 N 
HETATM   14  C28 UNL     1      -1.615   1.357   0.808  1.00  0.00     0.256 C 
HETATM   15  O5  UNL     1      -1.626   1.684  -0.372  1.00  0.00    -0.267 OA
HETATM   16  H79 UNL     1      -2.285   0.249   2.398  1.00  0.00     0.169 HD
BRANCH  14  17
HETATM   17  C25 UNL     1      -0.825   2.187   1.758  1.00  0.00     0.032 A 
HETATM   18  C24 UNL     1      -0.092   1.607   2.803  1.00  0.00     0.018 A 
HETATM   19  C23 UNL     1       0.648   2.418   3.672  1.00  0.00     0.018 A 
HETATM   20  C22 UNL     1       0.664   3.808   3.492  1.00  0.00     0.032 A 
HETATM   21  C27 UNL     1      -0.072   4.384   2.448  1.00  0.00     0.018 A 
HETATM   22  C26 UNL     1      -0.804   3.575   1.576  1.00  0.00     0.018 A 
BRANCH  20  23
HETATM   23  C21 UNL     1       1.434   4.707   4.393  1.00  0.00     0.252 C 
HETATM   24  O4  UNL     1       1.052   5.850   4.604  1.00  0.00    -0.268 OA
HETATM   25  N4  UNL     1       2.593   4.184   4.926  1.00  0.00    -0.351 N 
HETATM   26  H78 UNL     1       2.961   3.322   4.546  1.00  0.00     0.163 HD
BRANCH  25  27
HETATM   27  C7  UNL     1       3.487   5.005   5.739  1.00  0.00     0.105 C 
HETATM   28  C6  UNL     1       4.516   4.144   6.469  1.00  0.00     0.152 C 
HETATM   29  N2  UNL     1       5.539   3.906   5.457  1.00  0.00    -0.335 N 
HETATM   30  C5  UNL     1       6.215   2.708   5.408  1.00  0.00     0.244 C 
HETATM   31  C9  UNL     1       5.583   5.028   4.500  1.00  0.00     0.181 C 
HETATM   32  O2  UNL     1       6.084   1.881   6.320  1.00  0.00    -0.271 OA
HETATM   33  C8  UNL     1       4.369   5.901   4.868  1.00  0.00     0.061 C 
BRANCH  30  34
HETATM   34  C4  UNL     1       7.153   2.393   4.215  1.00  0.00     0.184 C 
BRANCH  34  35
HETATM   35  C63 UNL     1       6.519   1.446   3.141  1.00  0.00    -0.022 C 
HETATM   36  C64 UNL     1       6.074   0.094   3.736  1.00  0.00     0.017 C 
HETATM   37  C65 UNL     1       5.294   2.098   2.474  1.00  0.00     0.017 C 
HETATM   38  C66 UNL     1       7.552   1.162   2.027  1.00  0.00     0.017 C 
ENDBRANCH  34  35
BRANCH  34  39
HETATM   39  N1  UNL     1       8.321   1.768   4.847  1.00  0.00    -0.345 N 
HETATM   40  C3  UNL     1       9.618   2.166   4.599  1.00  0.00     0.251 C 
HETATM   41  O1  UNL     1       9.878   3.037   3.775  1.00  0.00    -0.271 OA
HETATM   42  H76 UNL     1       8.127   1.136   5.619  1.00  0.00     0.163 HD
BRANCH  40  43
HETATM   43  C2  UNL     1      10.667   1.401   5.446  1.00  0.00     0.307 C 
HETATM   44  C1  UNL     1      10.608   1.896   6.892  1.00  0.00     0.053 C 
BRANCH  43  45
HETATM   45  N12 UNL     1      12.044   1.574   4.940  1.00  0.00     0.092 N 
HETATM   46  C67 UNL     1      12.245   0.917   3.654  1.00  0.00     0.307 C 
HETATM   47  H84 UNL     1      12.705   1.190   5.613  1.00  0.00     0.316 HD
ENDBRANCH  43  45
ENDBRANCH  40  43
ENDBRANCH  34  39
ENDBRANCH  30  34
BRANCH  31  48
HETATM   48  C10 UNL     1       6.848   5.897   4.607  1.00  0.00     0.241 C 
HETATM   49  O3  UNL     1       7.176   6.663   3.705  1.00  0.00    -0.271 OA
HETATM   50  N3  UNL     1       7.466   5.867   5.836  1.00  0.00    -0.351 N 
HETATM   51  H77 UNL     1       7.259   5.092   6.454  1.00  0.00     0.163 HD
BRANCH  50  52
HETATM   52  C11 UNL     1       8.666   6.643   6.117  1.00  0.00     0.118 C 
HETATM   53  C12 UNL     1       9.888   5.940   5.509  1.00  0.00     0.030 C 
HETATM   54  C13 UNL     1      11.183   6.552   6.018  1.00  0.00     0.007 C 
HETATM   55  C14 UNL     1      11.297   6.353   7.525  1.00  0.00     0.039 C 
HETATM   56  C15 UNL     1      10.047   6.764   8.266  1.00  0.00    -0.050 A 
HETATM   57  C16 UNL     1      10.131   6.997   9.649  1.00  0.00     0.007 A 
HETATM   58  C20 UNL     1       8.804   6.883   7.614  1.00  0.00    -0.029 A 
HETATM   59  C17 UNL     1       9.006   7.384  10.375  1.00  0.00     0.001 A 
HETATM   60  C18 UNL     1       7.785   7.545   9.729  1.00  0.00     0.001 A 
HETATM   61  C19 UNL     1       7.686   7.303   8.360  1.00  0.00     0.010 A 
ENDBRANCH  50  52
ENDBRANCH  31  48
ENDBRANCH  25  27
ENDBRANCH  20  23
ENDBRANCH  14  17
ENDBRANCH   1  13
BRANCH   6  62
HETATM   62  C50 UNL     1      -6.551  -4.777  -3.055  1.00  0.00     0.236 C 
HETATM   63  O9  UNL     1      -7.592  -4.356  -3.553  1.00  0.00    -0.272 OA
HETATM   64  N11 UNL     1      -6.301  -6.123  -2.869  1.00  0.00    -0.351 N 
HETATM   65  H83 UNL     1      -5.367  -6.411  -2.608  1.00  0.00     0.163 HD
BRANCH  64  66
HETATM   66  C51 UNL     1      -7.123  -7.151  -3.493  1.00  0.00     0.118 C 
HETATM   67  C52 UNL     1      -7.432  -8.233  -2.447  1.00  0.00     0.030 C 
HETATM   68  C53 UNL     1      -8.176  -9.454  -2.998  1.00  0.00     0.007 C 
HETATM   69  C54 UNL     1      -8.199  -9.566  -4.523  1.00  0.00     0.039 C 
HETATM   70  C55 UNL     1      -6.953  -9.013  -5.162  1.00  0.00    -0.050 A 
HETATM   71  C56 UNL     1      -6.370  -9.646  -6.266  1.00  0.00     0.007 A 
HETATM   72  C60 UNL     1      -6.431  -7.791  -4.688  1.00  0.00    -0.029 A 
HETATM   73  C57 UNL     1      -5.268  -9.076  -6.900  1.00  0.00     0.001 A 
HETATM   74  C58 UNL     1      -4.760  -7.859  -6.452  1.00  0.00     0.001 A 
HETATM   75  C59 UNL     1      -5.344  -7.213  -5.361  1.00  0.00     0.010 A 
ENDBRANCH  64  66
ENDBRANCH   6  62
BRANCH   8  76
HETATM   76  C37 UNL     1      -6.579  -1.751  -5.265  1.00  0.00     0.189 C 
BRANCH  76  77
HETATM   77  C38 UNL     1      -7.312  -0.570  -4.528  1.00  0.00     0.030 C 
HETATM   78  C39 UNL     1      -8.279  -1.084  -3.436  1.00  0.00     0.029 C 
HETATM   79  C40 UNL     1      -6.385   0.460  -3.872  1.00  0.00     0.029 C 
BRANCH  77  80
HETATM   80  S1  UNL     1      -8.463   0.327  -5.737  1.00  0.00    -0.148 SA
BRANCH  80  81
HETATM   81  C41 UNL     1      -7.405   1.551  -6.564  1.00  0.00     0.177 C 
BRANCH  81  82
HETATM   82  C42 UNL     1      -6.168   1.017  -7.262  1.00  0.00     0.232 C 
HETATM   83  O7  UNL     1      -5.055   1.339  -6.849  1.00  0.00    -0.272 OA
HETATM   84  N7  UNL     1      -6.433   0.233  -8.359  1.00  0.00    -0.307 N 
HETATM   85  H80 UNL     1      -7.301  -0.306  -8.380  1.00  0.00     0.171 HD
BRANCH  84  86
HETATM   86  C43 UNL     1      -5.521  -0.192  -9.296  1.00  0.00     0.150 A 
HETATM   87  N8  UNL     1      -5.827  -1.094 -10.201  1.00  0.00    -0.346 N 
HETATM   88  C44 UNL     1      -4.743  -1.315 -11.026  1.00  0.00     0.097 A 
ATOM     89  H8  UNL     1      -6.730  -1.561 -10.282  1.00  0.00     0.167 HD
HETATM   90  C45 UNL     1      -3.630  -0.551 -10.757  1.00  0.00     0.070 A 
HETATM   91  S2  UNL     1      -3.956   0.478  -9.428  1.00  0.00    -0.064 SA
ENDBRANCH  84  86
ENDBRANCH  81  82
ENDBRANCH  80  81
ENDBRANCH  77  80
ENDBRANCH  76  77
BRANCH  76  92
HETATM   92  N9  UNL     1      -7.525  -2.785  -5.720  1.00  0.00    -0.345 N 
HETATM   93  C46 UNL     1      -8.138  -2.811  -6.949  1.00  0.00     0.251 C 
HETATM   94  O8  UNL     1      -7.911  -1.987  -7.834  1.00  0.00    -0.271 OA
HETATM   95  H81 UNL     1      -7.810  -3.471  -5.021  1.00  0.00     0.163 HD
BRANCH  93  96
HETATM   96  C47 UNL     1      -9.171  -3.942  -7.139  1.00  0.00     0.307 C 
HETATM   97  C48 UNL     1     -10.341  -3.763  -6.174  1.00  0.00     0.053 C 
BRANCH  96  98
HETATM   98  N10 UNL     1      -8.571  -5.278  -6.930  1.00  0.00     0.092 N 
HETATM   99  C49 UNL     1      -7.616  -5.604  -7.983  1.00  0.00     0.307 C 
HETATM  100  H82 UNL     1      -8.089  -5.302  -6.031  1.00  0.00     0.316 HD
ENDBRANCH  96  98
ENDBRANCH  93  96
ENDBRANCH  76  92
ENDBRANCH   8  76
TORSDOF 22
