REMARK  0 active torsions:
REMARK  status: ('A' for Active; 'I' for Inactive)
REMARK       I    between atoms: S1_1  and  C1_2 
REMARK       I    between atoms: C1_2  and  C2_3 
REMARK       I    between atoms: C2_3  and  C3_4 
REMARK       I    between atoms: C3_4  and  C50_51 
REMARK       I    between atoms: C3_4  and  N1_70 
REMARK       I    between atoms: C4_5  and  C5_6 
REMARK       I    between atoms: C4_5  and  N1_70 
REMARK       I    between atoms: C5_6  and  N2_71 
REMARK       I    between atoms: C6_7  and  C7_8 
REMARK       I    between atoms: C6_7  and  N2_71 
REMARK       I    between atoms: C7_8  and  C46_47 
REMARK       I    between atoms: C7_8  and  N3_72 
REMARK       I    between atoms: C8_9  and  C9_10 
REMARK       I    between atoms: C8_9  and  N3_72 
REMARK       I    between atoms: C9_10  and  C44_45 
REMARK       I    between atoms: C9_10  and  N4_73 
REMARK       I    between atoms: C10_11  and  C11_12 
REMARK       I    between atoms: C10_11  and  N4_73 
REMARK       I    between atoms: C11_12  and  N5_74 
REMARK       I    between atoms: C12_13  and  C13_14 
REMARK       I    between atoms: C12_13  and  N5_74 
REMARK       I    between atoms: C13_14  and  C37_38 
REMARK       I    between atoms: C13_14  and  N6_75 
REMARK       I    between atoms: C14_15  and  C15_16 
REMARK       I    between atoms: C14_15  and  N6_75 
REMARK       I    between atoms: C15_16  and  C34_35 
REMARK       I    between atoms: C15_16  and  N7_76 
REMARK       I    between atoms: C16_17  and  C17_18 
REMARK       I    between atoms: C16_17  and  N7_76 
REMARK       I    between atoms: C17_18  and  C29_30 
REMARK       I    between atoms: C17_18  and  C33_34 
REMARK       I    between atoms: C17_18  and  N8_77 
REMARK       I    between atoms: C18_19  and  C19_20 
REMARK       I    between atoms: C18_19  and  N8_77 
REMARK       I    between atoms: C19_20  and  C25_26 
REMARK       I    between atoms: C19_20  and  N9_78 
REMARK       I    between atoms: C20_21  and  C21_22 
REMARK       I    between atoms: C20_21  and  N9_78 
REMARK       I    between atoms: C25_26  and  C26_27 
REMARK       I    between atoms: C29_30  and  C30_31 
REMARK       I    between atoms: C30_31  and  C31_32 
REMARK       I    between atoms: C30_31  and  N11_80 
REMARK       I    between atoms: C31_32  and  C32_33 
REMARK       I    between atoms: C32_33  and  O12_99 
REMARK       I    between atoms: C33_34  and  O13_100 
REMARK       I    between atoms: C37_38  and  C38_39 
REMARK       I    between atoms: C41_42  and  O14_101 
REMARK       I    between atoms: C44_45  and  O15_102 
REMARK       I    between atoms: C46_47  and  C47_48 
REMARK       I    between atoms: C50_51  and  N14_84 
REMARK       I    between atoms: C51_52  and  C52_53 
REMARK       I    between atoms: C51_52  and  C67_68 
REMARK       I    between atoms: C51_52  and  N14_84 
REMARK       I    between atoms: C52_53  and  N15_85 
REMARK       I    between atoms: C53_54  and  C54_55 
REMARK       I    between atoms: C53_54  and  N15_85 
REMARK       I    between atoms: C54_55  and  N16_86 
REMARK       I    between atoms: C55_56  and  C56_57 
REMARK       I    between atoms: C55_56  and  C60_61 
REMARK       I    between atoms: C55_56  and  N16_86 
REMARK       I    between atoms: C56_57  and  N17_87 
REMARK       I    between atoms: C57_58  and  C58_59 
REMARK       I    between atoms: C57_58  and  N17_87 
REMARK       I    between atoms: C58_59  and  O21_108 
REMARK       I    between atoms: C60_61  and  C61_62 
REMARK       I    between atoms: C67_68  and  O22_109 
ROOT
HETATM    1  S1  UNL     1       4.831   6.896   0.521  1.00  0.00    -0.173 SA
HETATM    2  C1  UNL     1       4.343   5.874  -0.910  1.00  0.00     0.076 C 
HETATM    3  C2  UNL     1       3.922   4.454  -0.523  1.00  0.00     0.045 C 
HETATM    4  C3  UNL     1       5.044   3.581   0.048  1.00  0.00     0.177 C 
HETATM    5  C4  UNL     1       5.227   1.417   1.256  1.00  0.00     0.236 C 
HETATM    6  C5  UNL     1       4.540   0.092   1.610  1.00  0.00     0.225 C 
HETATM    7  C6  UNL     1       3.985  -0.947  -0.553  1.00  0.00     0.241 C 
HETATM    8  C7  UNL     1       2.905  -1.145  -1.646  1.00  0.00     0.182 C 
HETATM    9  C8  UNL     1       1.360   0.783  -1.192  1.00  0.00     0.243 C 
HETATM   10  C9  UNL     1      -0.129   1.101  -0.906  1.00  0.00     0.205 C 
HETATM   11  C10 UNL     1      -0.028  -0.003   1.330  1.00  0.00     0.236 C 
HETATM   12  C11 UNL     1      -0.743  -0.926   2.329  1.00  0.00     0.225 C 
HETATM   13  C12 UNL     1      -2.673  -1.981   1.222  1.00  0.00     0.241 C 
HETATM   14  C13 UNL     1      -3.158  -3.183   0.393  1.00  0.00     0.180 C 
HETATM   15  C14 UNL     1      -3.941  -2.094  -1.665  1.00  0.00     0.241 C 
HETATM   16  C15 UNL     1      -5.135  -1.512  -2.452  1.00  0.00     0.180 C 
HETATM   17  C16 UNL     1      -5.643   0.724  -1.496  1.00  0.00     0.257 C 
HETATM   18  C17 UNL     1      -6.637   1.529  -0.610  1.00  0.00     0.198 C 
HETATM   19  C18 UNL     1      -8.648   1.026  -2.002  1.00  0.00     0.241 C 
HETATM   20  C19 UNL     1     -10.159   0.710  -1.945  1.00  0.00     0.177 C 
HETATM   21  C20 UNL     1     -10.871   2.633  -0.572  1.00  0.00     0.251 C 
HETATM   22  C21 UNL     1     -11.835   3.033   0.565  1.00  0.00     0.311 C 
HETATM   23  C22 UNL     1     -14.033   2.577  -0.108  1.00  0.00     0.271 C 
HETATM   24  C23 UNL     1     -14.001   4.052   0.229  1.00  0.00     0.033 C 
HETATM   25  C24 UNL     1     -12.518   4.376   0.324  1.00  0.00     0.047 C 
HETATM   26  C25 UNL     1     -10.327  -0.819  -2.001  1.00  0.00     0.038 C 
HETATM   27  C26 UNL     1     -11.586  -1.288  -2.759  1.00  0.00    -0.020 C 
HETATM   28  C27 UNL     1     -11.597  -2.817  -2.843  1.00  0.00     0.009 C 
HETATM   29  C28 UNL     1     -12.887  -0.798  -2.127  1.00  0.00     0.009 C 
HETATM   30  C29 UNL     1      -6.140   1.377   0.853  1.00  0.00     0.200 C 
HETATM   31  C30 UNL     1      -6.781   0.280   1.729  1.00  0.00     0.299 C 
HETATM   32  C31 UNL     1      -6.548   0.560   3.218  1.00  0.00     0.153 C 
HETATM   33  C32 UNL     1      -7.154   1.862   3.672  1.00  0.00     0.141 C 
HETATM   34  C33 UNL     1      -6.583   3.027  -0.974  1.00  0.00     0.213 C 
HETATM   35  C34 UNL     1      -6.023  -2.573  -3.143  1.00  0.00     0.009 C 
HETATM   36  C35 UNL     1      -6.731  -3.547  -2.197  1.00  0.00     0.012 C 
HETATM   37  C36 UNL     1      -5.230  -3.357  -4.193  1.00  0.00     0.012 C 
HETATM   38  C37 UNL     1      -3.529  -4.382   1.278  1.00  0.00     0.073 C 
HETATM   39  C38 UNL     1      -4.700  -4.169   2.212  1.00  0.00    -0.056 A 
HETATM   40  C39 UNL     1      -5.993  -4.555   1.829  1.00  0.00     0.010 A 
HETATM   41  C40 UNL     1      -7.075  -4.351   2.687  1.00  0.00     0.037 A 
HETATM   42  C41 UNL     1      -6.867  -3.764   3.930  1.00  0.00     0.065 A 
HETATM   43  C42 UNL     1      -5.593  -3.381   4.333  1.00  0.00     0.037 A 
HETATM   44  C43 UNL     1      -4.511  -3.585   3.474  1.00  0.00     0.010 A 
HETATM   45  C44 UNL     1      -0.945   0.969  -2.211  1.00  0.00     0.146 C 
HETATM   46  C45 UNL     1      -0.527   1.974  -3.275  1.00  0.00     0.042 C 
HETATM   47  C46 UNL     1       2.762  -2.662  -1.917  1.00  0.00     0.093 C 
HETATM   48  C47 UNL     1       1.986  -3.359  -0.838  1.00  0.00     0.028 A 
HETATM   49  C48 UNL     1       1.526  -4.251   1.127  1.00  0.00     0.180 A 
HETATM   50  C49 UNL     1       0.644  -3.649  -0.720  1.00  0.00     0.114 A 
HETATM   51  C50 UNL     1       6.171   3.368  -0.987  1.00  0.00     0.241 C 
HETATM   52  C51 UNL     1       8.596   2.839  -1.202  1.00  0.00     0.200 C 
HETATM   53  C52 UNL     1       8.826   1.322  -1.297  1.00  0.00     0.242 C 
HETATM   54  C53 UNL     1       8.354  -0.878  -0.289  1.00  0.00     0.225 C 
HETATM   55  C54 UNL     1       9.705  -1.509   0.075  1.00  0.00     0.236 C 
HETATM   56  C55 UNL     1      11.991  -1.007   0.898  1.00  0.00     0.180 C 
HETATM   57  C56 UNL     1      12.783   0.319   0.869  1.00  0.00     0.241 C 
HETATM   58  C57 UNL     1      15.014   1.374   0.877  1.00  0.00     0.178 C 
HETATM   59  C58 UNL     1      15.271   1.853   2.311  1.00  0.00     0.163 C 
HETATM   60  C59 UNL     1      16.348   1.075   0.204  1.00  0.00     0.043 C 
HETATM   61  C60 UNL     1      12.153  -1.759   2.230  1.00  0.00     0.073 C 
HETATM   62  C61 UNL     1      13.403  -2.607   2.309  1.00  0.00    -0.056 A 
HETATM   63  C62 UNL     1      14.393  -2.333   3.261  1.00  0.00     0.007 A 
HETATM   64  C63 UNL     1      15.554  -3.105   3.317  1.00  0.00     0.001 A 
HETATM   65  C64 UNL     1      15.731  -4.166   2.431  1.00  0.00     0.000 A 
HETATM   66  C65 UNL     1      14.744  -4.460   1.493  1.00  0.00     0.001 A 
HETATM   67  C66 UNL     1      13.583  -3.688   1.435  1.00  0.00     0.007 A 
HETATM   68  C67 UNL     1       9.843   3.494  -0.596  1.00  0.00     0.199 C 
HETATM   69  C68 UNL     1       6.624   6.944   0.264  1.00  0.00     0.089 C 
HETATM   70  N1  UNL     1       4.525   2.266   0.432  1.00  0.00    -0.346 N 
HETATM   71  N2  UNL     1       3.584  -0.336   0.612  1.00  0.00    -0.351 N 
HETATM   72  N3  UNL     1       1.605  -0.566  -1.316  1.00  0.00    -0.346 N 
HETATM   73  N4  UNL     1      -0.638   0.139   0.099  1.00  0.00    -0.344 N 
HETATM   74  N5  UNL     1      -1.390  -2.066   1.696  1.00  0.00    -0.351 N 
HETATM   75  N6  UNL     1      -4.247  -2.726  -0.474  1.00  0.00    -0.346 N 
HETATM   76  N7  UNL     1      -5.929  -0.629  -1.607  1.00  0.00    -0.345 N 
HETATM   77  N8  UNL     1      -8.023   1.010  -0.766  1.00  0.00    -0.333 N 
HETATM   78  N9  UNL     1     -10.749   1.259  -0.718  1.00  0.00    -0.346 N 
HETATM   79  N10 UNL     1     -12.923   2.016   0.678  1.00  0.00     0.097 N 
HETATM   80  N11 UNL     1      -6.195  -1.023   1.332  1.00  0.00     0.090 N 
HETATM   81  N12 UNL     1       2.545  -3.797   0.336  1.00  0.00    -0.354 N 
HETATM   82  N13 UNL     1       0.357  -4.139   0.532  1.00  0.00    -0.360 N 
ATOM     83  H13 UNL     1      -0.560  -4.366   0.916  1.00  0.00     0.166 HD
HETATM   84  N14 UNL     1       7.408   3.169  -0.412  1.00  0.00    -0.344 N 
HETATM   85  N15 UNL     1       8.350   0.581  -0.232  1.00  0.00    -0.350 N 
HETATM   86  N16 UNL     1      10.593  -0.649   0.675  1.00  0.00    -0.346 N 
HETATM   87  N17 UNL     1      14.154   0.193   0.810  1.00  0.00    -0.345 N 
HETATM   88  O1  UNL     1       6.319   1.728   1.739  1.00  0.00    -0.272 OA
HETATM   89  O2  UNL     1       5.140  -1.349  -0.702  1.00  0.00    -0.271 OA
HETATM   90  O3  UNL     1       2.240   1.632  -1.288  1.00  0.00    -0.271 OA
HETATM   91  O4  UNL     1       1.002   0.600   1.633  1.00  0.00    -0.272 OA
HETATM   92  O5  UNL     1      -3.385  -1.000   1.443  1.00  0.00    -0.271 OA
HETATM   93  O6  UNL     1      -2.792  -2.058  -2.109  1.00  0.00    -0.271 OA
HETATM   94  O7  UNL     1      -4.619   1.209  -1.974  1.00  0.00    -0.270 OA
HETATM   95  O8  UNL     1      -8.037   1.126  -3.062  1.00  0.00    -0.271 OA
HETATM   96  O9  UNL     1     -10.193   3.428  -1.217  1.00  0.00    -0.271 OA
HETATM   97  O10 UNL     1      -5.161   2.003   1.279  1.00  0.00    -0.292 OA
HETATM   98  O11 UNL     1      -6.897   2.431   4.720  1.00  0.00    -0.650 OA
HETATM   99  O12 UNL     1      -8.094   2.358   2.846  1.00  0.00    -0.776 OA
HETATM  100  O13 UNL     1      -7.625   3.748  -0.292  1.00  0.00    -0.397 OA
HETATM  101  O14 UNL     1      -7.952  -3.567   4.730  1.00  0.00    -0.361 OA
HETATM  102  O15 UNL     1      -0.798  -0.352  -2.759  1.00  0.00    -0.393 OA
HETATM  103  O16 UNL     1       5.984   3.323  -2.199  1.00  0.00    -0.271 OA
HETATM  104  O17 UNL     1       9.528   0.823  -2.175  1.00  0.00    -0.271 OA
HETATM  105  O18 UNL     1       9.941  -2.706  -0.075  1.00  0.00    -0.272 OA
HETATM  106  O19 UNL     1      12.220   1.416   0.868  1.00  0.00    -0.271 OA
HETATM  107  O20 UNL     1      15.939   2.825   2.631  1.00  0.00    -0.648 OA
HETATM  108  O21 UNL     1      14.716   1.084   3.272  1.00  0.00    -0.775 OA
HETATM  109  O22 UNL     1       9.741   4.923  -0.633  1.00  0.00    -0.398 OA
HETATM  110  H77 UNL     1       3.768   1.879  -0.135  1.00  0.00     0.163 HD
HETATM  111  H78 UNL     1       2.639   0.038   0.680  1.00  0.00     0.163 HD
HETATM  112  H79 UNL     1       0.782  -1.061  -1.659  1.00  0.00     0.163 HD
HETATM  113  H80 UNL     1      -1.642  -0.014   0.103  1.00  0.00     0.163 HD
HETATM  114  H81 UNL     1      -0.778  -2.790   1.310  1.00  0.00     0.163 HD
HETATM  115  H82 UNL     1      -5.071  -2.361   0.001  1.00  0.00     0.163 HD
HETATM  116  H83 UNL     1      -6.571  -1.013  -0.919  1.00  0.00     0.163 HD
HETATM  117  H84 UNL     1      -8.670   1.294  -0.037  1.00  0.00     0.164 HD
HETATM  118  H85 UNL     1     -11.576   0.795  -0.339  1.00  0.00     0.163 HD
HETATM  119  H86 UNL     1     -13.223   2.005   1.657  1.00  0.00     0.317 HD
HETATM  120  H87 UNL     1      -6.511  -1.731   2.004  1.00  0.00     0.313 HD
HETATM  121  H88 UNL     1      -5.178  -0.948   1.535  1.00  0.00     0.313 HD
HETATM  122  H89 UNL     1       3.524  -3.752   0.592  1.00  0.00     0.166 HD
HETATM  123  H90 UNL     1       7.440   3.033   0.597  1.00  0.00     0.163 HD
HETATM  124  H91 UNL     1       7.624   1.010   0.335  1.00  0.00     0.163 HD
HETATM  125  H92 UNL     1      10.383   0.344   0.603  1.00  0.00     0.163 HD
HETATM  126  H93 UNL     1      14.559  -0.689   1.102  1.00  0.00     0.163 HD
HETATM  127  H94 UNL     1      -8.299   3.237   3.238  1.00  0.00     0.167 HD
HETATM  128  H95 UNL     1      -8.404   3.766  -0.890  1.00  0.00     0.209 HD
HETATM  129  H96 UNL     1      -7.645  -3.294   5.610  1.00  0.00     0.217 HD
HETATM  130  H97 UNL     1      -1.621  -0.853  -2.555  1.00  0.00     0.210 HD
HETATM  131  H98 UNL     1      14.942   1.561   4.099  1.00  0.00     0.167 HD
HETATM  132  H99 UNL     1       9.664   5.179  -1.569  1.00  0.00     0.209 HD
ENDROOT
TORSDOF 53
