REMARK  22 active torsions:
REMARK  status: ('A' for Active; 'I' for Inactive)
REMARK    1  A    between atoms: C3_3  and  N2_51 
REMARK    2  A    between atoms: C4_4  and  C5_5 
REMARK       I    between atoms: C4_4  and  N2_51 
REMARK    3  A    between atoms: C7_7  and  N3_52 
REMARK    4  A    between atoms: C8_8  and  C9_9 
REMARK       I    between atoms: C8_8  and  N3_52 
REMARK    5  A    between atoms: C11_11  and  N4_53 
REMARK    6  A    between atoms: C12_12  and  C13_13 
REMARK       I    between atoms: C12_12  and  N4_53 
REMARK    7  A    between atoms: C16_16  and  C17_17 
REMARK       I    between atoms: C17_17  and  N6_56 
REMARK    8  A    between atoms: C18_18  and  N6_56 
REMARK    9  A    between atoms: C20_20  and  C21_21 
REMARK       I    between atoms: C21_21  and  N7_57 
REMARK   10  A    between atoms: C22_22  and  N7_57 
REMARK   11  A    between atoms: C24_24  and  C25_25 
REMARK       I    between atoms: C25_25  and  N8_58 
REMARK   12  A    between atoms: C26_26  and  N8_58 
REMARK   13  A    between atoms: C28_28  and  C29_29 
REMARK       I    between atoms: C29_29  and  N9_59 
REMARK   14  A    between atoms: C30_30  and  C31_31 
REMARK   15  A    between atoms: C30_30  and  N9_59 
REMARK   16  A    between atoms: C31_31  and  C32_32 
REMARK   17  A    between atoms: C32_32  and  N11_62 
REMARK   18  A    between atoms: C45_45  and  C46_46 
REMARK       I    between atoms: C46_46  and  N17_68 
REMARK   19  A    between atoms: C47_47  and  C48_48 
REMARK   20  A    between atoms: C47_47  and  N17_68 
REMARK   21  A    between atoms: C48_48  and  C49_49 
REMARK   22  A    between atoms: C49_49  and  N18_69 
ROOT
HETATM    1  C13 UNL     1      -0.133   1.812  -2.884  1.00  0.00     0.048 A 
HETATM    2  C14 UNL     1       0.380   1.931  -4.172  1.00  0.00     0.104 A 
HETATM    3  C15 UNL     1       2.554   1.974  -3.395  1.00  0.00     0.104 A 
HETATM    4  C16 UNL     1       2.139   1.857  -2.073  1.00  0.00     0.048 A 
HETATM    5  C39 UNL     1       0.767   1.761  -1.813  1.00  0.00     0.037 A 
HETATM    6  N5  UNL     1       1.704   2.026  -4.449  1.00  0.00    -0.373 N 
ATOM      7  H5  UNL     1       2.044   2.132  -5.405  1.00  0.00     0.164 HD
ENDROOT
BRANCH   1   8
HETATM    8  C12 UNL     1      -1.602   1.696  -2.719  1.00  0.00     0.257 C 
HETATM    9  N4  UNL     1      -2.111   2.220  -1.545  1.00  0.00    -0.322 N 
HETATM   10  H44 UNL     1      -1.511   2.737  -0.919  1.00  0.00     0.169 HD
HETATM   11  O3  UNL     1      -2.247   1.179  -3.624  1.00  0.00    -0.267 OA
BRANCH   9  12
HETATM   12  C11 UNL     1      -3.445   2.176  -1.184  1.00  0.00     0.053 A 
HETATM   13  C10 UNL     1      -4.546   1.570  -1.829  1.00  0.00     0.066 A 
HETATM   14  C9  UNL     1      -5.697   1.799  -1.078  1.00  0.00     0.105 A 
HETATM   15  N15 UNL     1      -5.281   2.530   0.023  1.00  0.00    -0.354 N 
HETATM   16  C40 UNL     1      -3.928   2.761  -0.039  1.00  0.00     0.120 A 
HETATM   17  C41 UNL     1      -6.131   3.008   1.095  1.00  0.00     0.156 C 
BRANCH  14  18
HETATM   18  C8  UNL     1      -7.078   1.382  -1.323  1.00  0.00     0.273 C 
HETATM   19  N3  UNL     1      -7.291   0.824  -2.570  1.00  0.00    -0.320 N 
HETATM   20  H43 UNL     1      -6.517   0.765  -3.215  1.00  0.00     0.169 HD
HETATM   21  O2  UNL     1      -7.958   1.532  -0.479  1.00  0.00    -0.266 OA
BRANCH  19  22
HETATM   22  C7  UNL     1      -8.500   0.349  -3.039  1.00  0.00     0.053 A 
HETATM   23  C6  UNL     1      -9.770   0.299  -2.420  1.00  0.00     0.066 A 
HETATM   24  C5  UNL     1     -10.684  -0.278  -3.298  1.00  0.00     0.105 A 
HETATM   25  N16 UNL     1      -9.964  -0.560  -4.448  1.00  0.00    -0.354 N 
HETATM   26  C42 UNL     1      -8.651  -0.190  -4.293  1.00  0.00     0.120 A 
HETATM   27  C43 UNL     1     -10.490  -1.170  -5.654  1.00  0.00     0.156 C 
BRANCH  24  28
HETATM   28  C4  UNL     1     -12.113  -0.551  -3.129  1.00  0.00     0.273 C 
HETATM   29  N2  UNL     1     -12.579  -0.339  -1.843  1.00  0.00    -0.320 N 
HETATM   30  H42 UNL     1     -11.919  -0.051  -1.138  1.00  0.00     0.169 HD
HETATM   31  O1  UNL     1     -12.810  -0.942  -4.061  1.00  0.00    -0.266 OA
BRANCH  29  32
HETATM   32  C3  UNL     1     -13.881  -0.507  -1.408  1.00  0.00     0.053 A 
HETATM   33  C2  UNL     1     -14.982  -0.889  -2.132  1.00  0.00     0.120 A 
HETATM   34  N1  UNL     1     -16.067  -0.912  -1.294  1.00  0.00    -0.354 N 
HETATM   35  C1  UNL     1     -17.405  -1.269  -1.721  1.00  0.00     0.156 C 
HETATM   36  C45 UNL     1     -15.691  -0.562  -0.008  1.00  0.00     0.104 A 
HETATM   37  C44 UNL     1     -14.326  -0.298  -0.078  1.00  0.00     0.066 A 
BRANCH  36  38
HETATM   38  C46 UNL     1     -16.600  -0.490   1.125  1.00  0.00     0.268 C 
HETATM   39  N17 UNL     1     -15.993  -0.333   2.353  1.00  0.00    -0.355 N 
HETATM   40  H52 UNL     1     -14.991  -0.416   2.422  1.00  0.00     0.162 HD
HETATM   41  O8  UNL     1     -17.822  -0.581   1.024  1.00  0.00    -0.266 OA
BRANCH  39  42
HETATM   42  C47 UNL     1     -16.763  -0.309   3.582  1.00  0.00     0.130 C 
BRANCH  42  43
HETATM   43  C48 UNL     1     -17.162  -1.707   4.035  1.00  0.00     0.095 C 
BRANCH  43  44
HETATM   44  C49 UNL     1     -18.155  -1.603   5.169  1.00  0.00     0.069 C 
HETATM   45  N19 UNL     1     -19.480  -1.769   4.905  1.00  0.00    -0.389 N 
HETATM   46  H54 UNL     1     -20.135  -1.354   5.556  1.00  0.00     0.157 HD
HETATM   47  H55 UNL     1     -19.766  -1.666   3.935  1.00  0.00     0.157 HD
BRANCH  44  48
HETATM   48  N18 UNL     1     -17.724  -1.337   6.354  1.00  0.00    -0.389 N 
HETATM   49  H53 UNL     1     -18.509  -1.328   7.009  1.00  0.00     0.157 HD
ATOM     50  H18 UNL     1     -16.750  -1.162   6.601  1.00  0.00     0.157 HD
ENDBRANCH  44  48
ENDBRANCH  43  44
ENDBRANCH  42  43
ENDBRANCH  39  42
ENDBRANCH  36  38
ENDBRANCH  29  32
ENDBRANCH  24  28
ENDBRANCH  19  22
ENDBRANCH  14  18
ENDBRANCH   9  12
ENDBRANCH   1   8
BRANCH   4  51
HETATM   51  C17 UNL     1       3.173   1.790  -1.012  1.00  0.00     0.257 C 
HETATM   52  N6  UNL     1       2.806   2.326   0.209  1.00  0.00    -0.322 N 
HETATM   53  H45 UNL     1       1.931   2.821   0.302  1.00  0.00     0.169 HD
HETATM   54  O4  UNL     1       4.261   1.301  -1.294  1.00  0.00    -0.267 OA
BRANCH  52  55
HETATM   55  C18 UNL     1       3.607   2.324   1.335  1.00  0.00     0.053 A 
HETATM   56  C19 UNL     1       4.882   1.752   1.548  1.00  0.00     0.066 A 
HETATM   57  C20 UNL     1       5.290   2.018   2.852  1.00  0.00     0.105 A 
HETATM   58  N14 UNL     1       4.252   2.735   3.425  1.00  0.00    -0.354 N 
HETATM   59  C37 UNL     1       4.216   3.238   4.785  1.00  0.00     0.156 C 
HETATM   60  C38 UNL     1       3.240   2.924   2.515  1.00  0.00     0.120 A 
BRANCH  57  61
HETATM   61  C21 UNL     1       6.523   1.646   3.549  1.00  0.00     0.273 C 
HETATM   62  N7  UNL     1       7.488   1.088   2.728  1.00  0.00    -0.320 N 
HETATM   63  H46 UNL     1       7.290   1.010   1.743  1.00  0.00     0.169 HD
HETATM   64  O5  UNL     1       6.663   1.835   4.754  1.00  0.00    -0.266 OA
BRANCH  62  65
HETATM   65  C22 UNL     1       8.734   0.637   3.125  1.00  0.00     0.053 A 
HETATM   66  C23 UNL     1       9.710   0.084   2.257  1.00  0.00     0.066 A 
HETATM   67  C24 UNL     1      10.837  -0.259   3.000  1.00  0.00     0.105 A 
HETATM   68  N13 UNL     1      10.531   0.069   4.311  1.00  0.00    -0.354 N 
HETATM   69  C35 UNL     1      11.397  -0.109   5.459  1.00  0.00     0.156 C 
HETATM   70  C36 UNL     1       9.275   0.616   4.384  1.00  0.00     0.120 A 
BRANCH  67  71
HETATM   71  C25 UNL     1      12.100  -0.863   2.575  1.00  0.00     0.273 C 
HETATM   72  N8  UNL     1      12.312  -0.814   1.208  1.00  0.00    -0.320 N 
HETATM   73  H47 UNL     1      11.635  -0.333   0.637  1.00  0.00     0.169 HD
HETATM   74  O6  UNL     1      12.889  -1.347   3.382  1.00  0.00    -0.266 OA
BRANCH  72  75
HETATM   75  C26 UNL     1      13.407  -1.321   0.534  1.00  0.00     0.053 A 
HETATM   76  C27 UNL     1      13.612  -1.228  -0.864  1.00  0.00     0.066 A 
HETATM   77  C28 UNL     1      14.797  -1.875  -1.183  1.00  0.00     0.104 A 
HETATM   78  N12 UNL     1      15.348  -2.285   0.015  1.00  0.00    -0.354 N 
HETATM   79  C33 UNL     1      16.668  -2.851   0.204  1.00  0.00     0.156 C 
HETATM   80  C34 UNL     1      14.491  -1.992   1.046  1.00  0.00     0.120 A 
BRANCH  77  81
HETATM   81  C29 UNL     1      15.371  -2.026  -2.499  1.00  0.00     0.268 C 
HETATM   82  N9  UNL     1      15.829  -3.294  -2.776  1.00  0.00    -0.355 N 
HETATM   83  H48 UNL     1      15.659  -4.032  -2.107  1.00  0.00     0.162 HD
HETATM   84  O7  UNL     1      15.434  -1.115  -3.320  1.00  0.00    -0.266 OA
BRANCH  82  85
HETATM   85  C30 UNL     1      16.509  -3.618  -4.014  1.00  0.00     0.130 C 
BRANCH  85  86
HETATM   86  C31 UNL     1      18.025  -3.564  -3.883  1.00  0.00     0.089 C 
BRANCH  86  87
HETATM   87  C32 UNL     1      18.602  -2.211  -3.500  1.00  0.00     0.049 C 
HETATM   88  N10 UNL     1      19.563  -2.187  -2.637  1.00  0.00    -0.393 N 
HETATM   89  H49 UNL     1      19.890  -1.226  -2.515  1.00  0.00     0.157 HD
ATOM     90  H10 UNL     1      19.938  -3.002  -2.152  1.00  0.00     0.157 HD
BRANCH  87  91
HETATM   91  N11 UNL     1      18.150  -1.063  -4.080  1.00  0.00    -0.293 NA
HETATM   92  H50 UNL     1      18.400  -0.207  -3.600  1.00  0.00     0.125 HD
HETATM   93  H51 UNL     1      17.142  -1.042  -4.263  1.00  0.00     0.125 HD
ENDBRANCH  87  91
ENDBRANCH  86  87
ENDBRANCH  85  86
ENDBRANCH  82  85
ENDBRANCH  77  81
ENDBRANCH  72  75
ENDBRANCH  67  71
ENDBRANCH  62  65
ENDBRANCH  57  61
ENDBRANCH  52  55
ENDBRANCH   4  51
TORSDOF 22
