REMARK  20 active torsions:
REMARK  status: ('A' for Active; 'I' for Inactive)
REMARK    1  A    between atoms: C2_2  and  O1_61 
REMARK    2  A    between atoms: C3_3  and  O1_61 
REMARK    3  A    between atoms: C5_5  and  C54_54 
REMARK    4  A    between atoms: C7_7  and  N1_69 
REMARK    5  A    between atoms: C9_9  and  N2_71 
REMARK    6  A    between atoms: C10_10  and  O7_67 
REMARK    7  A    between atoms: C11_11  and  C19_19 
REMARK       I    between atoms: C19_19  and  N3_73 
REMARK    8  A    between atoms: C20_20  and  N3_73 
REMARK    9  A    between atoms: C23_23  and  N4_74 
REMARK   10  A    between atoms: C26_26  and  C27_27 
REMARK       I    between atoms: C26_26  and  N4_74 
REMARK   11  A    between atoms: C35_35  and  N5_75 
REMARK   12  A    between atoms: C36_36  and  O4_64 
REMARK   13  A    between atoms: C37_37  and  N6_77 
REMARK   14  A    between atoms: C39_39  and  O6_66 
REMARK   15  A    between atoms: C41_41  and  C43_43 
REMARK   16  A    between atoms: C43_43  and  O5_65 
REMARK   17  A    between atoms: C44_44  and  N7_79 
REMARK   18  A    between atoms: C50_50  and  O6_66 
REMARK   19  A    between atoms: C54_54  and  O8_68 
REMARK   20  A    between atoms: C55_55  and  N8_81 
ROOT
HETATM    1  C20 UNL     1       0.829   0.476   1.609  1.00  0.00     0.041 C 
HETATM    2  C21 UNL     1       0.640   1.873   1.513  1.00  0.00    -0.027 C 
HETATM    3  C22 UNL     1      -0.526   2.383   0.852  1.00  0.00    -0.027 C 
HETATM    4  C23 UNL     1      -1.464   1.481   0.303  1.00  0.00     0.041 C 
HETATM    5  C24 UNL     1      -1.324   0.113   0.555  1.00  0.00     0.032 C 
HETATM    6  C25 UNL     1      -0.194  -0.383   1.199  1.00  0.00     0.032 C 
HETATM    7  C52 UNL     1      -0.760   3.876   0.812  1.00  0.00     0.051 C 
HETATM    8  C53 UNL     1       1.614   2.843   2.144  1.00  0.00     0.051 C 
ENDROOT
BRANCH   1   9
HETATM    9  N3  UNL     1       1.976  -0.163   2.140  1.00  0.00    -0.322 N 
HETATM   10  C19 UNL     1       3.285   0.217   1.897  1.00  0.00     0.259 C 
HETATM   11  O2  UNL     1       3.659   1.110   1.144  1.00  0.00    -0.267 OA
HETATM   12  H49 UNL     1       1.857  -1.142   2.367  1.00  0.00     0.169 HD
BRANCH  10  13
HETATM   13  C11 UNL     1       4.331  -0.621   2.549  1.00  0.00     0.068 A 
HETATM   14  C10 UNL     1       5.593  -0.753   1.955  1.00  0.00     0.110 A 
HETATM   15  C9  UNL     1       6.588  -1.553   2.550  1.00  0.00     0.093 A 
HETATM   16  C18 UNL     1       6.308  -2.241   3.762  1.00  0.00     0.005 A 
HETATM   17  C13 UNL     1       5.041  -2.078   4.374  1.00  0.00    -0.022 A 
HETATM   18  C17 UNL     1       7.247  -3.085   4.398  1.00  0.00     0.014 A 
HETATM   19  C12 UNL     1       4.073  -1.264   3.767  1.00  0.00     0.032 A 
HETATM   20  C14 UNL     1       4.761  -2.733   5.585  1.00  0.00     0.012 A 
HETATM   21  C15 UNL     1       5.709  -3.556   6.192  1.00  0.00     0.001 A 
HETATM   22  C16 UNL     1       6.951  -3.735   5.597  1.00  0.00     0.001 A 
BRANCH  14  23
HETATM   23  O7  UNL     1       5.900  -0.119   0.770  1.00  0.00    -0.357 OA
HETATM   24  H47 UNL     1       5.206   0.553   0.587  1.00  0.00     0.217 HD
ENDBRANCH  14  23
BRANCH  15  25
HETATM   25  N2  UNL     1       7.843  -1.696   1.917  1.00  0.00    -0.297 N 
HETATM   26  N1  UNL     1       8.622  -0.798   2.311  1.00  0.00    -0.300 N 
ATOM     27  H1  UNL     1       8.393  -0.093   3.011  1.00  0.00     0.187 HD
ATOM     28  H2  UNL     1       8.079  -2.422   1.240  1.00  0.00     0.187 HD
BRANCH  26  29
HETATM   29  C7  UNL     1       9.858  -0.903   1.648  1.00  0.00     0.051 A 
HETATM   30  C6  UNL     1       9.971  -0.641   0.278  1.00  0.00     0.046 A 
HETATM   31  C5  UNL     1      11.212  -0.733  -0.358  1.00  0.00     0.020 A 
HETATM   32  C4  UNL     1      12.343  -1.078   0.393  1.00  0.00     0.052 A 
HETATM   33  C3  UNL     1      12.247  -1.321   1.766  1.00  0.00     0.071 A 
HETATM   34  C8  UNL     1      11.002  -1.231   2.387  1.00  0.00     0.067 A 
BRANCH  31  35
HETATM   35  C54 UNL     1      11.366  -0.472  -1.809  1.00  0.00     0.151 C 
HETATM   36  N8  UNL     1      12.494  -0.553  -2.436  1.00  0.00    -0.336 N 
ATOM     37  H8  UNL     1      13.339  -0.809  -1.926  1.00  0.00     0.168 HD
BRANCH  35  38
HETATM   38  O8  UNL     1      10.196  -0.142  -2.391  1.00  0.00    -0.345 OA
HETATM   39  H48 UNL     1      10.313   0.026  -3.338  1.00  0.00     0.219 HD
ENDBRANCH  35  38
BRANCH  36  40
HETATM   40  C55 UNL     1      12.563  -0.292  -3.807  1.00  0.00     0.034 A 
HETATM   41  C56 UNL     1      12.398  -1.326  -4.731  1.00  0.00     0.029 A 
HETATM   42  C57 UNL     1      12.460  -1.066  -6.101  1.00  0.00     0.002 A 
HETATM   43  C58 UNL     1      12.697   0.232  -6.553  1.00  0.00     0.000 A 
HETATM   44  C59 UNL     1      12.880   1.267  -5.636  1.00  0.00     0.002 A 
HETATM   45  C60 UNL     1      12.818   1.003  -4.267  1.00  0.00     0.029 A 
ENDBRANCH  36  40
ENDBRANCH  31  35
BRANCH  33  46
HETATM   46  O1  UNL     1      13.430  -1.645   2.368  1.00  0.00    -0.351 OA
BRANCH  46  47
HETATM   47  C2  UNL     1      13.473  -1.767   3.789  1.00  0.00     0.171 C 
HETATM   48  C1  UNL     1      13.162  -3.191   4.217  1.00  0.00     0.034 C 
ENDBRANCH  46  47
ENDBRANCH  33  46
ENDBRANCH  26  29
ENDBRANCH  15  25
ENDBRANCH  10  13
ENDBRANCH   1   9
BRANCH   4  49
HETATM   49  N4  UNL     1      -2.593   1.828  -0.472  1.00  0.00    -0.322 N 
HETATM   50  C26 UNL     1      -2.652   2.791  -1.462  1.00  0.00     0.259 C 
HETATM   51  O3  UNL     1      -1.730   3.524  -1.805  1.00  0.00    -0.267 OA
HETATM   52  H50 UNL     1      -3.319   1.119  -0.548  1.00  0.00     0.169 HD
BRANCH  50  53
HETATM   53  C27 UNL     1      -3.957   2.904  -2.195  1.00  0.00     0.068 A 
HETATM   54  C28 UNL     1      -4.129   4.020  -3.030  1.00  0.00     0.032 A 
HETATM   55  C29 UNL     1      -5.310   4.223  -3.763  1.00  0.00    -0.022 A 
HETATM   56  C30 UNL     1      -5.449   5.346  -4.594  1.00  0.00     0.012 A 
HETATM   57  C34 UNL     1      -6.366   3.287  -3.665  1.00  0.00     0.005 A 
HETATM   58  C31 UNL     1      -6.616   5.555  -5.328  1.00  0.00     0.001 A 
HETATM   59  C32 UNL     1      -7.660   4.643  -5.242  1.00  0.00     0.001 A 
HETATM   60  C33 UNL     1      -7.537   3.521  -4.420  1.00  0.00     0.014 A 
HETATM   61  C35 UNL     1      -6.205   2.162  -2.820  1.00  0.00     0.093 A 
HETATM   62  C36 UNL     1      -5.001   1.979  -2.106  1.00  0.00     0.110 A 
BRANCH  61  63
HETATM   63  N5  UNL     1      -7.216   1.177  -2.715  1.00  0.00    -0.297 N 
HETATM   64  N6  UNL     1      -7.871   1.348  -1.663  1.00  0.00    -0.300 N 
ATOM     65  H6  UNL     1      -7.696   2.097  -0.993  1.00  0.00     0.187 HD
ATOM     66  H5  UNL     1      -7.385   0.437  -3.396  1.00  0.00     0.187 HD
BRANCH  64  67
HETATM   67  C37 UNL     1      -8.881   0.377  -1.520  1.00  0.00     0.051 A 
HETATM   68  C38 UNL     1      -9.786   0.066  -2.545  1.00  0.00     0.067 A 
HETATM   69  C39 UNL     1     -10.791  -0.892  -2.367  1.00  0.00     0.071 A 
HETATM   70  C40 UNL     1     -10.901  -1.543  -1.141  1.00  0.00     0.052 A 
HETATM   71  C41 UNL     1     -10.020  -1.223  -0.102  1.00  0.00     0.020 A 
HETATM   72  C42 UNL     1      -9.015  -0.269  -0.291  1.00  0.00     0.046 A 
BRANCH  69  73
HETATM   73  O6  UNL     1     -11.582  -1.085  -3.464  1.00  0.00    -0.351 OA
BRANCH  73  74
HETATM   74  C50 UNL     1     -12.661  -2.016  -3.390  1.00  0.00     0.171 C 
HETATM   75  C51 UNL     1     -13.901  -1.363  -2.805  1.00  0.00     0.034 C 
ENDBRANCH  73  74
ENDBRANCH  69  73
BRANCH  71  76
HETATM   76  C43 UNL     1     -10.125  -1.901   1.200  1.00  0.00     0.151 C 
HETATM   77  N7  UNL     1     -11.118  -2.126   1.989  1.00  0.00    -0.336 N 
ATOM     78  H7  UNL     1     -10.976  -2.678   2.835  1.00  0.00     0.168 HD
BRANCH  76  79
HETATM   79  O5  UNL     1      -8.925  -2.372   1.579  1.00  0.00    -0.345 OA
HETATM   80  H46 UNL     1      -9.058  -2.821   2.432  1.00  0.00     0.219 HD
ENDBRANCH  76  79
BRANCH  77  81
HETATM   81  C44 UNL     1     -12.392  -1.620   1.698  1.00  0.00     0.034 A 
HETATM   82  C45 UNL     1     -12.662  -0.248   1.731  1.00  0.00     0.029 A 
HETATM   83  C46 UNL     1     -13.947   0.227   1.462  1.00  0.00     0.002 A 
HETATM   84  C47 UNL     1     -14.977  -0.669   1.178  1.00  0.00     0.000 A 
HETATM   85  C48 UNL     1     -14.723  -2.040   1.169  1.00  0.00     0.002 A 
HETATM   86  C49 UNL     1     -13.436  -2.511   1.435  1.00  0.00     0.029 A 
ENDBRANCH  77  81
ENDBRANCH  71  76
ENDBRANCH  64  67
ENDBRANCH  61  63
BRANCH  62  87
HETATM   87  O4  UNL     1      -4.874   0.849  -1.323  1.00  0.00    -0.357 OA
HETATM   88  H45 UNL     1      -5.732   0.378  -1.394  1.00  0.00     0.217 HD
ENDBRANCH  62  87
ENDBRANCH  50  53
ENDBRANCH   4  49
TORSDOF 20
