REMARK  0 active torsions:
REMARK  status: ('A' for Active; 'I' for Inactive)
REMARK       I    between atoms: C2_2  and  C3_3 
REMARK       I    between atoms: C3_3  and  C5_5 
REMARK       I    between atoms: C5_5  and  C6_6 
REMARK       I    between atoms: C5_5  and  N8_94 
REMARK       I    between atoms: C6_6  and  N1_87 
REMARK       I    between atoms: C7_7  and  C10_10 
REMARK       I    between atoms: C7_7  and  N1_87 
REMARK       I    between atoms: C10_10  and  N2_88 
REMARK       I    between atoms: C14_14  and  C15_15 
REMARK       I    between atoms: C15_15  and  N3_89 
REMARK       I    between atoms: C16_16  and  C18_18 
REMARK       I    between atoms: C16_16  and  C20_20 
REMARK       I    between atoms: C16_16  and  N3_89 
REMARK       I    between atoms: C20_20  and  N4_90 
REMARK       I    between atoms: C21_21  and  C22_22 
REMARK       I    between atoms: C21_21  and  C26_26 
REMARK       I    between atoms: C21_21  and  N4_90 
REMARK       I    between atoms: C22_22  and  C23_23 
REMARK       I    between atoms: C26_26  and  N5_91 
REMARK       I    between atoms: C27_27  and  C30_30 
REMARK       I    between atoms: C27_27  and  N5_91 
REMARK       I    between atoms: C30_30  and  N6_92 
REMARK       I    between atoms: C34_34  and  C35_35 
REMARK       I    between atoms: C35_35  and  N7_93 
REMARK       I    between atoms: C36_36  and  C37_37 
REMARK       I    between atoms: C36_36  and  C41_41 
REMARK       I    between atoms: C36_36  and  N7_93 
REMARK       I    between atoms: C37_37  and  C38_38 
REMARK       I    between atoms: C41_41  and  O8_78 
REMARK       I    between atoms: C42_42  and  C43_43 
REMARK       I    between atoms: C42_42  and  N8_94 
REMARK       I    between atoms: C43_43  and  N9_95 
REMARK       I    between atoms: C45_45  and  C46_46 
REMARK       I    between atoms: C45_45  and  N9_95 
REMARK       I    between atoms: C50_50  and  C51_51 
REMARK       I    between atoms: C50_50  and  N10_96 
REMARK       I    between atoms: C51_51  and  N11_97 
REMARK       I    between atoms: C54_54  and  C55_55 
REMARK       I    between atoms: C54_54  and  N11_97 
REMARK       I    between atoms: C55_55  and  C56_56 
REMARK       I    between atoms: C55_55  and  N12_98 
REMARK       I    between atoms: C56_56  and  C57_57 
REMARK       I    between atoms: C60_60  and  C61_61 
REMARK       I    between atoms: C60_60  and  N12_98 
REMARK       I    between atoms: C61_61  and  C62_62 
REMARK       I    between atoms: C61_61  and  N14_100 
REMARK       I    between atoms: C62_62  and  C63_63 
REMARK       I    between atoms: C63_63  and  C64_64 
REMARK       I    between atoms: C64_64  and  N13_99 
REMARK       I    between atoms: C65_65  and  C66_66 
REMARK       I    between atoms: C65_65  and  N14_100 
REMARK       I    between atoms: C66_66  and  N15_101 
REMARK       I    between atoms: C69_69  and  N15_101 
ROOT
HETATM    1  C1  UNL     1       2.723   3.808   1.741  1.00  0.00     0.005 C 
HETATM    2  C2  UNL     1       2.861   2.454   2.416  1.00  0.00     0.002 C 
HETATM    3  C3  UNL     1       1.591   1.575   2.406  1.00  0.00     0.013 C 
HETATM    4  C4  UNL     1       1.875   0.316   3.244  1.00  0.00     0.012 C 
HETATM    5  C5  UNL     1       1.046   1.145   1.017  1.00  0.00     0.180 C 
HETATM    6  C6  UNL     1       0.025   2.153   0.422  1.00  0.00     0.241 C 
HETATM    7  C7  UNL     1      -1.688   2.349  -1.412  1.00  0.00     0.106 C 
HETATM    8  C8  UNL     1      -2.274   1.358  -2.445  1.00  0.00     0.048 C 
HETATM    9  C9  UNL     1      -0.846   3.369  -2.207  1.00  0.00     0.048 C 
HETATM   10  C10 UNL     1      -2.940   3.079  -0.799  1.00  0.00     0.248 C 
HETATM   11  C11 UNL     1      -4.961   3.114   0.587  1.00  0.00     0.127 C 
HETATM   12  C12 UNL     1      -4.916   3.280   2.094  1.00  0.00     0.022 C 
HETATM   13  C13 UNL     1      -4.166   2.036   2.527  1.00  0.00     0.037 C 
HETATM   14  C14 UNL     1      -3.095   1.866   1.437  1.00  0.00     0.179 C 
HETATM   15  C15 UNL     1      -2.779   0.368   1.314  1.00  0.00     0.241 C 
HETATM   16  C16 UNL     1      -3.557  -1.754   0.166  1.00  0.00     0.110 C 
HETATM   17  C17 UNL     1      -2.188  -2.166  -0.403  1.00  0.00     0.049 C 
HETATM   18  C18 UNL     1      -3.878  -2.592   1.423  1.00  0.00     0.036 C 
HETATM   19  C19 UNL     1      -5.142  -2.159   2.155  1.00  0.00     0.008 C 
HETATM   20  C20 UNL     1      -4.622  -1.976  -0.961  1.00  0.00     0.246 C 
HETATM   21  C21 UNL     1      -5.563  -3.596  -2.613  1.00  0.00     0.177 C 
HETATM   22  C22 UNL     1      -4.663  -4.134  -3.741  1.00  0.00     0.038 C 
HETATM   23  C23 UNL     1      -3.656  -5.244  -3.367  1.00  0.00    -0.020 C 
HETATM   24  C24 UNL     1      -4.313  -6.505  -2.810  1.00  0.00     0.009 C 
HETATM   25  C25 UNL     1      -2.815  -5.606  -4.597  1.00  0.00     0.009 C 
HETATM   26  C26 UNL     1      -6.792  -4.488  -2.322  1.00  0.00     0.241 C 
HETATM   27  C27 UNL     1      -8.665  -4.811  -0.641  1.00  0.00     0.101 C 
HETATM   28  C28 UNL     1      -8.598  -6.338  -0.544  1.00  0.00     0.048 C 
HETATM   29  C29 UNL     1      -9.814  -4.368  -1.557  1.00  0.00     0.048 C 
HETATM   30  C30 UNL     1      -8.880  -4.189   0.772  1.00  0.00     0.228 C 
HETATM   31  C31 UNL     1      -9.947  -5.488   2.440  1.00  0.00     0.099 C 
HETATM   32  C32 UNL     1      -9.751  -4.713   3.747  1.00  0.00     0.017 C 
HETATM   33  C33 UNL     1     -10.186  -3.278   3.445  1.00  0.00     0.031 C 
HETATM   34  C34 UNL     1     -10.803  -3.374   2.056  1.00  0.00     0.158 C 
HETATM   35  C35 UNL     1     -10.968  -2.027   1.318  1.00  0.00     0.236 C 
HETATM   36  C36 UNL     1      -9.799  -0.085   0.282  1.00  0.00     0.108 C 
HETATM   37  C37 UNL     1      -9.946   1.080   1.285  1.00  0.00     0.031 C 
HETATM   38  C38 UNL     1      -8.745   1.461   2.175  1.00  0.00    -0.021 C 
HETATM   39  C39 UNL     1      -8.334   0.361   3.152  1.00  0.00     0.009 C 
HETATM   40  C40 UNL     1      -9.089   2.730   2.967  1.00  0.00     0.009 C 
HETATM   41  C41 UNL     1      -8.595   0.034  -0.668  1.00  0.00     0.189 C 
HETATM   42  C42 UNL     1       1.924   0.001  -1.020  1.00  0.00     0.240 C 
HETATM   43  C43 UNL     1       3.169  -0.220  -1.906  1.00  0.00     0.172 C 
HETATM   44  C44 UNL     1       4.326  -0.824  -1.120  1.00  0.00     0.042 C 
HETATM   45  C45 UNL     1       4.089   2.119  -2.148  1.00  0.00     0.241 C 
HETATM   46  C46 UNL     1       4.277   3.266  -3.155  1.00  0.00     0.179 C 
HETATM   47  C47 UNL     1       2.965   4.058  -3.272  1.00  0.00     0.037 C 
HETATM   48  C48 UNL     1       2.308   3.501  -4.525  1.00  0.00     0.022 C 
HETATM   49  C49 UNL     1       3.497   3.237  -5.426  1.00  0.00     0.127 C 
HETATM   50  C50 UNL     1       5.814   2.575  -5.095  1.00  0.00     0.248 C 
HETATM   51  C51 UNL     1       7.042   2.084  -4.240  1.00  0.00     0.106 C 
HETATM   52  C52 UNL     1       6.849   0.562  -4.077  1.00  0.00     0.048 C 
HETATM   53  C53 UNL     1       8.337   2.288  -5.059  1.00  0.00     0.048 C 
HETATM   54  C54 UNL     1       7.501   3.987  -2.698  1.00  0.00     0.241 C 
HETATM   55  C55 UNL     1       8.135   4.347  -1.331  1.00  0.00     0.177 C 
HETATM   56  C56 UNL     1       9.667   4.250  -1.473  1.00  0.00     0.038 C 
HETATM   57  C57 UNL     1      10.557   4.775  -0.327  1.00  0.00    -0.020 C 
HETATM   58  C58 UNL     1      10.996   3.656   0.615  1.00  0.00     0.009 C 
HETATM   59  C59 UNL     1       9.960   5.946   0.449  1.00  0.00     0.009 C 
HETATM   60  C60 UNL     1       7.740   2.308   0.109  1.00  0.00     0.241 C 
HETATM   61  C61 UNL     1       6.886   1.721   1.264  1.00  0.00     0.177 C 
HETATM   62  C62 UNL     1       6.668   2.630   2.487  1.00  0.00     0.044 C 
HETATM   63  C63 UNL     1       7.925   3.098   3.216  1.00  0.00     0.105 C 
HETATM   64  C64 UNL     1       8.718   1.948   3.781  1.00  0.00     0.215 C 
HETATM   65  C65 UNL     1       6.678  -0.599   2.164  1.00  0.00     0.246 C 
HETATM   66  C66 UNL     1       7.393  -1.982   2.226  1.00  0.00     0.106 C 
HETATM   67  C67 UNL     1       7.227  -2.614   0.830  1.00  0.00     0.048 C 
HETATM   68  C68 UNL     1       6.702  -2.895   3.249  1.00  0.00     0.048 C 
HETATM   69  C69 UNL     1       9.401  -1.528   3.690  1.00  0.00     0.214 C 
HETATM   70  C70 UNL     1      10.906  -1.470   3.668  1.00  0.00     0.117 C 
HETATM   71  O1  UNL     1      -0.053   3.333   0.744  1.00  0.00    -0.271 OA
HETATM   72  O2  UNL     1      -3.410   4.050  -1.412  1.00  0.00    -0.271 OA
HETATM   73  O3  UNL     1      -1.961  -0.184   2.046  1.00  0.00    -0.271 OA
HETATM   74  O4  UNL     1      -5.269  -1.036  -1.434  1.00  0.00    -0.271 OA
HETATM   75  O5  UNL     1      -7.273  -5.247  -3.157  1.00  0.00    -0.271 OA
HETATM   76  O6  UNL     1      -8.041  -3.449   1.293  1.00  0.00    -0.277 OA
HETATM   77  O7  UNL     1     -12.083  -1.538   1.134  1.00  0.00    -0.272 OA
HETATM   78  O8  UNL     1      -7.368  -0.218   0.008  1.00  0.00    -0.399 OA
HETATM   79  O9  UNL     1       0.841  -0.528  -1.273  1.00  0.00    -0.271 OA
HETATM   80  O10 UNL     1       4.277   2.280  -0.942  1.00  0.00    -0.271 OA
HETATM   81  O11 UNL     1       5.893   2.525  -6.332  1.00  0.00    -0.271 OA
HETATM   82  O12 UNL     1       7.344   4.831  -3.577  1.00  0.00    -0.271 OA
HETATM   83  O13 UNL     1       8.497   1.608  -0.567  1.00  0.00    -0.271 OA
HETATM   84  O14 UNL     1       9.708   1.490   3.219  1.00  0.00    -0.274 OA
HETATM   85  O15 UNL     1       5.480  -0.453   2.405  1.00  0.00    -0.271 OA
HETATM   86  O16 UNL     1       8.759  -1.326   4.716  1.00  0.00    -0.274 OA
HETATM   87  N1  UNL     1      -0.818   1.581  -0.515  1.00  0.00    -0.342 N 
HETATM   88  N2  UNL     1      -3.678   2.506   0.237  1.00  0.00    -0.337 N 
HETATM   89  N3  UNL     1      -3.588  -0.309   0.438  1.00  0.00    -0.342 N 
HETATM   90  N4  UNL     1      -4.784  -3.264  -1.416  1.00  0.00    -0.346 N 
HETATM   91  N5  UNL     1      -7.380  -4.248  -1.102  1.00  0.00    -0.342 N 
HETATM   92  N6  UNL     1     -10.097  -4.485   1.393  1.00  0.00    -0.238 NA
HETATM   93  N7  UNL     1      -9.814  -1.389   0.935  1.00  0.00    -0.353 N 
HETATM   94  N8  UNL     1       2.101   0.845   0.049  1.00  0.00    -0.346 N 
HETATM   95  N9  UNL     1       3.521   0.979  -2.667  1.00  0.00    -0.346 N 
HETATM   96  N10 UNL     1       4.570   2.827  -4.528  1.00  0.00    -0.337 N 
HETATM   97  N11 UNL     1       7.222   2.649  -2.895  1.00  0.00    -0.342 N 
HETATM   98  N12 UNL     1       7.516   3.627  -0.207  1.00  0.00    -0.346 N 
HETATM   99  N13 UNL     1       8.222   1.414   4.933  1.00  0.00    -0.370 N 
HETATM  100  N14 UNL     1       7.431   0.413   1.612  1.00  0.00    -0.346 N 
HETATM  101  N15 UNL     1       8.843  -1.847   2.474  1.00  0.00    -0.344 N 
HETATM  102  HA8 UNL     1      -6.685  -0.332  -0.688  1.00  0.00     0.209 HD
HETATM  103  HA9 UNL     1      -0.506   0.667  -0.852  1.00  0.00     0.163 HD
HETATM  104  HB0 UNL     1      -4.247   0.247  -0.106  1.00  0.00     0.163 HD
HETATM  105  HB1 UNL     1      -4.311  -4.026  -0.946  1.00  0.00     0.163 HD
HETATM  106  HB2 UNL     1      -6.982  -3.512  -0.521  1.00  0.00     0.163 HD
HETATM  107  HB3 UNL     1      -8.911  -1.775   1.213  1.00  0.00     0.163 HD
HETATM  108  HB4 UNL     1       2.912   1.463   0.007  1.00  0.00     0.163 HD
HETATM  109  HB5 UNL     1       3.473   0.922  -3.680  1.00  0.00     0.163 HD
HETATM  110  HB6 UNL     1       7.718   2.042  -2.240  1.00  0.00     0.163 HD
HETATM  111  HB7 UNL     1       6.642   4.022   0.122  1.00  0.00     0.163 HD
HETATM  112  HB8 UNL     1       7.246   1.529   5.172  1.00  0.00     0.159 HD
HETATM  113  HB9 UNL     1       8.605   0.503   5.193  1.00  0.00     0.159 HD
HETATM  114  HC0 UNL     1       8.441   0.299   1.578  1.00  0.00     0.163 HD
HETATM  115  HC1 UNL     1       9.457  -1.855   1.669  1.00  0.00     0.163 HD
ENDROOT
TORSDOF 38
