REMARK  14 active torsions:
REMARK  status: ('A' for Active; 'I' for Inactive)
REMARK    1  A    between atoms: C3_3  and  C35_35 
REMARK    2  A    between atoms: C5_5  and  N2_47 
REMARK    3  A    between atoms: C6_6  and  C7_7 
REMARK       I    between atoms: C6_6  and  N2_47 
REMARK    4  A    between atoms: C9_9  and  N4_49 
REMARK       I    between atoms: C11_11  and  N4_49 
REMARK       I    between atoms: C11_11  and  N5_50 
REMARK    5  A    between atoms: C12_12  and  N5_50 
REMARK    6  A    between atoms: C14_14  and  C17_17 
REMARK       I    between atoms: C17_17  and  N7_52 
REMARK    7  A    between atoms: C18_18  and  N7_52 
REMARK    8  A    between atoms: C20_20  and  C23_23 
REMARK       I    between atoms: C23_23  and  N9_54 
REMARK    9  A    between atoms: C24_24  and  N9_54 
REMARK   10  A    between atoms: C26_26  and  S2_74 
REMARK   11  A    between atoms: C30_30  and  S1_73 
REMARK       I    between atoms: C35_35  and  N10_55 
REMARK   12  A    between atoms: C36_36  and  N10_55 
REMARK   13  A    between atoms: C38_38  and  S4_76 
REMARK   14  A    between atoms: C42_42  and  S3_75 
ROOT
HETATM    1  C11 UNL     1       0.414   0.667   0.176  1.00  0.00     0.327 C 
HETATM    2  N4  UNL     1       1.012   1.355  -0.877  1.00  0.00    -0.294 N 
HETATM    3  N5  UNL     1      -0.968   0.814   0.104  1.00  0.00    -0.294 N 
HETATM    4  O2  UNL     1       1.012   0.028   1.033  1.00  0.00    -0.247 OA
HETATM    5  H32 UNL     1       0.422   1.978  -1.406  1.00  0.00     0.172 HD
HETATM    6  H33 UNL     1      -1.338   0.867  -0.835  1.00  0.00     0.172 HD
ENDROOT
BRANCH   2   7
HETATM    7  C9  UNL     1       2.379   1.384  -1.101  1.00  0.00     0.111 A 
HETATM    8  C10 UNL     1       3.417   0.715  -0.480  1.00  0.00     0.067 A 
HETATM    9  C7  UNL     1       4.653   1.111  -1.079  1.00  0.00     0.051 A 
HETATM   10  C8  UNL     1       4.305   2.014  -2.070  1.00  0.00     0.109 A 
HETATM   11  N3  UNL     1       2.945   2.169  -2.081  1.00  0.00    -0.346 N 
HETATM   12  C34 UNL     1       2.243   3.041  -2.996  1.00  0.00     0.157 C 
BRANCH   9  13
HETATM   13  C6  UNL     1       6.040   0.717  -0.786  1.00  0.00     0.258 C 
HETATM   14  N2  UNL     1       6.151  -0.221   0.227  1.00  0.00    -0.309 N 
HETATM   15  H31 UNL     1       5.302  -0.558   0.652  1.00  0.00     0.170 HD
HETATM   16  O1  UNL     1       6.972   1.208  -1.414  1.00  0.00    -0.267 OA
BRANCH  14  17
HETATM   17  C5  UNL     1       7.358  -0.720   0.690  1.00  0.00     0.110 A 
HETATM   18  C4  UNL     1       8.665  -0.449   0.324  1.00  0.00     0.067 A 
HETATM   19  C3  UNL     1       9.546  -1.237   1.128  1.00  0.00     0.051 A 
HETATM   20  C2  UNL     1       8.719  -1.975   1.960  1.00  0.00     0.109 A 
HETATM   21  N1  UNL     1       7.416  -1.661   1.694  1.00  0.00    -0.346 N 
HETATM   22  C1  UNL     1       6.290  -2.250   2.385  1.00  0.00     0.157 C 
BRANCH  19  23
HETATM   23  C35 UNL     1      11.017  -1.334   1.161  1.00  0.00     0.257 C 
HETATM   24  N10 UNL     1      11.657  -0.488   0.277  1.00  0.00    -0.323 N 
HETATM   25  H36 UNL     1      11.069   0.101  -0.292  1.00  0.00     0.169 HD
HETATM   26  O11 UNL     1      11.555  -2.116   1.935  1.00  0.00    -0.267 OA
BRANCH  24  27
HETATM   27  C36 UNL     1      13.047  -0.328   0.069  1.00  0.00     0.037 A 
HETATM   28  C37 UNL     1      14.039  -1.030   0.743  1.00  0.00     0.056 A 
HETATM   29  C38 UNL     1      15.400  -0.786   0.458  1.00  0.00     0.093 A 
HETATM   30  C39 UNL     1      15.805   0.173  -0.518  1.00  0.00    -0.001 A 
HETATM   31  C40 UNL     1      17.146   0.491  -0.872  1.00  0.00     0.015 A 
HETATM   32  C44 UNL     1      14.777   0.876  -1.195  1.00  0.00    -0.021 A 
HETATM   33  C41 UNL     1      17.455   1.451  -1.845  1.00  0.00     0.027 A 
HETATM   34  C42 UNL     1      16.422   2.115  -2.494  1.00  0.00     0.081 A 
HETATM   35  C43 UNL     1      15.093   1.838  -2.171  1.00  0.00     0.038 A 
HETATM   36  C45 UNL     1      13.428   0.617  -0.894  1.00  0.00     0.042 A 
BRANCH  29  37
HETATM   37  S4  UNL     1      16.643  -1.750   1.390  1.00  0.00     0.138 S 
HETATM   38  O15 UNL     1      17.404  -0.716   2.087  1.00  0.00    -0.591 OA
HETATM   39  O16 UNL     1      17.360  -2.466   0.338  1.00  0.00    -0.591 OA
HETATM   40  O17 UNL     1      15.854  -2.610   2.270  1.00  0.00    -0.591 OA
ENDBRANCH  29  37
BRANCH  34  41
HETATM   41  S3  UNL     1      16.765   3.381  -3.745  1.00  0.00     0.137 S 
HETATM   42  O12 UNL     1      16.376   2.710  -4.983  1.00  0.00    -0.591 OA
HETATM   43  O13 UNL     1      18.195   3.645  -3.603  1.00  0.00    -0.591 OA
HETATM   44  O14 UNL     1      15.895   4.483  -3.337  1.00  0.00    -0.591 OA
ENDBRANCH  34  41
ENDBRANCH  24  27
ENDBRANCH  19  23
ENDBRANCH  14  17
ENDBRANCH   9  13
ENDBRANCH   2   7
BRANCH   3  45
HETATM   45  C12 UNL     1      -1.868   0.402   1.076  1.00  0.00     0.111 A 
HETATM   46  C13 UNL     1      -3.192   0.066   0.842  1.00  0.00     0.067 A 
HETATM   47  C14 UNL     1      -3.799  -0.322   2.073  1.00  0.00     0.051 A 
HETATM   48  C15 UNL     1      -2.807  -0.185   3.027  1.00  0.00     0.109 A 
HETATM   49  N6  UNL     1      -1.666   0.306   2.435  1.00  0.00    -0.346 N 
HETATM   50  C16 UNL     1      -0.534   0.755   3.217  1.00  0.00     0.157 C 
BRANCH  47  51
HETATM   51  C17 UNL     1      -5.161  -0.790   2.366  1.00  0.00     0.258 C 
HETATM   52  N7  UNL     1      -6.056  -0.545   1.343  1.00  0.00    -0.309 N 
HETATM   53  H34 UNL     1      -5.767   0.128   0.646  1.00  0.00     0.170 HD
HETATM   54  O3  UNL     1      -5.423  -1.296   3.452  1.00  0.00    -0.267 OA
BRANCH  52  55
HETATM   55  C18 UNL     1      -7.406  -0.859   1.328  1.00  0.00     0.110 A 
HETATM   56  C19 UNL     1      -8.340  -0.239   0.517  1.00  0.00     0.067 A 
HETATM   57  C20 UNL     1      -9.637  -0.764   0.794  1.00  0.00     0.051 A 
HETATM   58  C21 UNL     1      -9.434  -1.743   1.751  1.00  0.00     0.109 A 
HETATM   59  N8  UNL     1      -8.083  -1.829   2.034  1.00  0.00    -0.346 N 
HETATM   60  C22 UNL     1      -7.548  -2.906   2.838  1.00  0.00     0.157 C 
BRANCH  57  61
HETATM   61  C23 UNL     1     -10.891  -0.328   0.156  1.00  0.00     0.257 C 
HETATM   62  N9  UNL     1     -12.020  -0.952   0.646  1.00  0.00    -0.323 N 
HETATM   63  H35 UNL     1     -11.885  -1.619   1.390  1.00  0.00     0.169 HD
HETATM   64  O4  UNL     1     -10.857   0.522  -0.726  1.00  0.00    -0.267 OA
BRANCH  62  65
HETATM   65  C24 UNL     1     -13.364  -0.776   0.252  1.00  0.00     0.037 A 
HETATM   66  C25 UNL     1     -14.312  -1.545   0.923  1.00  0.00     0.056 A 
HETATM   67  C26 UNL     1     -15.677  -1.449   0.606  1.00  0.00     0.093 A 
HETATM   68  C27 UNL     1     -16.139  -0.567  -0.408  1.00  0.00    -0.001 A 
HETATM   69  C28 UNL     1     -17.494  -0.398  -0.797  1.00  0.00     0.015 A 
HETATM   70  C32 UNL     1     -15.159   0.211  -1.085  1.00  0.00    -0.021 A 
HETATM   71  C29 UNL     1     -17.870   0.494  -1.808  1.00  0.00     0.027 A 
HETATM   72  C30 UNL     1     -16.892   1.236  -2.459  1.00  0.00     0.081 A 
HETATM   73  C31 UNL     1     -15.548   1.104  -2.099  1.00  0.00     0.038 A 
HETATM   74  C33 UNL     1     -13.794   0.095  -0.746  1.00  0.00     0.042 A 
BRANCH  67  75
HETATM   75  S2  UNL     1     -16.815  -2.512   1.555  1.00  0.00     0.138 S 
HETATM   76  O8  UNL     1     -17.691  -1.550   2.218  1.00  0.00    -0.591 OA
HETATM   77  O9  UNL     1     -17.433  -3.340   0.524  1.00  0.00    -0.591 OA
HETATM   78  O10 UNL     1     -15.931  -3.246   2.464  1.00  0.00    -0.591 OA
ENDBRANCH  67  75
BRANCH  72  79
HETATM   79  S1  UNL     1     -17.336   2.418  -3.759  1.00  0.00     0.137 S 
HETATM   80  O5  UNL     1     -16.573   3.610  -3.393  1.00  0.00    -0.591 OA
HETATM   81  O6  UNL     1     -18.786   2.558  -3.631  1.00  0.00    -0.591 OA
HETATM   82  O7  UNL     1     -16.885   1.737  -4.970  1.00  0.00    -0.591 OA
ENDBRANCH  72  79
ENDBRANCH  62  65
ENDBRANCH  57  61
ENDBRANCH  52  55
ENDBRANCH  47  51
ENDBRANCH   3  45
TORSDOF 14
