REMARK  0 active torsions:
REMARK  status: ('A' for Active; 'I' for Inactive)
REMARK       I    between atoms: C3_3  and  N19_108 
REMARK       I    between atoms: C4_4  and  O26_84 
REMARK       I    between atoms: C5_5  and  O25_83 
REMARK       I    between atoms: C6_6  and  O2_60 
REMARK       I    between atoms: C7_7  and  C8_8 
REMARK       I    between atoms: C7_7  and  O2_60 
REMARK       I    between atoms: C7_7  and  N5_91 
REMARK       I    between atoms: C8_8  and  C9_9 
REMARK       I    between atoms: C8_8  and  O4_62 
REMARK       I    between atoms: C10_10  and  C12_12 
REMARK       I    between atoms: C13_13  and  C15_15 
REMARK       I    between atoms: C15_15  and  N3_89 
REMARK       I    between atoms: C16_16  and  C17_17 
REMARK       I    between atoms: C16_16  and  N3_89 
REMARK       I    between atoms: C17_17  and  C18_18 
REMARK       I    between atoms: C18_18  and  N4_90 
REMARK       I    between atoms: C19_19  and  C20_20 
REMARK       I    between atoms: C19_19  and  N5_91 
REMARK       I    between atoms: C20_20  and  C21_21 
REMARK       I    between atoms: C20_20  and  N6_92 
REMARK       I    between atoms: C21_21  and  O6_64 
REMARK       I    between atoms: C23_23  and  C24_24 
REMARK       I    between atoms: C23_23  and  N6_92 
REMARK       I    between atoms: C24_24  and  C25_25 
REMARK       I    between atoms: C25_25  and  C26_26 
REMARK       I    between atoms: C25_25  and  O24_82 
REMARK       I    between atoms: C26_26  and  N7_93 
REMARK       I    between atoms: C28_28  and  C29_29 
REMARK       I    between atoms: C28_28  and  N7_93 
REMARK       I    between atoms: C29_29  and  C30_30 
REMARK       I    between atoms: C29_29  and  N11_98 
REMARK       I    between atoms: C30_30  and  C31_31 
REMARK       I    between atoms: C30_30  and  O9_67 
REMARK       I    between atoms: C34_34  and  O9_67 
REMARK       I    between atoms: C35_35  and  O14_72 
REMARK       I    between atoms: C36_36  and  O13_71 
REMARK       I    between atoms: C37_37  and  O12_70 
REMARK       I    between atoms: C38_38  and  C39_39 
REMARK       I    between atoms: C39_39  and  O11_69 
REMARK       I    between atoms: C40_40  and  O14_72 
REMARK       I    between atoms: C41_41  and  O20_78 
REMARK       I    between atoms: C42_42  and  O18_76 
REMARK       I    between atoms: C43_43  and  O17_75 
REMARK       I    between atoms: C44_44  and  C45_45 
REMARK       I    between atoms: C45_45  and  O16_74 
REMARK       I    between atoms: C46_46  and  O18_76 
REMARK       I    between atoms: C46_46  and  N10_97 
REMARK       I    between atoms: C47_47  and  C48_48 
REMARK       I    between atoms: C47_47  and  N11_98 
REMARK       I    between atoms: C50_50  and  N18_107 
REMARK       I    between atoms: C51_51  and  C52_52 
REMARK       I    between atoms: C52_52  and  C53_53 
REMARK       I    between atoms: C52_52  and  N15_104 
REMARK       I    between atoms: C53_53  and  C54_54 
REMARK       I    between atoms: C54_54  and  N14_103 
REMARK       I    between atoms: C55_55  and  C56_56 
REMARK       I    between atoms: C55_55  and  N15_104 
REMARK       I    between atoms: C56_56  and  C57_57 
REMARK       I    between atoms: C56_56  and  N17_106 
REMARK       I    between atoms: C57_57  and  N16_105 
ROOT
HETATM    1  C1  UNL     1       6.985   0.114   5.258  1.00  0.00     0.042 C 
HETATM    2  C2  UNL     1       7.851  -1.079   4.863  1.00  0.00     0.156 C 
HETATM    3  C3  UNL     1       7.016  -2.272   4.339  1.00  0.00     0.277 C 
HETATM    4  C4  UNL     1       7.939  -3.215   3.550  1.00  0.00     0.187 C 
HETATM    5  C5  UNL     1       8.633  -2.482   2.381  1.00  0.00     0.204 C 
HETATM    6  C6  UNL     1       8.659  -0.949   2.586  1.00  0.00     0.294 C 
HETATM    7  C7  UNL     1       7.497   0.086   0.777  1.00  0.00     0.262 C 
HETATM    8  C8  UNL     1       7.576   1.635   0.666  1.00  0.00     0.224 C 
HETATM    9  C9  UNL     1       8.935   2.137   1.064  1.00  0.00     0.084 A 
HETATM   10  C10 UNL     1      11.104   2.548   0.959  1.00  0.00     0.073 A 
HETATM   11  C11 UNL     1      10.836   3.124   2.185  1.00  0.00     0.084 A 
HETATM   12  C12 UNL     1      12.557   2.532   0.347  1.00  0.00     0.102 A 
HETATM   13  C13 UNL     1      14.752   2.918   0.227  1.00  0.00     0.108 A 
HETATM   14  C14 UNL     1      14.561   2.239  -0.967  1.00  0.00     0.087 A 
HETATM   15  C15 UNL     1      16.035   3.437   0.735  1.00  0.00     0.268 C 
HETATM   16  C16 UNL     1      18.300   4.183   0.097  1.00  0.00     0.125 C 
HETATM   17  C17 UNL     1      18.224   5.649  -0.336  1.00  0.00     0.049 C 
HETATM   18  C18 UNL     1      18.141   5.829  -1.856  1.00  0.00     0.268 C 
HETATM   19  C19 UNL     1       6.172  -1.570  -0.482  1.00  0.00     0.245 C 
HETATM   20  C20 UNL     1       4.756  -2.134  -0.679  1.00  0.00     0.205 C 
HETATM   21  C21 UNL     1       4.321  -2.982   0.550  1.00  0.00     0.146 C 
HETATM   22  C22 UNL     1       3.783  -2.175   1.728  1.00  0.00     0.042 C 
HETATM   23  C23 UNL     1       2.563  -1.297  -1.454  1.00  0.00     0.220 C 
HETATM   24  C24 UNL     1       1.836  -0.073  -1.959  1.00  0.00     0.136 C 
HETATM   25  C25 UNL     1       0.331  -0.300  -2.092  1.00  0.00     0.149 C 
HETATM   26  C26 UNL     1      -0.424  -0.589  -0.764  1.00  0.00     0.109 C 
HETATM   27  C27 UNL     1      -0.072   0.375   0.370  1.00  0.00     0.035 C 
HETATM   28  C28 UNL     1      -2.812  -1.138  -0.244  1.00  0.00     0.243 C 
HETATM   29  C29 UNL     1      -4.260  -1.012  -0.759  1.00  0.00     0.212 C 
HETATM   30  C30 UNL     1      -4.885   0.361  -0.388  1.00  0.00     0.207 C 
HETATM   31  C31 UNL     1      -5.087   0.559   1.087  1.00  0.00     0.057 A 
HETATM   32  C32 UNL     1      -6.237   0.689   1.839  1.00  0.00     0.116 A 
HETATM   33  C33 UNL     1      -4.635   0.715   3.248  1.00  0.00     0.180 A 
HETATM   34  C34 UNL     1      -4.346   1.827  -2.199  1.00  0.00     0.293 C 
HETATM   35  C35 UNL     1      -5.661   2.632  -2.410  1.00  0.00     0.211 C 
HETATM   36  C36 UNL     1      -5.381   4.137  -2.490  1.00  0.00     0.183 C 
HETATM   37  C37 UNL     1      -4.188   4.502  -1.607  1.00  0.00     0.180 C 
HETATM   38  C38 UNL     1      -2.934   3.802  -2.147  1.00  0.00     0.179 C 
HETATM   39  C39 UNL     1      -1.842   3.715  -1.072  1.00  0.00     0.198 C 
HETATM   40  C40 UNL     1      -7.605   2.576  -3.861  1.00  0.00     0.292 C 
HETATM   41  C41 UNL     1      -8.326   1.486  -4.690  1.00  0.00     0.205 C 
HETATM   42  C42 UNL     1      -9.738   1.964  -5.041  1.00  0.00     0.198 C 
HETATM   43  C43 UNL     1      -9.662   3.312  -5.775  1.00  0.00     0.181 C 
HETATM   44  C44 UNL     1      -8.853   4.332  -4.951  1.00  0.00     0.179 C 
HETATM   45  C45 UNL     1      -9.623   4.884  -3.737  1.00  0.00     0.198 C 
HETATM   46  C46 UNL     1     -10.897  -0.080  -5.278  1.00  0.00     0.358 C 
HETATM   47  C47 UNL     1      -5.015  -3.388  -0.729  1.00  0.00     0.269 C 
HETATM   48  C48 UNL     1      -5.611  -4.411   0.214  1.00  0.00     0.111 A 
HETATM   49  C49 UNL     1      -5.480  -5.779   0.048  1.00  0.00     0.009 A 
HETATM   50  C50 UNL     1      -6.058  -6.529   1.063  1.00  0.00     0.087 A 
HETATM   51  C51 UNL     1      -6.767  -4.646   2.182  1.00  0.00     0.117 A 
HETATM   52  C52 UNL     1      -7.592  -4.008   3.307  1.00  0.00     0.296 C 
HETATM   53  C53 UNL     1      -6.800  -2.807   3.851  1.00  0.00     0.146 C 
HETATM   54  C54 UNL     1      -7.358  -2.258   5.140  1.00  0.00     0.217 C 
HETATM   55  C55 UNL     1      -9.813  -4.669   2.493  1.00  0.00     0.315 C 
HETATM   56  C56 UNL     1     -11.255  -4.164   2.271  1.00  0.00     0.336 C 
HETATM   57  C57 UNL     1     -12.200  -5.346   2.003  1.00  0.00     0.250 C 
HETATM   58  C58 UNL     1      -4.765  -6.384  -1.118  1.00  0.00     0.054 C 
HETATM   59  O1  UNL     1       8.883  -0.640   3.964  1.00  0.00    -0.351 OA
HETATM   60  O2  UNL     1       7.460  -0.313   2.144  1.00  0.00    -0.331 OA
HETATM   61  O3  UNL     1      16.171   3.831   1.891  1.00  0.00    -0.266 OA
HETATM   62  O4  UNL     1       7.362   2.054  -0.697  1.00  0.00    -0.384 OA
HETATM   63  O5  UNL     1       7.168  -2.173  -0.873  1.00  0.00    -0.271 OA
HETATM   64  O6  UNL     1       5.401  -3.784   1.054  1.00  0.00    -0.393 OA
HETATM   65  O7  UNL     1       2.070  -2.417  -1.437  1.00  0.00    -0.274 OA
HETATM   66  O8  UNL     1      -2.528  -1.687   0.821  1.00  0.00    -0.271 OA
HETATM   67  O9  UNL     1      -4.125   1.492  -0.825  1.00  0.00    -0.345 OA
HETATM   68  O10 UNL     1      -3.185   2.499  -2.698  1.00  0.00    -0.348 OA
HETATM   69  O11 UNL     1      -0.590   3.361  -1.655  1.00  0.00    -0.398 OA
HETATM   70  O12 UNL     1      -4.057   5.931  -1.616  1.00  0.00    -0.390 OA
HETATM   71  O13 UNL     1      -6.524   4.883  -2.022  1.00  0.00    -0.390 OA
HETATM   72  O14 UNL     1      -6.274   2.119  -3.605  1.00  0.00    -0.346 OA
HETATM   73  O15 UNL     1      -7.569   3.813  -4.571  1.00  0.00    -0.348 OA
HETATM   74  O16 UNL     1      -8.841   5.866  -3.063  1.00  0.00    -0.398 OA
HETATM   75  O17 UNL     1     -10.983   3.794  -6.039  1.00  0.00    -0.390 OA
HETATM   76  O18 UNL     1     -10.381   0.998  -5.909  1.00  0.00    -0.293 OA
HETATM   77  O19 UNL     1     -10.816  -0.317  -4.085  1.00  0.00    -0.239 OA
HETATM   78  O20 UNL     1      -7.609   1.202  -5.910  1.00  0.00    -0.388 OA
HETATM   79  O21 UNL     1      -4.525  -3.655  -1.817  1.00  0.00    -0.266 OA
HETATM   80  O22 UNL     1      -7.969  -2.915   5.974  1.00  0.00    -0.274 OA
HETATM   81  O23 UNL     1     -11.929  -6.293   1.273  1.00  0.00    -0.271 OA
HETATM   82  O24 UNL     1      -0.249   0.876  -2.700  1.00  0.00    -0.393 OA
HETATM   83  O25 UNL     1       9.983  -2.974   2.257  1.00  0.00    -0.388 OA
HETATM   84  O26 UNL     1       7.189  -4.350   3.078  1.00  0.00    -0.391 OA
HETATM   85  N1  UNL     1      10.010   1.989   0.314  1.00  0.00    -0.349 N 
ATOM     86  H1  UNL     1      10.033   1.534  -0.599  1.00  0.00     0.166 HD
HETATM   87  N2  UNL     1      13.579   3.075   0.971  1.00  0.00    -0.344 N 
ATOM     88  H2  UNL     1      13.524   3.546   1.874  1.00  0.00     0.167 HD
HETATM   89  N3  UNL     1      17.066   3.480  -0.186  1.00  0.00    -0.356 N 
HETATM   90  N4  UNL     1      16.908   5.275  -2.424  1.00  0.00     0.078 N 
HETATM   91  N5  UNL     1       6.239  -0.402   0.241  1.00  0.00    -0.330 N 
HETATM   92  N6  UNL     1       3.846  -1.034  -1.025  1.00  0.00    -0.345 N 
HETATM   93  N7  UNL     1      -1.863  -0.541  -1.039  1.00  0.00    -0.352 N 
HETATM   94  N8  UNL     1      -5.947   0.757   3.179  1.00  0.00    -0.360 N 
ATOM     95  H8  UNL     1      -6.607   0.825   3.954  1.00  0.00     0.166 HD
HETATM   96  N9  UNL     1      -4.068   0.605   2.010  1.00  0.00    -0.352 N 
HETATM   97  N10 UNL     1     -11.521  -0.881  -6.167  1.00  0.00    -0.346 N 
HETATM   98  N11 UNL     1      -5.056  -2.108  -0.214  1.00  0.00    -0.340 N 
HETATM   99  N12 UNL     1      -6.692  -5.981   2.112  1.00  0.00    -0.335 N 
ATOM    100  H12 UNL     1      -7.106  -6.567   2.837  1.00  0.00     0.168 HD
HETATM  101  N13 UNL     1      -6.254  -3.827   1.257  1.00  0.00    -0.339 N 
ATOM    102  H13 UNL     1      -6.342  -2.814   1.332  1.00  0.00     0.167 HD
HETATM  103  N14 UNL     1      -7.054  -0.945   5.367  1.00  0.00    -0.370 N 
HETATM  104  N15 UNL     1      -8.924  -3.533   2.827  1.00  0.00     0.098 N 
HETATM  105  N16 UNL     1     -13.426  -5.239   2.602  1.00  0.00    -0.368 N 
HETATM  106  N17 UNL     1     -11.727  -3.366   3.444  1.00  0.00     0.093 N 
HETATM  107  N18 UNL     1      -6.025  -7.926   1.058  1.00  0.00    -0.288 NA
HETATM  108  N19 UNL     1       6.333  -2.993   5.430  1.00  0.00     0.088 N 
HETATM  109  S1  UNL     1       9.171   2.966   2.551  1.00  0.00    -0.084 SA
HETATM  110  S2  UNL     1      12.912   1.811  -1.165  1.00  0.00    -0.080 SA
HETATM  111  H58 UNL     1       8.218   1.924  -1.153  1.00  0.00     0.210 HD
HETATM  112  H59 UNL     1       5.683  -4.377   0.328  1.00  0.00     0.210 HD
HETATM  113  H60 UNL     1      -0.717   2.490  -2.094  1.00  0.00     0.209 HD
HETATM  114  H61 UNL     1      -3.311   6.179  -1.041  1.00  0.00     0.210 HD
HETATM  115  H62 UNL     1      -6.164   5.784  -1.855  1.00  0.00     0.210 HD
HETATM  116  H63 UNL     1      -7.991   5.429  -2.832  1.00  0.00     0.209 HD
HETATM  117  H64 UNL     1     -10.906   4.515  -6.690  1.00  0.00     0.210 HD
HETATM  118  H65 UNL     1      -8.132   0.537  -6.393  1.00  0.00     0.210 HD
HETATM  119  H66 UNL     1       0.039   0.882  -3.633  1.00  0.00     0.210 HD
HETATM  120  H67 UNL     1      10.442  -2.784   3.096  1.00  0.00     0.210 HD
HETATM  121  H68 UNL     1       6.535  -4.035   2.418  1.00  0.00     0.210 HD
HETATM  122  H69 UNL     1      16.808   3.495  -1.169  1.00  0.00     0.162 HD
HETATM  123  H70 UNL     1      16.116   5.803  -2.047  1.00  0.00     0.312 HD
HETATM  124  H71 UNL     1      16.901   5.469  -3.428  1.00  0.00     0.312 HD
HETATM  125  H72 UNL     1       5.402  -0.075   0.701  1.00  0.00     0.165 HD
HETATM  126  H73 UNL     1       4.278  -0.182  -1.371  1.00  0.00     0.163 HD
HETATM  127  H74 UNL     1      -2.145   0.096  -1.779  1.00  0.00     0.163 HD
HETATM  128  H75 UNL     1      -3.078   0.502   1.825  1.00  0.00     0.166 HD
HETATM  129  H76 UNL     1     -11.706  -0.527  -7.094  1.00  0.00     0.161 HD
HETATM  130  H77 UNL     1     -12.072  -1.646  -5.808  1.00  0.00     0.161 HD
HETATM  131  H78 UNL     1      -5.280  -2.080   0.780  1.00  0.00     0.163 HD
HETATM  132  H79 UNL     1      -7.473  -0.510   6.177  1.00  0.00     0.159 HD
HETATM  133  H80 UNL     1      -6.750  -0.326   4.614  1.00  0.00     0.159 HD
HETATM  134  H81 UNL     1      -8.773  -2.979   1.983  1.00  0.00     0.317 HD
HETATM  135  H82 UNL     1     -13.435  -4.650   3.432  1.00  0.00     0.159 HD
HETATM  136  H83 UNL     1     -14.002  -6.069   2.598  1.00  0.00     0.159 HD
HETATM  137  H84 UNL     1     -10.877  -2.979   3.874  1.00  0.00     0.314 HD
HETATM  138  H85 UNL     1     -12.237  -2.558   3.088  1.00  0.00     0.314 HD
HETATM  139  H86 UNL     1      -5.068  -8.263   1.050  1.00  0.00     0.125 HD
HETATM  140  H87 UNL     1      -6.504  -8.290   0.239  1.00  0.00     0.125 HD
HETATM  141  H88 UNL     1       5.454  -2.531   5.657  1.00  0.00     0.313 HD
HETATM  142  H89 UNL     1       6.087  -3.924   5.077  1.00  0.00     0.313 HD
ENDROOT
TORSDOF 52
