REMARK  0 active torsions:
REMARK  status: ('A' for Active; 'I' for Inactive)
REMARK       I    between atoms: C4_4  and  C5_5 
REMARK       I    between atoms: C5_5  and  N3_81 
REMARK       I    between atoms: C6_6  and  N3_81 
REMARK       I    between atoms: C8_8  and  C9_9 
REMARK       I    between atoms: C9_9  and  N6_85 
REMARK       I    between atoms: C10_10  and  N6_85 
REMARK       I    between atoms: C12_12  and  C14_14 
REMARK       I    between atoms: C14_14  and  N8_87 
REMARK       I    between atoms: C15_15  and  N8_87 
REMARK       I    between atoms: C17_17  and  C19_19 
REMARK       I    between atoms: C19_19  and  N10_89 
REMARK       I    between atoms: C20_20  and  C21_21 
REMARK       I    between atoms: C20_20  and  N10_89 
REMARK       I    between atoms: C21_21  and  C22_22 
REMARK       I    between atoms: C22_22  and  C23_23 
REMARK       I    between atoms: C23_23  and  N11_90 
REMARK       I    between atoms: C23_23  and  O14_119 
REMARK       I    between atoms: C24_24  and  N11_90 
REMARK       I    between atoms: C26_26  and  C27_27 
REMARK       I    between atoms: C27_27  and  N14_95 
REMARK       I    between atoms: C28_28  and  N14_95 
REMARK       I    between atoms: C30_30  and  C32_32 
REMARK       I    between atoms: C32_32  and  N16_97 
REMARK       I    between atoms: C33_33  and  N16_97 
REMARK       I    between atoms: C35_35  and  C37_37 
REMARK       I    between atoms: C37_37  and  N18_99 
REMARK       I    between atoms: C38_38  and  N18_99 
REMARK       I    between atoms: C40_40  and  C42_42 
REMARK       I    between atoms: C42_42  and  N20_101 
REMARK       I    between atoms: C43_43  and  C44_44 
REMARK       I    between atoms: C43_43  and  N20_101 
REMARK       I    between atoms: C44_44  and  C45_45 
REMARK       I    between atoms: C45_45  and  N21_102 
REMARK       I    between atoms: C47_47  and  C48_48 
REMARK       I    between atoms: C47_47  and  N21_102 
REMARK       I    between atoms: C48_48  and  C49_49 
REMARK       I    between atoms: C49_49  and  N22_103 
REMARK       I    between atoms: C50_50  and  N22_103 
REMARK       I    between atoms: C50_50  and  N23_105 
REMARK       I    between atoms: C50_50  and  S1_120 
REMARK       I    between atoms: C51_51  and  N23_105 
REMARK       I    between atoms: C53_53  and  C70_70 
REMARK       I    between atoms: C54_54  and  C57_57 
REMARK       I    between atoms: C68_68  and  O11_116 
REMARK       I    between atoms: C70_70  and  O13_118 
ROOT
HETATM    1  C1  UNL     1      20.988   3.821  -6.984  1.00  0.00     0.157 C 
HETATM    2  C2  UNL     1      23.419   4.354  -6.735  1.00  0.00     0.109 A 
HETATM    3  C3  UNL     1      24.310   4.210  -5.700  1.00  0.00     0.107 A 
HETATM    4  C4  UNL     1      22.434   3.461  -4.958  1.00  0.00     0.176 A 
HETATM    5  C5  UNL     1      21.443   2.882  -4.056  1.00  0.00     0.291 C 
HETATM    6  C6  UNL     1      21.349   2.036  -1.770  1.00  0.00     0.125 A 
HETATM    7  C7  UNL     1      21.922   1.746  -0.555  1.00  0.00     0.140 A 
HETATM    8  C8  UNL     1      19.772   1.202  -0.574  1.00  0.00     0.178 A 
HETATM    9  C9  UNL     1      18.449   0.727  -0.194  1.00  0.00     0.290 C 
HETATM   10  C10 UNL     1      16.214   0.532  -1.201  1.00  0.00     0.053 A 
HETATM   11  C11 UNL     1      15.378   0.700  -2.277  1.00  0.00     0.120 A 
HETATM   12  C12 UNL     1      14.132  -0.197  -0.615  1.00  0.00     0.105 A 
HETATM   13  C13 UNL     1      15.436  -0.023  -0.160  1.00  0.00     0.066 A 
HETATM   14  C14 UNL     1      12.963  -0.726   0.082  1.00  0.00     0.273 C 
HETATM   15  C15 UNL     1      12.360  -2.096   2.031  1.00  0.00     0.053 A 
HETATM   16  C16 UNL     1      12.732  -2.856   3.115  1.00  0.00     0.120 A 
HETATM   17  C17 UNL     1      10.470  -2.870   3.055  1.00  0.00     0.104 A 
HETATM   18  C18 UNL     1      10.948  -2.112   1.990  1.00  0.00     0.066 A 
HETATM   19  C19 UNL     1       9.099  -3.176   3.438  1.00  0.00     0.268 C 
HETATM   20  C20 UNL     1       6.726  -2.647   2.979  1.00  0.00     0.123 C 
HETATM   21  C21 UNL     1       5.893  -1.451   2.524  1.00  0.00     0.027 C 
HETATM   22  C22 UNL     1       5.776  -0.337   3.564  1.00  0.00     0.085 C 
HETATM   23  C23 UNL     1       7.079   0.123   4.164  1.00  0.00     0.116 C 
HETATM   24  C24 UNL     1       8.025   1.168   2.364  1.00  0.00     0.124 A 
HETATM   25  C25 UNL     1       9.160   1.274   1.603  1.00  0.00     0.140 A 
HETATM   26  C26 UNL     1       7.370   1.870   0.445  1.00  0.00     0.178 A 
HETATM   27  C27 UNL     1       6.487   2.310  -0.629  1.00  0.00     0.290 C 
HETATM   28  C28 UNL     1       4.083   2.780  -0.937  1.00  0.00     0.053 A 
HETATM   29  C29 UNL     1       4.040   3.139  -2.259  1.00  0.00     0.120 A 
HETATM   30  C30 UNL     1       1.918   3.279  -1.481  1.00  0.00     0.105 A 
HETATM   31  C31 UNL     1       2.757   2.870  -0.447  1.00  0.00     0.066 A 
HETATM   32  C32 UNL     1       0.476   3.525  -1.486  1.00  0.00     0.273 C 
HETATM   33  C33 UNL     1      -1.538   3.113  -0.122  1.00  0.00     0.053 A 
HETATM   34  C34 UNL     1      -2.508   3.736  -0.869  1.00  0.00     0.120 A 
HETATM   35  C35 UNL     1      -3.537   2.885   0.946  1.00  0.00     0.105 A 
HETATM   36  C36 UNL     1      -2.189   2.559   1.006  1.00  0.00     0.066 A 
HETATM   37  C37 UNL     1      -4.555   2.530   1.919  1.00  0.00     0.273 C 
HETATM   38  C38 UNL     1      -6.466   3.515   3.099  1.00  0.00     0.053 A 
HETATM   39  C39 UNL     1      -7.223   4.610   3.437  1.00  0.00     0.120 A 
HETATM   40  C40 UNL     1      -8.111   2.838   4.532  1.00  0.00     0.104 A 
HETATM   41  C41 UNL     1      -7.024   2.408   3.777  1.00  0.00     0.066 A 
HETATM   42  C42 UNL     1      -9.006   2.083   5.396  1.00  0.00     0.268 C 
HETATM   43  C43 UNL     1      -9.441  -0.129   6.419  1.00  0.00     0.125 C 
HETATM   44  C44 UNL     1     -10.657  -0.684   5.675  1.00  0.00     0.050 C 
HETATM   45  C45 UNL     1     -10.249  -1.595   4.508  1.00  0.00     0.273 C 
HETATM   46  C46 UNL     1     -12.141  -3.130   4.545  1.00  0.00     0.309 C 
HETATM   47  C47 UNL     1     -12.175  -1.203   3.055  1.00  0.00     0.273 C 
HETATM   48  C48 UNL     1     -13.067  -1.773   1.944  1.00  0.00     0.050 C 
HETATM   49  C49 UNL     1     -12.272  -2.509   0.865  1.00  0.00     0.123 C 
HETATM   50  C50 UNL     1     -12.826  -3.430  -1.297  1.00  0.00     0.137 C 
HETATM   51  C51 UNL     1     -15.037  -3.730  -2.469  1.00  0.00     0.035 A 
HETATM   52  C52 UNL     1     -15.608  -4.119  -3.691  1.00  0.00     0.048 A 
HETATM   53  C53 UNL     1     -16.998  -4.069  -3.907  1.00  0.00     0.051 A 
HETATM   54  C54 UNL     1     -17.857  -3.650  -2.880  1.00  0.00    -0.007 A 
HETATM   55  C55 UNL     1     -17.289  -3.254  -1.660  1.00  0.00     0.015 A 
HETATM   56  C56 UNL     1     -15.902  -3.289  -1.466  1.00  0.00     0.030 A 
HETATM   57  C57 UNL     1     -19.342  -3.633  -2.989  1.00  0.00     0.001 A 
HETATM   58  C58 UNL     1     -20.061  -4.768  -2.769  1.00  0.00     0.010 A 
HETATM   59  C59 UNL     1     -19.422  -6.044  -2.413  1.00  0.00     0.019 A 
HETATM   60  C60 UNL     1     -20.135  -7.163  -2.224  1.00  0.00     0.056 A 
HETATM   61  C61 UNL     1     -21.607  -7.153  -2.360  1.00  0.00     0.174 A 
HETATM   62  C62 UNL     1     -22.254  -5.868  -2.687  1.00  0.00     0.092 A 
HETATM   63  C63 UNL     1     -21.531  -4.755  -2.875  1.00  0.00     0.091 A 
HETATM   64  C64 UNL     1     -21.490  -2.433  -3.386  1.00  0.00     0.089 A 
HETATM   65  C65 UNL     1     -20.097  -2.394  -3.314  1.00  0.00     0.010 A 
HETATM   66  C66 UNL     1     -19.457  -1.167  -3.560  1.00  0.00     0.018 A 
HETATM   67  C67 UNL     1     -20.193  -0.016  -3.862  1.00  0.00     0.037 A 
HETATM   68  C68 UNL     1     -21.579  -0.089  -3.921  1.00  0.00     0.068 A 
HETATM   69  C69 UNL     1     -22.233  -1.289  -3.686  1.00  0.00     0.074 A 
HETATM   70  C70 UNL     1     -17.467  -4.522  -5.232  1.00  0.00     0.177 C 
HETATM   71  C71 UNL     1      -9.201   5.088   4.874  1.00  0.00     0.156 C 
HETATM   72  C72 UNL     1      -4.984   3.940  -0.836  1.00  0.00     0.156 C 
HETATM   73  C73 UNL     1       2.325   3.872  -3.903  1.00  0.00     0.156 C 
HETATM   74  C74 UNL     1       9.583   1.983  -0.753  1.00  0.00     0.157 C 
HETATM   75  C75 UNL     1      11.593  -4.169   4.900  1.00  0.00     0.156 C 
HETATM   76  C76 UNL     1      12.987   0.270  -2.815  1.00  0.00     0.156 C 
HETATM   77  C77 UNL     1      21.022   0.757   1.561  1.00  0.00     0.157 C 
HETATM   78  N1  UNL     1      22.231   3.876  -6.253  1.00  0.00    -0.342 N 
HETATM   79  N2  UNL     1      23.699   3.658  -4.604  1.00  0.00    -0.346 N 
ATOM     80  H2  UNL     1      24.127   3.443  -3.703  1.00  0.00     0.167 HD
HETATM   81  N3  UNL     1      22.006   2.587  -2.833  1.00  0.00    -0.305 N 
HETATM   82  N4  UNL     1      20.909   1.216   0.198  1.00  0.00    -0.339 N 
HETATM   83  N5  UNL     1      20.030   1.700  -1.774  1.00  0.00    -0.323 N 
ATOM     84  H5  UNL     1      19.372   1.810  -2.546  1.00  0.00     0.169 HD
HETATM   85  N6  UNL     1      17.546   0.876  -1.229  1.00  0.00    -0.319 N 
HETATM   86  N7  UNL     1      14.126   0.265  -1.921  1.00  0.00    -0.354 N 
HETATM   87  N8  UNL     1      13.274  -1.480   1.200  1.00  0.00    -0.320 N 
HETATM   88  N9  UNL     1      11.593  -3.328   3.720  1.00  0.00    -0.354 N 
HETATM   89  N10 UNL     1       8.142  -2.407   2.817  1.00  0.00    -0.356 N 
HETATM   90  N11 UNL     1       8.087   0.770   3.691  1.00  0.00    -0.326 N 
ATOM     91  H11 UNL     1       8.900   0.982   4.270  1.00  0.00     0.169 HD
HETATM   92  N12 UNL     1       8.735   1.715   0.383  1.00  0.00    -0.339 N 
HETATM   93  N13 UNL     1       6.924   1.554   1.657  1.00  0.00    -0.323 N 
ATOM     94  H13 UNL     1       5.960   1.592   1.989  1.00  0.00     0.169 HD
HETATM   95  N14 UNL     1       5.179   2.402  -0.191  1.00  0.00    -0.319 N 
HETATM   96  N15 UNL     1       2.743   3.449  -2.582  1.00  0.00    -0.354 N 
HETATM   97  N16 UNL     1      -0.183   3.016  -0.380  1.00  0.00    -0.320 N 
HETATM   98  N17 UNL     1      -3.718   3.555  -0.248  1.00  0.00    -0.354 N 
HETATM   99  N18 UNL     1      -5.388   3.585   2.239  1.00  0.00    -0.320 N 
HETATM  100  N19 UNL     1      -8.211   4.199   4.298  1.00  0.00    -0.354 N 
HETATM  101  N20 UNL     1      -8.645   0.770   5.610  1.00  0.00    -0.356 N 
HETATM  102  N21 UNL     1     -11.344  -2.209   3.735  1.00  0.00     0.084 N 
HETATM  103  N22 UNL     1     -13.198  -2.894  -0.192  1.00  0.00    -0.371 N 
ATOM    104  H22 UNL     1     -14.194  -2.729  -0.046  1.00  0.00     0.161 HD
HETATM  105  N23 UNL     1     -13.640  -3.791  -2.338  1.00  0.00    -0.337 N 
HETATM  106  O1  UNL     1      20.274   2.700  -4.384  1.00  0.00    -0.264 OA
HETATM  107  O2  UNL     1      18.196   0.255   0.911  1.00  0.00    -0.264 OA
HETATM  108  O3  UNL     1      11.820  -0.516  -0.318  1.00  0.00    -0.266 OA
HETATM  109  O4  UNL     1       8.802  -4.045   4.254  1.00  0.00    -0.266 OA
HETATM  110  O5  UNL     1       6.885   2.555  -1.764  1.00  0.00    -0.264 OA
HETATM  111  O6  UNL     1      -0.076   4.120  -2.407  1.00  0.00    -0.266 OA
HETATM  112  O7  UNL     1      -4.607   1.412   2.420  1.00  0.00    -0.266 OA
HETATM  113  O8  UNL     1     -10.015   2.562   5.907  1.00  0.00    -0.266 OA
HETATM  114  O9  UNL     1     -22.264  -8.173  -2.199  1.00  0.00    -0.288 OA
HETATM  115  O10 UNL     1     -22.204  -3.580  -3.173  1.00  0.00    -0.309 OA
HETATM  116  O11 UNL     1     -22.337   1.006  -4.211  1.00  0.00    -0.361 OA
HETATM  117  O12 UNL     1     -17.013  -5.467  -5.850  1.00  0.00    -0.646 OA
HETATM  118  O13 UNL     1     -18.402  -3.714  -5.754  1.00  0.00    -0.773 OA
HETATM  119  O14 UNL     1       7.183  -0.245   5.458  1.00  0.00    -0.349 OA
HETATM  120  S1  UNL     1     -11.148  -3.807  -1.699  1.00  0.00    -0.107 SA
HETATM  121  H69 UNL     1      22.992   2.805  -2.736  1.00  0.00     0.170 HD
HETATM  122  H70 UNL     1      17.927   1.279  -2.085  1.00  0.00     0.169 HD
HETATM  123  H71 UNL     1      14.247  -1.635   1.420  1.00  0.00     0.169 HD
HETATM  124  H72 UNL     1       8.440  -1.737   2.123  1.00  0.00     0.162 HD
HETATM  125  H73 UNL     1       5.035   2.169   0.787  1.00  0.00     0.169 HD
HETATM  126  H74 UNL     1       0.349   2.486   0.292  1.00  0.00     0.169 HD
HETATM  127  H75 UNL     1      -5.150   4.502   1.890  1.00  0.00     0.169 HD
HETATM  128  H76 UNL     1      -7.798   0.416   5.190  1.00  0.00     0.162 HD
HETATM  129  H77 UNL     1     -13.146  -4.192  -3.123  1.00  0.00     0.168 HD
HETATM  130  H78 UNL     1     -21.749   1.766  -4.351  1.00  0.00     0.217 HD
HETATM  131  H79 UNL     1     -18.614  -4.105  -6.627  1.00  0.00     0.167 HD
HETATM  132  H80 UNL     1       8.054   0.055   5.769  1.00  0.00     0.219 HD
HETATM  133  H81 UNL     1     -10.660  -3.828  -0.454  1.00  0.00     0.110 HD
ENDROOT
TORSDOF 37
