REMARK  23 active torsions:
REMARK  status: ('A' for Active; 'I' for Inactive)
REMARK    1  A    between atoms: C5_5  and  C6_6 
REMARK    2  A    between atoms: C6_6  and  O1_64 
REMARK    3  A    between atoms: C7_7  and  C8_8 
REMARK    4  A    between atoms: C7_7  and  O1_64 
REMARK    5  A    between atoms: C8_8  and  C9_9 
REMARK    6  A    between atoms: C8_8  and  C15_15 
REMARK    7  A    between atoms: C8_8  and  O9_72 
REMARK    8  A    between atoms: C17_17  and  O3_66 
REMARK    9  A    between atoms: C21_21  and  C22_22 
REMARK   10  A    between atoms: C21_21  and  O3_66 
REMARK   11  A    between atoms: C25_25  and  C28_28 
REMARK       I    between atoms: C28_28  and  N2_60 
REMARK   12  A    between atoms: C29_29  and  N2_60 
REMARK   13  A    between atoms: C31_31  and  N3_61 
REMARK   14  A    between atoms: C33_33  and  C34_34 
REMARK       I    between atoms: C33_33  and  N3_61 
REMARK   15  A    between atoms: C37_37  and  C40_40 
REMARK   16  A    between atoms: C40_40  and  N4_62 
REMARK   17  A    between atoms: C41_41  and  C42_42 
REMARK   18  A    between atoms: C41_41  and  N4_62 
REMARK   19  A    between atoms: C42_42  and  C43_43 
REMARK   20  A    between atoms: C42_42  and  O8_71 
REMARK   21  A    between atoms: C49_49  and  O7_70 
REMARK   22  A    between atoms: C52_52  and  C53_53 
REMARK   23  A    between atoms: C52_52  and  N1_59 
ROOT
HETATM    1  C22 UNL     1      -2.467  -4.841   3.239  1.00  0.00    -0.034 A 
HETATM    2  C23 UNL     1      -1.306  -4.323   3.834  1.00  0.00     0.010 A 
HETATM    3  C24 UNL     1      -0.767  -3.109   3.401  1.00  0.00     0.017 A 
HETATM    4  C25 UNL     1      -1.384  -2.403   2.362  1.00  0.00     0.032 A 
HETATM    5  C26 UNL     1      -2.548  -2.909   1.772  1.00  0.00     0.017 A 
HETATM    6  C27 UNL     1      -3.083  -4.124   2.205  1.00  0.00     0.010 A 
ENDROOT
BRANCH   4   7
HETATM    7  C28 UNL     1      -0.869  -1.090   1.895  1.00  0.00     0.252 C 
HETATM    8  N2  UNL     1       0.501  -0.922   1.926  1.00  0.00    -0.352 N 
HETATM    9  H53 UNL     1       1.077  -1.720   2.164  1.00  0.00     0.163 HD
HETATM   10  O4  UNL     1      -1.648  -0.235   1.489  1.00  0.00    -0.268 OA
BRANCH   8  11
HETATM   11  C29 UNL     1       1.136   0.341   1.489  1.00  0.00     0.088 C 
HETATM   12  C30 UNL     1       2.680   0.289   1.462  1.00  0.00     0.050 C 
HETATM   13  C31 UNL     1       2.584  -0.125  -0.025  1.00  0.00     0.088 C 
HETATM   14  C32 UNL     1       1.189   0.537  -0.045  1.00  0.00     0.050 C 
BRANCH  13  15
HETATM   15  N3  UNL     1       3.576   0.512  -0.907  1.00  0.00    -0.352 N 
HETATM   16  C33 UNL     1       4.901   0.118  -0.901  1.00  0.00     0.252 C 
HETATM   17  O5  UNL     1       5.337  -0.762  -0.166  1.00  0.00    -0.268 OA
HETATM   18  H54 UNL     1       3.262   1.110  -1.661  1.00  0.00     0.163 HD
BRANCH  16  19
HETATM   19  C34 UNL     1       5.800   0.797  -1.873  1.00  0.00     0.032 A 
HETATM   20  C35 UNL     1       5.584   2.117  -2.288  1.00  0.00     0.017 A 
HETATM   21  C36 UNL     1       6.460   2.715  -3.199  1.00  0.00     0.010 A 
HETATM   22  C37 UNL     1       7.565   2.008  -3.699  1.00  0.00    -0.030 A 
HETATM   23  C38 UNL     1       7.780   0.691  -3.268  1.00  0.00     0.010 A 
HETATM   24  C39 UNL     1       6.907   0.092  -2.356  1.00  0.00     0.017 A 
BRANCH  22  25
HETATM   25  C40 UNL     1       8.517   2.661  -4.676  1.00  0.00     0.308 C 
BRANCH  25  26
HETATM   26  N4  UNL     1       9.353   3.699  -4.069  1.00  0.00     0.090 N 
HETATM   27  H55 UNL     1       8.767   4.290  -3.482  1.00  0.00     0.316 HD
BRANCH  26  28
HETATM   28  C41 UNL     1      10.461   3.169  -3.256  1.00  0.00     0.306 C 
BRANCH  28  29
HETATM   29  C42 UNL     1      11.860   3.123  -3.931  1.00  0.00     0.180 C 
BRANCH  29  30
HETATM   30  C43 UNL     1      11.980   2.198  -5.136  1.00  0.00    -0.015 A 
HETATM   31  C44 UNL     1      11.676   2.561  -6.471  1.00  0.00     0.003 A 
HETATM   32  C45 UNL     1      11.166   3.884  -6.865  1.00  0.00     0.020 A 
HETATM   33  C48 UNL     1      11.852   1.611  -7.502  1.00  0.00     0.079 A 
HETATM   34  C46 UNL     1      10.952   4.198  -8.148  1.00  0.00     0.075 A 
HETATM   35  C47 UNL     1      11.227   3.229  -9.227  1.00  0.00     0.245 A 
HETATM   36  N5  UNL     1      11.632   1.983  -8.841  1.00  0.00    -0.321 N 
HETATM   37  O6  UNL     1      11.086   3.534 -10.405  1.00  0.00    -0.268 OA
HETATM   38  H56 UNL     1      11.878   1.363  -9.598  1.00  0.00     0.169 HD
HETATM   39  C49 UNL     1      12.269   0.311  -7.207  1.00  0.00     0.093 A 
HETATM   40  C50 UNL     1      12.570  -0.053  -5.905  1.00  0.00     0.039 A 
HETATM   41  C51 UNL     1      12.427   0.881  -4.881  1.00  0.00     0.013 A 
BRANCH  39  42
HETATM   42  O7  UNL     1      12.370  -0.658  -8.165  1.00  0.00    -0.358 OA
HETATM   43  H57 UNL     1      11.671  -0.491  -8.818  1.00  0.00     0.217 HD
ENDBRANCH  39  42
ENDBRANCH  29  30
BRANCH  29  44
HETATM   44  O8  UNL     1      12.362   4.438  -4.179  1.00  0.00    -0.389 OA
HETATM   45  H58 UNL     1      13.056   4.359  -4.855  1.00  0.00     0.210 HD
ENDBRANCH  29  44
ENDBRANCH  28  29
ENDBRANCH  26  28
ENDBRANCH  25  26
ENDBRANCH  22  25
ENDBRANCH  16  19
ENDBRANCH  13  15
ENDBRANCH   8  11
ENDBRANCH   4   7
BRANCH   1  46
HETATM   46  C21 UNL     1      -3.063  -6.136   3.740  1.00  0.00     0.214 C 
BRANCH  46  47
HETATM   47  O3  UNL     1      -3.457  -6.013   5.115  1.00  0.00    -0.347 OA
BRANCH  47  48
HETATM   48  C17 UNL     1      -4.796  -5.751   5.220  1.00  0.00     0.069 A 
HETATM   49  C16 UNL     1      -5.249  -4.429   5.189  1.00  0.00     0.047 A 
HETATM   50  C15 UNL     1      -6.619  -4.144   5.299  1.00  0.00    -0.007 A 
HETATM   51  C20 UNL     1      -7.503  -5.233   5.468  1.00  0.00     0.011 A 
HETATM   52  C19 UNL     1      -7.038  -6.549   5.531  1.00  0.00     0.003 A 
HETATM   53  C18 UNL     1      -5.678  -6.809   5.412  1.00  0.00     0.037 A 
BRANCH  50  54
HETATM   54  C8  UNL     1      -7.189  -2.719   5.226  1.00  0.00     0.201 C 
BRANCH  54  55
HETATM   55  C7  UNL     1      -6.122  -1.589   5.319  1.00  0.00     0.303 C 
HETATM   56  O2  UNL     1      -5.925  -0.947   6.350  1.00  0.00    -0.261 OA
BRANCH  55  57
HETATM   57  O1  UNL     1      -5.450  -1.407   4.148  1.00  0.00    -0.318 OA
BRANCH  57  58
HETATM   58  C6  UNL     1      -4.536  -0.300   4.069  1.00  0.00     0.183 C 
BRANCH  58  59
HETATM   59  C5  UNL     1      -5.101   0.797   3.159  1.00  0.00     0.013 C 
HETATM   60  C1  UNL     1      -6.386   1.411   3.723  1.00  0.00     0.037 C 
HETATM   61  C2  UNL     1      -6.905   2.547   2.831  1.00  0.00     0.273 C 
HETATM   62  N1  UNL     1      -6.627   2.361   1.398  1.00  0.00     0.092 N 
HETATM   63  C3  UNL     1      -6.558   0.942   1.046  1.00  0.00     0.273 C 
HETATM   64  C4  UNL     1      -5.347   0.289   1.724  1.00  0.00     0.037 C 
BRANCH  62  65
HETATM   65  C52 UNL     1      -7.600   3.103   0.583  1.00  0.00     0.311 C 
BRANCH  65  66
HETATM   66  C53 UNL     1      -7.197   3.247  -0.870  1.00  0.00    -0.030 A 
HETATM   67  C54 UNL     1      -8.100   2.926  -1.895  1.00  0.00     0.009 A 
HETATM   68  C55 UNL     1      -7.737   3.082  -3.234  1.00  0.00     0.001 A 
HETATM   69  C56 UNL     1      -6.472   3.564  -3.564  1.00  0.00     0.000 A 
HETATM   70  C57 UNL     1      -5.568   3.893  -2.556  1.00  0.00     0.001 A 
HETATM   71  C58 UNL     1      -5.929   3.739  -1.217  1.00  0.00     0.009 A 
ENDBRANCH  65  66
ENDBRANCH  62  65
ENDBRANCH  58  59
ENDBRANCH  57  58
ENDBRANCH  55  57
ENDBRANCH  54  55
BRANCH  54  72
HETATM   72  C9  UNL     1      -8.096  -2.492   4.001  1.00  0.00    -0.009 A 
HETATM   73  C10 UNL     1      -7.725  -2.959   2.725  1.00  0.00     0.011 A 
HETATM   74  C11 UNL     1      -8.526  -2.715   1.607  1.00  0.00     0.001 A 
HETATM   75  C12 UNL     1      -9.709  -1.992   1.741  1.00  0.00     0.000 A 
HETATM   76  C13 UNL     1     -10.090  -1.513   2.991  1.00  0.00     0.001 A 
HETATM   77  C14 UNL     1      -9.290  -1.757   4.110  1.00  0.00     0.011 A 
ENDBRANCH  54  72
BRANCH  54  78
HETATM   78  O9  UNL     1      -8.007  -2.602   6.419  1.00  0.00    -0.371 OA
HETATM   79  H59 UNL     1      -7.427  -2.199   7.094  1.00  0.00     0.212 HD
ENDBRANCH  54  78
ENDBRANCH  50  54
ENDBRANCH  47  48
ENDBRANCH  46  47
ENDBRANCH   1  46
TORSDOF 23
