REMARK  16 active torsions:
REMARK  status: ('A' for Active; 'I' for Inactive)
REMARK    1  A    between atoms: C8_8  and  N1_48 
REMARK    2  A    between atoms: C9_9  and  N7_54 
REMARK    3  A    between atoms: C11_11  and  C14_14 
REMARK    4  A    between atoms: C17_17  and  C20_20 
REMARK       I    between atoms: C20_20  and  N3_50 
REMARK    5  A    between atoms: C21_21  and  C22_22 
REMARK    6  A    between atoms: C21_21  and  N3_50 
REMARK    7  A    between atoms: C22_22  and  C23_23 
REMARK    8  A    between atoms: C23_23  and  C24_24 
REMARK    9  A    between atoms: C24_24  and  C25_25 
REMARK   10  A    between atoms: C25_25  and  C26_26 
REMARK   11  A    between atoms: C26_26  and  C27_27 
REMARK   12  A    between atoms: C27_27  and  N4_51 
REMARK   13  A    between atoms: C28_28  and  N4_51 
REMARK   14  A    between atoms: C36_36  and  N5_52 
REMARK   15  A    between atoms: C41_41  and  C42_42 
REMARK       I    between atoms: C41_41  and  N7_54 
REMARK   16  A    between atoms: C46_46  and  C47_47 
ROOT
HETATM    1  C14 UNL     1      -2.931   0.460   1.512  1.00  0.00     0.013 A 
HETATM    2  C15 UNL     1      -1.787   1.101   1.008  1.00  0.00     0.128 A 
HETATM    3  C16 UNL     1      -0.692   1.415   1.814  1.00  0.00     0.060 A 
HETATM    4  C17 UNL     1      -0.714   1.079   3.169  1.00  0.00     0.035 A 
HETATM    5  C18 UNL     1      -1.846   0.455   3.702  1.00  0.00     0.018 A 
HETATM    6  C19 UNL     1      -2.939   0.146   2.883  1.00  0.00     0.016 A 
HETATM    7  F1  UNL     1      -1.722   1.448  -0.287  1.00  0.00    -0.205 F 
ENDROOT
BRANCH   4   8
HETATM    8  C20 UNL     1       0.423   1.387   4.080  1.00  0.00     0.251 C 
HETATM    9  N3  UNL     1       1.672   1.470   3.499  1.00  0.00    -0.357 N 
HETATM   10  H46 UNL     1       1.800   1.153   2.549  1.00  0.00     0.162 HD
HETATM   11  O1  UNL     1       0.225   1.521   5.282  1.00  0.00    -0.268 OA
BRANCH   9  12
HETATM   12  C21 UNL     1       2.862   1.673   4.302  1.00  0.00     0.123 C 
BRANCH  12  13
HETATM   13  C22 UNL     1       3.363   0.384   4.956  1.00  0.00     0.020 C 
BRANCH  13  14
HETATM   14  C23 UNL     1       3.717  -0.742   3.978  1.00  0.00     0.002 C 
BRANCH  14  15
HETATM   15  C24 UNL     1       4.860  -0.385   3.025  1.00  0.00     0.000 C 
BRANCH  15  16
HETATM   16  C25 UNL     1       5.241  -1.583   2.150  1.00  0.00     0.002 C 
BRANCH  16  17
HETATM   17  C26 UNL     1       6.306  -1.250   1.102  1.00  0.00     0.020 C 
BRANCH  17  18
HETATM   18  C27 UNL     1       7.678  -0.949   1.707  1.00  0.00     0.119 C 
BRANCH  18  19
HETATM   19  N4  UNL     1       8.651  -0.736   0.647  1.00  0.00    -0.389 N 
HETATM   20  H47 UNL     1       9.393  -1.440   0.596  1.00  0.00     0.159 HD
BRANCH  19  21
HETATM   21  C28 UNL     1       9.028   0.518   0.194  1.00  0.00     0.044 A 
HETATM   22  C29 UNL     1       8.238   1.671   0.342  1.00  0.00     0.030 A 
HETATM   23  C30 UNL     1       8.619   2.921  -0.200  1.00  0.00     0.003 A 
HETATM   24  C31 UNL     1       9.802   3.054  -0.926  1.00  0.00     0.018 A 
HETATM   25  C32 UNL     1      10.565   1.917  -1.082  1.00  0.00     0.050 A 
HETATM   26  C33 UNL     1      10.192   0.694  -0.546  1.00  0.00     0.074 A 
HETATM   27  C35 UNL     1      11.830   1.729  -1.786  1.00  0.00     0.262 A 
HETATM   28  C34 UNL     1      11.240  -0.267  -0.906  1.00  0.00     0.264 A 
HETATM   29  N5  UNL     1      12.189   0.421  -1.612  1.00  0.00    -0.266 N 
HETATM   30  O2  UNL     1      11.226  -1.447  -0.605  1.00  0.00    -0.267 OA
HETATM   31  O3  UNL     1      12.418   2.608  -2.387  1.00  0.00    -0.267 OA
BRANCH  29  32
HETATM   32  C36 UNL     1      13.338  -0.175  -2.275  1.00  0.00     0.189 C 
HETATM   33  C37 UNL     1      14.174  -1.089  -1.382  1.00  0.00     0.045 C 
HETATM   34  C38 UNL     1      15.360  -1.615  -2.177  1.00  0.00     0.106 C 
HETATM   35  C39 UNL     1      14.907  -2.328  -3.430  1.00  0.00     0.224 C 
HETATM   36  N6  UNL     1      13.743  -1.882  -4.005  1.00  0.00    -0.296 N 
HETATM   37  O4  UNL     1      15.565  -3.227  -3.947  1.00  0.00    -0.273 OA
HETATM   38  C40 UNL     1      12.868  -0.936  -3.519  1.00  0.00     0.247 C 
HETATM   39  H48 UNL     1      13.442  -2.377  -4.834  1.00  0.00     0.171 HD
HETATM   40  O5  UNL     1      11.815  -0.702  -4.109  1.00  0.00    -0.271 OA
ENDBRANCH  29  32
ENDBRANCH  19  21
ENDBRANCH  18  19
ENDBRANCH  17  18
ENDBRANCH  16  17
ENDBRANCH  15  16
ENDBRANCH  14  15
ENDBRANCH  13  14
ENDBRANCH  12  13
ENDBRANCH   9  12
ENDBRANCH   4   8
BRANCH   1  41
HETATM   41  C11 UNL     1      -4.085   0.129   0.653  1.00  0.00    -0.021 A 
HETATM   42  C10 UNL     1      -5.398   0.434   1.056  1.00  0.00     0.043 A 
HETATM   43  C9  UNL     1      -6.492   0.114   0.248  1.00  0.00     0.057 A 
HETATM   44  C8  UNL     1      -6.300  -0.515  -1.003  1.00  0.00     0.037 A 
HETATM   45  C13 UNL     1      -4.998  -0.822  -1.407  1.00  0.00     0.027 A 
HETATM   46  C12 UNL     1      -3.909  -0.505  -0.589  1.00  0.00     0.014 A 
BRANCH  43  47
HETATM   47  N7  UNL     1      -7.836   0.364   0.596  1.00  0.00    -0.321 N 
HETATM   48  C41 UNL     1      -8.333   0.866   1.770  1.00  0.00     0.258 C 
HETATM   49  O6  UNL     1      -7.711   1.202   2.768  1.00  0.00    -0.267 OA
HETATM   50  H49 UNL     1      -8.472   0.057  -0.139  1.00  0.00     0.169 HD
BRANCH  48  51
HETATM   51  C42 UNL     1      -9.822   0.921   1.772  1.00  0.00     0.062 A 
HETATM   52  C43 UNL     1     -10.441   0.032   2.564  1.00  0.00     0.109 A 
HETATM   53  N8  UNL     1     -11.812  -0.001   2.627  1.00  0.00    -0.333 N 
HETATM   54  C44 UNL     1     -12.633   0.846   1.925  1.00  0.00     0.245 A 
HETATM   55  H50 UNL     1     -12.280  -0.673   3.227  1.00  0.00     0.168 HD
HETATM   56  C45 UNL     1     -11.946   1.846   1.070  1.00  0.00     0.091 A 
HETATM   57  O7  UNL     1     -13.854   0.797   1.985  1.00  0.00    -0.268 OA
HETATM   58  C46 UNL     1     -10.600   1.880   0.996  1.00  0.00     0.070 A 
BRANCH  58  59
HETATM   59  C47 UNL     1      -9.877   2.894   0.165  1.00  0.00     0.418 C 
HETATM   60  F2  UNL     1      -9.274   2.315  -0.903  1.00  0.00    -0.166 F 
HETATM   61  F3  UNL     1      -8.926   3.561   0.859  1.00  0.00    -0.166 F 
HETATM   62  F4  UNL     1     -10.718   3.834  -0.341  1.00  0.00    -0.166 F 
ENDBRANCH  58  59
ENDBRANCH  48  51
ENDBRANCH  43  47
BRANCH  44  63
HETATM   63  N1  UNL     1      -7.441  -0.798  -1.795  1.00  0.00    -0.277 NA
HETATM   64  C3  UNL     1      -7.573  -2.217  -2.179  1.00  0.00     0.131 C 
HETATM   65  C2  UNL     1      -8.987  -2.479  -2.808  1.00  0.00     0.232 C 
HETATM   66  C1  UNL     1      -9.907  -3.144  -1.772  1.00  0.00     0.044 C 
HETATM   67  N2  UNL     1      -9.590  -1.318  -3.544  1.00  0.00     0.095 N 
HETATM   68  C5  UNL     1      -8.486  -0.462  -4.064  1.00  0.00     0.232 C 
HETATM   69  C6  UNL     1     -10.553  -0.553  -2.749  1.00  0.00     0.310 C 
HETATM   70  C4  UNL     1      -7.555   0.126  -2.956  1.00  0.00     0.131 C 
HETATM   71  C7  UNL     1      -8.965   0.643  -5.010  1.00  0.00     0.044 C 
ENDBRANCH  44  63
ENDBRANCH   1  41
TORSDOF 16
