REMARK  0 active torsions:
REMARK  status: ('A' for Active; 'I' for Inactive)
REMARK       I    between atoms: C2_2  and  N1_89 
REMARK       I    between atoms: C3_3  and  N1_89 
REMARK       I    between atoms: C4_4  and  O22_88 
REMARK       I    between atoms: C6_6  and  C24_24 
REMARK       I    between atoms: C6_6  and  O9_75 
REMARK       I    between atoms: C7_7  and  C8_8 
REMARK       I    between atoms: C8_8  and  C9_9 
REMARK       I    between atoms: C8_8  and  O6_72 
REMARK       I    between atoms: C9_9  and  C10_10 
REMARK       I    between atoms: C9_9  and  O5_71 
REMARK       I    between atoms: C10_10  and  N2_90 
REMARK       I    between atoms: C11_11  and  C12_12 
REMARK       I    between atoms: C11_11  and  N2_90 
REMARK       I    between atoms: C15_15  and  C18_18 
REMARK       I    between atoms: C21_21  and  O4_70 
REMARK       I    between atoms: C24_24  and  O8_74 
REMARK       I    between atoms: C25_25  and  C26_26 
REMARK       I    between atoms: C25_25  and  O9_75 
REMARK       I    between atoms: C26_26  and  C27_27 
REMARK       I    between atoms: C27_27  and  S1_95 
REMARK       I    between atoms: C28_28  and  C29_29 
REMARK       I    between atoms: C28_28  and  S1_95 
REMARK       I    between atoms: C29_29  and  N3_91 
REMARK       I    between atoms: C30_30  and  C31_31 
REMARK       I    between atoms: C30_30  and  N3_91 
REMARK       I    between atoms: C34_34  and  C37_37 
REMARK       I    between atoms: C37_37  and  N4_92 
REMARK       I    between atoms: C38_38  and  C39_39 
REMARK       I    between atoms: C38_38  and  N4_92 
REMARK       I    between atoms: C39_39  and  S2_96 
REMARK       I    between atoms: C40_40  and  C41_41 
REMARK       I    between atoms: C40_40  and  S2_96 
REMARK       I    between atoms: C41_41  and  C42_42 
REMARK       I    between atoms: C42_42  and  O12_78 
REMARK       I    between atoms: C43_43  and  C66_66 
REMARK       I    between atoms: C43_43  and  O12_78 
REMARK       I    between atoms: C45_45  and  O19_85 
REMARK       I    between atoms: C46_46  and  N6_94 
REMARK       I    between atoms: C47_47  and  C48_48 
REMARK       I    between atoms: C48_48  and  C49_49 
REMARK       I    between atoms: C48_48  and  O17_83 
REMARK       I    between atoms: C49_49  and  C50_50 
REMARK       I    between atoms: C49_49  and  O16_82 
REMARK       I    between atoms: C50_50  and  N5_93 
REMARK       I    between atoms: C51_51  and  C52_52 
REMARK       I    between atoms: C51_51  and  N5_93 
REMARK       I    between atoms: C55_55  and  C58_58 
REMARK       I    between atoms: C61_61  and  O15_81 
REMARK       I    between atoms: C64_64  and  N6_94 
REMARK       I    between atoms: C66_66  and  O21_87 
ROOT
HETATM    1  C1  UNL     1       6.884   0.718   1.551  1.00  0.00     0.117 C 
HETATM    2  C2  UNL     1       5.689   0.433   0.685  1.00  0.00     0.214 C 
HETATM    3  C3  UNL     1       3.899  -1.212   0.194  1.00  0.00     0.145 C 
HETATM    4  C4  UNL     1       2.692  -0.332   0.596  1.00  0.00     0.149 C 
HETATM    5  C5  UNL     1       1.389  -1.118   0.729  1.00  0.00     0.114 C 
HETATM    6  C6  UNL     1       1.267  -2.267  -0.288  1.00  0.00     0.255 C 
HETATM    7  C7  UNL     1       3.563  -2.698   0.429  1.00  0.00     0.182 C 
HETATM    8  C8  UNL     1       4.737  -3.631   0.025  1.00  0.00     0.179 C 
HETATM    9  C9  UNL     1       4.661  -5.068   0.592  1.00  0.00     0.167 C 
HETATM   10  C10 UNL     1       4.711  -5.171   2.125  1.00  0.00     0.157 C 
HETATM   11  C11 UNL     1       6.321  -3.542   3.083  1.00  0.00     0.251 C 
HETATM   12  C12 UNL     1       7.645  -3.351   3.732  1.00  0.00     0.032 A 
HETATM   13  C13 UNL     1       7.785  -2.319   4.665  1.00  0.00     0.018 A 
HETATM   14  C14 UNL     1       9.018  -2.097   5.287  1.00  0.00     0.013 A 
HETATM   15  C15 UNL     1      10.136  -2.892   4.985  1.00  0.00    -0.026 A 
HETATM   16  C16 UNL     1       9.981  -3.915   4.033  1.00  0.00     0.013 A 
HETATM   17  C17 UNL     1       8.750  -4.143   3.407  1.00  0.00     0.018 A 
HETATM   18  C18 UNL     1      11.433  -2.654   5.638  1.00  0.00    -0.026 A 
HETATM   19  C19 UNL     1      12.034  -1.384   5.613  1.00  0.00     0.015 A 
HETATM   20  C20 UNL     1      13.265  -1.159   6.233  1.00  0.00     0.037 A 
HETATM   21  C21 UNL     1      13.908  -2.201   6.886  1.00  0.00     0.065 A 
HETATM   22  C22 UNL     1      13.341  -3.469   6.929  1.00  0.00     0.037 A 
HETATM   23  C23 UNL     1      12.108  -3.691   6.306  1.00  0.00     0.015 A 
HETATM   24  C24 UNL     1       0.100  -3.185   0.208  1.00  0.00     0.205 C 
HETATM   25  C25 UNL     1       0.875  -2.491  -2.663  1.00  0.00     0.172 C 
HETATM   26  C26 UNL     1       1.048  -1.639  -3.920  1.00  0.00     0.036 C 
HETATM   27  C27 UNL     1       2.428  -0.978  -3.942  1.00  0.00     0.076 C 
HETATM   28  C28 UNL     1       4.140   1.015  -4.956  1.00  0.00     0.093 C 
HETATM   29  C29 UNL     1       4.335   1.539  -3.525  1.00  0.00     0.133 C 
HETATM   30  C30 UNL     1       2.916   3.557  -3.467  1.00  0.00     0.251 C 
HETATM   31  C31 UNL     1       1.635   4.164  -3.001  1.00  0.00     0.032 A 
HETATM   32  C32 UNL     1       0.578   3.394  -2.501  1.00  0.00     0.018 A 
HETATM   33  C33 UNL     1      -0.610   4.014  -2.105  1.00  0.00     0.018 A 
HETATM   34  C34 UNL     1      -0.762   5.398  -2.216  1.00  0.00     0.032 A 
HETATM   35  C35 UNL     1       0.284   6.174  -2.724  1.00  0.00     0.018 A 
HETATM   36  C36 UNL     1       1.477   5.555  -3.116  1.00  0.00     0.018 A 
HETATM   37  C37 UNL     1      -2.054   6.000  -1.796  1.00  0.00     0.251 C 
HETATM   38  C38 UNL     1      -3.136   7.761  -0.479  1.00  0.00     0.133 C 
HETATM   39  C39 UNL     1      -3.513   7.031   0.817  1.00  0.00     0.093 C 
HETATM   40  C40 UNL     1      -1.104   6.033   1.885  1.00  0.00     0.076 C 
HETATM   41  C41 UNL     1      -1.223   4.880   2.879  1.00  0.00     0.036 C 
HETATM   42  C42 UNL     1      -2.417   3.956   2.650  1.00  0.00     0.172 C 
HETATM   43  C43 UNL     1      -3.092   2.225   1.068  1.00  0.00     0.255 C 
HETATM   44  C44 UNL     1      -2.320   1.050   1.692  1.00  0.00     0.114 C 
HETATM   45  C45 UNL     1      -2.836  -0.291   1.203  1.00  0.00     0.149 C 
HETATM   46  C46 UNL     1      -2.835  -0.349  -0.335  1.00  0.00     0.145 C 
HETATM   47  C47 UNL     1      -3.603   0.869  -0.889  1.00  0.00     0.182 C 
HETATM   48  C48 UNL     1      -3.597   0.909  -2.435  1.00  0.00     0.179 C 
HETATM   49  C49 UNL     1      -4.061   2.232  -3.080  1.00  0.00     0.167 C 
HETATM   50  C50 UNL     1      -5.313   2.896  -2.485  1.00  0.00     0.157 C 
HETATM   51  C51 UNL     1      -7.094   1.260  -3.063  1.00  0.00     0.251 C 
HETATM   52  C52 UNL     1      -8.249   0.465  -2.567  1.00  0.00     0.032 A 
HETATM   53  C53 UNL     1      -9.293   0.185  -3.454  1.00  0.00     0.018 A 
HETATM   54  C54 UNL     1     -10.394  -0.569  -3.033  1.00  0.00     0.013 A 
HETATM   55  C55 UNL     1     -10.471  -1.070  -1.723  1.00  0.00    -0.026 A 
HETATM   56  C56 UNL     1      -9.407  -0.792  -0.848  1.00  0.00     0.013 A 
HETATM   57  C57 UNL     1      -8.305  -0.034  -1.262  1.00  0.00     0.018 A 
HETATM   58  C58 UNL     1     -11.626  -1.869  -1.282  1.00  0.00    -0.026 A 
HETATM   59  C59 UNL     1     -12.340  -1.530  -0.120  1.00  0.00     0.015 A 
HETATM   60  C60 UNL     1     -13.436  -2.289   0.299  1.00  0.00     0.037 A 
HETATM   61  C61 UNL     1     -13.828  -3.397  -0.440  1.00  0.00     0.065 A 
HETATM   62  C62 UNL     1     -13.143  -3.759  -1.593  1.00  0.00     0.037 A 
HETATM   63  C63 UNL     1     -12.047  -2.996  -2.009  1.00  0.00     0.015 A 
HETATM   64  C64 UNL     1      -4.598  -2.109  -0.628  1.00  0.00     0.214 C 
HETATM   65  C65 UNL     1      -4.852  -3.480  -1.191  1.00  0.00     0.117 C 
HETATM   66  C66 UNL     1      -4.584   2.300   1.586  1.00  0.00     0.205 C 
HETATM   67  O1  UNL     1       5.252   1.238  -0.133  1.00  0.00    -0.274 OA
HETATM   68  O2  UNL     1       2.448  -3.071  -0.398  1.00  0.00    -0.336 OA
HETATM   69  O3  UNL     1       5.574  -2.582   2.917  1.00  0.00    -0.268 OA
HETATM   70  O4  UNL     1      15.107  -1.937   7.478  1.00  0.00    -0.361 OA
HETATM   71  O5  UNL     1       3.479  -5.736   0.128  1.00  0.00    -0.391 OA
HETATM   72  O6  UNL     1       4.760  -3.744  -1.418  1.00  0.00    -0.390 OA
HETATM   73  O7  UNL     1      -1.029  -3.279  -0.257  1.00  0.00    -0.646 OA
HETATM   74  O8  UNL     1       0.444  -3.934   1.285  1.00  0.00    -0.772 OA
HETATM   75  O9  UNL     1       1.028  -1.634  -1.538  1.00  0.00    -0.346 OA
HETATM   76  O10 UNL     1       3.658   4.186  -4.216  1.00  0.00    -0.268 OA
HETATM   77  O11 UNL     1      -3.111   5.406  -1.977  1.00  0.00    -0.268 OA
HETATM   78  O12 UNL     1      -2.344   3.424   1.333  1.00  0.00    -0.346 OA
HETATM   79  O13 UNL     1      -3.047   2.085  -0.363  1.00  0.00    -0.336 OA
HETATM   80  O14 UNL     1      -6.804   1.258  -4.256  1.00  0.00    -0.268 OA
HETATM   81  O15 UNL     1     -14.902  -4.110   0.004  1.00  0.00    -0.361 OA
HETATM   82  O16 UNL     1      -4.227   1.969  -4.492  1.00  0.00    -0.391 OA
HETATM   83  O17 UNL     1      -2.275   0.625  -2.948  1.00  0.00    -0.390 OA
HETATM   84  O18 UNL     1      -5.464  -1.470  -0.040  1.00  0.00    -0.274 OA
HETATM   85  O19 UNL     1      -1.999  -1.331   1.731  1.00  0.00    -0.393 OA
HETATM   86  O20 UNL     1      -5.594   2.495   0.922  1.00  0.00    -0.646 OA
HETATM   87  O21 UNL     1      -4.709   2.118   2.921  1.00  0.00    -0.772 OA
HETATM   88  O22 UNL     1       2.550   0.755  -0.329  1.00  0.00    -0.393 OA
HETATM   89  N1  UNL     1       5.100  -0.785   0.914  1.00  0.00    -0.352 N 
HETATM   90  N2  UNL     1       6.002  -4.825   2.697  1.00  0.00    -0.354 N 
HETATM   91  N3  UNL     1       3.210   2.292  -3.012  1.00  0.00    -0.356 N 
HETATM   92  N4  UNL     1      -1.969   7.213  -1.142  1.00  0.00    -0.356 N 
HETATM   93  N5  UNL     1      -6.388   1.981  -2.129  1.00  0.00    -0.354 N 
HETATM   94  N6  UNL     1      -3.317  -1.652  -0.806  1.00  0.00    -0.352 N 
HETATM   95  S1  UNL     1       2.543   0.185  -5.334  1.00  0.00    -0.167 SA
HETATM   96  S2  UNL     1      -2.332   7.350   2.183  1.00  0.00    -0.167 SA
HETATM   97  H65 UNL     1      15.437  -2.751   7.892  1.00  0.00     0.217 HD
HETATM   98  H66 UNL     1       3.489  -5.636  -0.843  1.00  0.00     0.210 HD
HETATM   99  H67 UNL     1       3.840  -3.575  -1.706  1.00  0.00     0.210 HD
HETATM  100  H68 UNL     1      -0.339  -4.486   1.481  1.00  0.00     0.167 HD
HETATM  101  H69 UNL     1     -15.064  -4.841  -0.614  1.00  0.00     0.217 HD
HETATM  102  H70 UNL     1      -5.162   1.686  -4.616  1.00  0.00     0.210 HD
HETATM  103  H71 UNL     1      -2.317   0.877  -3.894  1.00  0.00     0.210 HD
HETATM  104  H72 UNL     1      -2.239  -2.130   1.221  1.00  0.00     0.210 HD
HETATM  105  H73 UNL     1      -5.675   2.191   3.081  1.00  0.00     0.167 HD
HETATM  106  H74 UNL     1       3.431   1.198  -0.352  1.00  0.00     0.210 HD
HETATM  107  H75 UNL     1       5.352  -1.289   1.769  1.00  0.00     0.163 HD
HETATM  108  H76 UNL     1       6.599  -5.591   2.982  1.00  0.00     0.162 HD
HETATM  109  H77 UNL     1       2.606   1.828  -2.342  1.00  0.00     0.162 HD
HETATM  110  H78 UNL     1      -1.061   7.540  -0.839  1.00  0.00     0.162 HD
HETATM  111  H79 UNL     1      -6.750   2.074  -1.185  1.00  0.00     0.162 HD
HETATM  112  H80 UNL     1      -2.609  -2.284  -1.175  1.00  0.00     0.163 HD
ENDROOT
TORSDOF 44
