REMARK  0 active torsions:
REMARK  status: ('A' for Active; 'I' for Inactive)
REMARK       I    between atoms: C3_3  and  N1_44 
REMARK       I    between atoms: C4_4  and  C5_5 
REMARK       I    between atoms: C4_4  and  N1_44 
REMARK       I    between atoms: C11_11  and  N4_48 
REMARK       I    between atoms: C13_13  and  N1_44 
REMARK       I    between atoms: C16_16  and  C19_19 
REMARK       I    between atoms: C19_19  and  N5_49 
REMARK       I    between atoms: C20_20  and  C21_21 
REMARK       I    between atoms: C20_20  and  N5_49 
REMARK       I    between atoms: C21_21  and  C22_22 
REMARK       I    between atoms: C22_22  and  C23_23 
REMARK       I    between atoms: C23_23  and  O4_58 
REMARK       I    between atoms: C24_24  and  C25_25 
REMARK       I    between atoms: C24_24  and  O4_58 
REMARK       I    between atoms: C25_25  and  S1_71 
REMARK       I    between atoms: C26_26  and  C27_27 
REMARK       I    between atoms: C26_26  and  S2_72 
REMARK       I    between atoms: C27_27  and  C28_28 
REMARK       I    between atoms: C28_28  and  N6_50 
REMARK       I    between atoms: C29_29  and  C30_30 
REMARK       I    between atoms: C29_29  and  C32_32 
REMARK       I    between atoms: C29_29  and  N6_50 
REMARK       I    between atoms: C30_30  and  C31_31 
REMARK       I    between atoms: C31_31  and  O7_61 
REMARK       I    between atoms: C32_32  and  N7_51 
REMARK       I    between atoms: C33_33  and  C34_34 
REMARK       I    between atoms: C33_33  and  C36_36 
REMARK       I    between atoms: C33_33  and  N7_51 
REMARK       I    between atoms: C34_34  and  C35_35 
REMARK       I    between atoms: C35_35  and  O10_64 
REMARK       I    between atoms: C36_36  and  N8_52 
REMARK       I    between atoms: C37_37  and  C38_38 
REMARK       I    between atoms: C37_37  and  C40_40 
REMARK       I    between atoms: C37_37  and  N8_52 
REMARK       I    between atoms: C38_38  and  C39_39 
REMARK       I    between atoms: C39_39  and  O13_67 
REMARK       I    between atoms: C40_40  and  N9_53 
REMARK       I    between atoms: C41_41  and  C42_42 
REMARK       I    between atoms: C41_41  and  C43_43 
REMARK       I    between atoms: C41_41  and  N9_53 
REMARK       I    between atoms: C42_42  and  N10_54 
REMARK       I    between atoms: C43_43  and  O16_70 
REMARK       I    between atoms: S1_71  and  S2_72 
ROOT
HETATM    1  C1  UNL     1      10.462  -2.001   4.349  1.00  0.00     0.014 C 
HETATM    2  C2  UNL     1      10.896  -0.983   3.883  1.00  0.00    -0.098 C 
HETATM    3  C3  UNL     1      11.431   0.264   3.310  1.00  0.00     0.216 C 
HETATM    4  C4  UNL     1      12.359  -0.423   1.111  1.00  0.00     0.162 C 
HETATM    5  C5  UNL     1      13.629   0.399   0.982  1.00  0.00    -0.039 A 
HETATM    6  C6  UNL     1      14.874  -0.246   1.015  1.00  0.00     0.028 A 
HETATM    7  C7  UNL     1      16.052   0.496   0.865  1.00  0.00     0.059 A 
HETATM    8  C8  UNL     1      16.028   1.877   0.670  1.00  0.00     0.050 A 
HETATM    9  C9  UNL     1      14.790   2.517   0.625  1.00  0.00     0.031 A 
HETATM   10  C10 UNL     1      13.604   1.788   0.774  1.00  0.00     0.011 A 
HETATM   11  C11 UNL     1      18.337   2.027   0.562  1.00  0.00     0.158 A 
HETATM   12  C12 UNL     1      17.372  -0.155   0.900  1.00  0.00     0.260 A 
HETATM   13  C13 UNL     1      10.128   0.684   1.217  1.00  0.00     0.031 A 
HETATM   14  C14 UNL     1      10.078   0.942  -0.166  1.00  0.00     0.030 A 
HETATM   15  C15 UNL     1       8.904   1.353  -0.813  1.00  0.00     0.019 A 
HETATM   16  C16 UNL     1       7.724   1.519  -0.090  1.00  0.00     0.032 A 
HETATM   17  C17 UNL     1       7.743   1.302   1.286  1.00  0.00     0.019 A 
HETATM   18  C18 UNL     1       8.927   0.894   1.920  1.00  0.00     0.030 A 
HETATM   19  C19 UNL     1       6.497   1.952  -0.813  1.00  0.00     0.251 C 
HETATM   20  C20 UNL     1       4.033   1.863  -0.912  1.00  0.00     0.123 C 
HETATM   21  C21 UNL     1       3.742   0.913  -2.075  1.00  0.00     0.029 C 
HETATM   22  C22 UNL     1       2.439   1.251  -2.788  1.00  0.00     0.113 C 
HETATM   23  C23 UNL     1       1.245   0.896  -1.941  1.00  0.00     0.258 C 
HETATM   24  C24 UNL     1      -0.308  -0.829  -1.450  1.00  0.00     0.189 C 
HETATM   25  C25 UNL     1       0.135  -1.315  -0.074  1.00  0.00     0.113 C 
HETATM   26  C26 UNL     1      -3.772  -1.146  -0.206  1.00  0.00     0.095 C 
HETATM   27  C27 UNL     1      -4.497  -2.485  -0.151  1.00  0.00     0.114 C 
HETATM   28  C28 UNL     1      -5.456  -2.620  -1.312  1.00  0.00     0.219 C 
HETATM   29  C29 UNL     1      -7.293  -4.016  -2.244  1.00  0.00     0.186 C 
HETATM   30  C30 UNL     1      -7.522  -5.511  -2.424  1.00  0.00     0.144 C 
HETATM   31  C31 UNL     1      -6.409  -6.109  -3.224  1.00  0.00     0.141 C 
HETATM   32  C32 UNL     1      -8.599  -3.314  -1.810  1.00  0.00     0.241 C 
HETATM   33  C33 UNL     1      -9.570  -1.107  -1.175  1.00  0.00     0.186 C 
HETATM   34  C34 UNL     1     -10.354  -0.595  -2.378  1.00  0.00     0.144 C 
HETATM   35  C35 UNL     1      -9.647   0.535  -3.064  1.00  0.00     0.141 C 
HETATM   36  C36 UNL     1      -9.008   0.034  -0.303  1.00  0.00     0.241 C 
HETATM   37  C37 UNL     1      -9.615   1.981   1.132  1.00  0.00     0.186 C 
HETATM   38  C38 UNL     1      -9.252   3.187   0.273  1.00  0.00     0.144 C 
HETATM   39  C39 UNL     1      -8.661   4.268   1.129  1.00  0.00     0.141 C 
HETATM   40  C40 UNL     1     -10.866   2.251   1.987  1.00  0.00     0.241 C 
HETATM   41  C41 UNL     1     -12.707   0.995   3.005  1.00  0.00     0.210 C 
HETATM   42  C42 UNL     1     -13.547   0.779   1.723  1.00  0.00     0.302 C 
HETATM   43  C43 UNL     1     -12.895  -0.193   3.937  1.00  0.00     0.165 C 
HETATM   44  N1  UNL     1      11.303   0.288   1.847  1.00  0.00    -0.366 N 
HETATM   45  N2  UNL     1      17.198   2.639   0.515  1.00  0.00    -0.332 N 
ATOM     46  H2  UNL     1      17.151   3.647   0.369  1.00  0.00     0.168 HD
HETATM   47  N3  UNL     1      18.448   0.684   0.761  1.00  0.00    -0.299 N 
HETATM   48  N4  UNL     1      19.493   2.719   0.421  1.00  0.00    -0.274 NA
HETATM   49  N5  UNL     1       5.294   1.550  -0.270  1.00  0.00    -0.357 N 
HETATM   50  N6  UNL     1      -6.238  -3.752  -1.253  1.00  0.00    -0.347 N 
HETATM   51  N7  UNL     1      -8.463  -1.968  -1.571  1.00  0.00    -0.345 N 
HETATM   52  N8  UNL     1      -9.962   0.810   0.307  1.00  0.00    -0.345 N 
HETATM   53  N9  UNL     1     -11.290   1.130   2.678  1.00  0.00    -0.343 N 
HETATM   54  N10 UNL     1     -12.907  -0.114   0.720  1.00  0.00     0.080 N 
HETATM   55  O1  UNL     1      17.498  -1.366   1.041  1.00  0.00    -0.267 OA
HETATM   56  O2  UNL     1       6.588   2.601  -1.849  1.00  0.00    -0.268 OA
HETATM   57  O3  UNL     1       0.759   1.635  -1.097  1.00  0.00    -0.265 OA
HETATM   58  O4  UNL     1       0.828  -0.370  -2.210  1.00  0.00    -0.321 OA
HETATM   59  O5  UNL     1      -5.551  -1.805  -2.223  1.00  0.00    -0.274 OA
HETATM   60  O6  UNL     1      -5.472  -6.753  -2.782  1.00  0.00    -0.650 OA
HETATM   61  O7  UNL     1      -6.520  -5.866  -4.543  1.00  0.00    -0.776 OA
HETATM   62  O8  UNL     1      -9.685  -3.883  -1.734  1.00  0.00    -0.271 OA
HETATM   63  O9  UNL     1      -9.906   1.720  -2.931  1.00  0.00    -0.650 OA
HETATM   64  O10 UNL     1      -8.649   0.125  -3.863  1.00  0.00    -0.776 OA
HETATM   65  O11 UNL     1      -7.803   0.237  -0.169  1.00  0.00    -0.271 OA
HETATM   66  O12 UNL     1      -8.246   4.162   2.270  1.00  0.00    -0.650 OA
HETATM   67  O13 UNL     1      -8.581   5.446   0.479  1.00  0.00    -0.776 OA
HETATM   68  O14 UNL     1     -11.453   3.327   2.040  1.00  0.00    -0.271 OA
HETATM   69  O15 UNL     1     -12.227  -1.217   3.945  1.00  0.00    -0.648 OA
HETATM   70  O16 UNL     1     -13.945  -0.055   4.771  1.00  0.00    -0.775 OA
HETATM   71  S1  UNL     1      -1.126  -2.298   0.808  1.00  0.00    -0.096 SA
HETATM   72  S2  UNL     1      -2.621  -0.939   1.199  1.00  0.00    -0.097 SA
HETATM   73  H39 UNL     1      19.353   0.243   0.734  1.00  0.00     0.171 HD
HETATM   74  H40 UNL     1      19.334   3.720   0.481  1.00  0.00     0.127 HD
HETATM   75  H41 UNL     1      20.265   2.417   1.000  1.00  0.00     0.127 HD
HETATM   76  H42 UNL     1       5.290   0.865   0.473  1.00  0.00     0.162 HD
HETATM   77  H43 UNL     1      -6.288  -4.245  -0.368  1.00  0.00     0.163 HD
HETATM   78  H44 UNL     1      -7.574  -1.515  -1.792  1.00  0.00     0.163 HD
HETATM   79  H45 UNL     1     -10.956   0.601   0.178  1.00  0.00     0.163 HD
HETATM   80  H46 UNL     1     -10.817   0.261   2.448  1.00  0.00     0.163 HD
HETATM   81  H47 UNL     1     -13.554  -0.197  -0.070  1.00  0.00     0.312 HD
HETATM   82  H48 UNL     1     -12.862  -1.058   1.118  1.00  0.00     0.312 HD
HETATM   83  H49 UNL     1      -5.737  -6.304  -4.939  1.00  0.00     0.167 HD
HETATM   84  H50 UNL     1      -8.241   0.948  -4.206  1.00  0.00     0.167 HD
HETATM   85  H51 UNL     1      -8.190   6.056   1.139  1.00  0.00     0.167 HD
HETATM   86  H52 UNL     1     -13.931  -0.867   5.323  1.00  0.00     0.167 HD
ENDROOT
TORSDOF 38
