REMARK  0 active torsions:
REMARK  status: ('A' for Active; 'I' for Inactive)
REMARK       I    between atoms: C2_2  and  C4_4 
REMARK       I    between atoms: C4_4  and  C5_5 
REMARK       I    between atoms: C5_5  and  C6_6 
REMARK       I    between atoms: C5_5  and  N3_96 
REMARK       I    between atoms: C6_6  and  N1_94 
REMARK       I    between atoms: C7_7  and  C8_8 
REMARK       I    between atoms: C7_7  and  C11_11 
REMARK       I    between atoms: C7_7  and  N1_94 
REMARK       I    between atoms: C8_8  and  C9_9 
REMARK       I    between atoms: C9_9  and  S1_120 
REMARK       I    between atoms: C11_11  and  N2_95 
REMARK       I    between atoms: C12_12  and  C13_13 
REMARK       I    between atoms: C12_12  and  N3_96 
REMARK       I    between atoms: C13_13  and  C14_14 
REMARK       I    between atoms: C13_13  and  N6_100 
REMARK       I    between atoms: C14_14  and  C15_15 
REMARK       I    between atoms: C18_18  and  C19_19 
REMARK       I    between atoms: C18_18  and  N6_100 
REMARK       I    between atoms: C19_19  and  N7_101 
REMARK       I    between atoms: C20_20  and  C21_21 
REMARK       I    between atoms: C20_20  and  N7_101 
REMARK       I    between atoms: C21_21  and  C22_22 
REMARK       I    between atoms: C21_21  and  N8_102 
REMARK       I    between atoms: C25_25  and  C26_26 
REMARK       I    between atoms: C25_25  and  N8_102 
REMARK       I    between atoms: C26_26  and  N9_103 
REMARK       I    between atoms: C28_28  and  C29_29 
REMARK       I    between atoms: C28_28  and  N9_103 
REMARK       I    between atoms: C29_29  and  C30_30 
REMARK       I    between atoms: C29_29  and  N11_105 
REMARK       I    between atoms: C30_30  and  C31_31 
REMARK       I    between atoms: C39_39  and  C40_40 
REMARK       I    between atoms: C39_39  and  N11_105 
REMARK       I    between atoms: C40_40  and  C41_41 
REMARK       I    between atoms: C40_40  and  N13_107 
REMARK       I    between atoms: C41_41  and  C42_42 
REMARK       I    between atoms: C42_42  and  C43_43 
REMARK       I    between atoms: C43_43  and  N12_106 
REMARK       I    between atoms: C44_44  and  C45_45 
REMARK       I    between atoms: C44_44  and  N13_107 
REMARK       I    between atoms: C45_45  and  C46_46 
REMARK       I    between atoms: C45_45  and  N15_109 
REMARK       I    between atoms: C46_46  and  C47_47 
REMARK       I    between atoms: C47_47  and  N14_108 
REMARK       I    between atoms: C48_48  and  C49_49 
REMARK       I    between atoms: C48_48  and  N15_109 
REMARK       I    between atoms: C49_49  and  N16_110 
REMARK       I    between atoms: C50_50  and  C51_51 
REMARK       I    between atoms: C50_50  and  N16_110 
REMARK       I    between atoms: C51_51  and  C52_52 
REMARK       I    between atoms: C51_51  and  N17_111 
REMARK       I    between atoms: C52_52  and  C53_53 
REMARK       I    between atoms: C56_56  and  O14_88 
REMARK       I    between atoms: C59_59  and  C60_60 
REMARK       I    between atoms: C59_59  and  N17_111 
REMARK       I    between atoms: C60_60  and  C61_61 
REMARK       I    between atoms: C60_60  and  N21_116 
REMARK       I    between atoms: C61_61  and  C62_62 
REMARK       I    between atoms: C62_62  and  C63_63 
REMARK       I    between atoms: C63_63  and  N18_112 
REMARK       I    between atoms: C64_64  and  N18_112 
REMARK       I    between atoms: C64_64  and  N20_115 
REMARK       I    between atoms: C65_65  and  C66_66 
REMARK       I    between atoms: C65_65  and  N21_116 
REMARK       I    between atoms: C66_66  and  C67_67 
REMARK       I    between atoms: C66_66  and  N23_118 
REMARK       I    between atoms: C67_67  and  C68_68 
REMARK       I    between atoms: C68_68  and  C69_69 
REMARK       I    between atoms: C69_69  and  N22_117 
REMARK       I    between atoms: C70_70  and  C71_71 
REMARK       I    between atoms: C70_70  and  N23_118 
ROOT
HETATM    1  C1  UNL     1      12.795   3.846   5.072  1.00  0.00     0.009 C 
HETATM    2  C2  UNL     1      12.409   3.030   3.836  1.00  0.00    -0.020 C 
HETATM    3  C3  UNL     1      13.544   3.077   2.812  1.00  0.00     0.009 C 
HETATM    4  C4  UNL     1      12.051   1.589   4.256  1.00  0.00     0.038 C 
HETATM    5  C5  UNL     1      11.565   0.690   3.111  1.00  0.00     0.177 C 
HETATM    6  C6  UNL     1      11.256  -0.733   3.631  1.00  0.00     0.241 C 
HETATM    7  C7  UNL     1      10.993  -3.096   2.894  1.00  0.00     0.177 C 
HETATM    8  C8  UNL     1      11.961  -4.050   2.183  1.00  0.00     0.045 C 
HETATM    9  C9  UNL     1      11.663  -5.517   2.493  1.00  0.00     0.076 C 
HETATM   10  C10 UNL     1      14.238  -6.438   2.960  1.00  0.00     0.089 C 
HETATM   11  C11 UNL     1       9.555  -3.293   2.370  1.00  0.00     0.238 C 
HETATM   12  C12 UNL     1       9.885   0.802   1.287  1.00  0.00     0.241 C 
HETATM   13  C13 UNL     1       8.461   1.281   0.945  1.00  0.00     0.182 C 
HETATM   14  C14 UNL     1       8.223   1.236  -0.574  1.00  0.00     0.093 C 
HETATM   15  C15 UNL     1       7.705  -0.087  -1.030  1.00  0.00     0.028 A 
HETATM   16  C16 UNL     1       6.513  -0.732  -0.780  1.00  0.00     0.114 A 
HETATM   17  C17 UNL     1       7.608  -2.033  -2.069  1.00  0.00     0.180 A 
HETATM   18  C18 UNL     1       6.914   3.034   1.709  1.00  0.00     0.236 C 
HETATM   19  C19 UNL     1       6.781   4.521   2.026  1.00  0.00     0.225 C 
HETATM   20  C20 UNL     1       7.507   5.537  -0.098  1.00  0.00     0.241 C 
HETATM   21  C21 UNL     1       7.000   6.262  -1.372  1.00  0.00     0.180 C 
HETATM   22  C22 UNL     1       8.097   7.147  -2.013  1.00  0.00     0.009 C 
HETATM   23  C23 UNL     1       9.178   6.378  -2.781  1.00  0.00     0.012 C 
HETATM   24  C24 UNL     1       7.465   8.190  -2.943  1.00  0.00     0.012 C 
HETATM   25  C25 UNL     1       5.194   4.727  -2.118  1.00  0.00     0.240 C 
HETATM   26  C26 UNL     1       4.760   3.690  -3.177  1.00  0.00     0.172 C 
HETATM   27  C27 UNL     1       5.718   2.502  -3.203  1.00  0.00     0.042 C 
HETATM   28  C28 UNL     1       2.654   2.484  -3.708  1.00  0.00     0.241 C 
HETATM   29  C29 UNL     1       1.269   2.029  -3.195  1.00  0.00     0.181 C 
HETATM   30  C30 UNL     1       1.304   1.371  -1.805  1.00  0.00     0.075 C 
HETATM   31  C31 UNL     1       1.966   0.025  -1.694  1.00  0.00    -0.028 A 
HETATM   32  C32 UNL     1       3.177  -0.372  -2.227  1.00  0.00     0.096 A 
HETATM   33  C33 UNL     1       2.432  -2.106  -1.004  1.00  0.00     0.042 A 
HETATM   34  C34 UNL     1       2.293  -3.331  -0.339  1.00  0.00     0.030 A 
HETATM   35  C35 UNL     1       1.146  -3.522   0.436  1.00  0.00     0.002 A 
HETATM   36  C36 UNL     1       0.178  -2.526   0.540  1.00  0.00     0.001 A 
HETATM   37  C37 UNL     1       0.333  -1.308  -0.133  1.00  0.00     0.014 A 
HETATM   38  C38 UNL     1       1.483  -1.087  -0.922  1.00  0.00    -0.002 A 
HETATM   39  C39 UNL     1      -0.634   0.800  -4.242  1.00  0.00     0.241 C 
HETATM   40  C40 UNL     1      -1.085   0.071  -5.534  1.00  0.00     0.177 C 
HETATM   41  C41 UNL     1      -0.377  -1.274  -5.756  1.00  0.00     0.044 C 
HETATM   42  C42 UNL     1      -0.044  -2.115  -4.519  1.00  0.00     0.105 C 
HETATM   43  C43 UNL     1      -1.217  -2.558  -3.668  1.00  0.00     0.215 C 
HETATM   44  C44 UNL     1      -3.356   0.986  -5.681  1.00  0.00     0.241 C 
HETATM   45  C45 UNL     1      -4.670   0.893  -4.887  1.00  0.00     0.185 C 
HETATM   46  C46 UNL     1      -5.421   2.218  -4.789  1.00  0.00     0.137 C 
HETATM   47  C47 UNL     1      -4.618   3.364  -4.213  1.00  0.00     0.217 C 
HETATM   48  C48 UNL     1      -5.224  -0.445  -2.851  1.00  0.00     0.236 C 
HETATM   49  C49 UNL     1      -4.710  -0.822  -1.460  1.00  0.00     0.225 C 
HETATM   50  C50 UNL     1      -5.834   0.924  -0.141  1.00  0.00     0.241 C 
HETATM   51  C51 UNL     1      -7.070   1.243   0.729  1.00  0.00     0.180 C 
HETATM   52  C52 UNL     1      -6.880   2.550   1.514  1.00  0.00     0.073 C 
HETATM   53  C53 UNL     1      -8.136   2.956   2.258  1.00  0.00    -0.056 A 
HETATM   54  C54 UNL     1      -9.236   3.472   1.555  1.00  0.00     0.010 A 
HETATM   55  C55 UNL     1     -10.416   3.803   2.224  1.00  0.00     0.037 A 
HETATM   56  C56 UNL     1     -10.497   3.618   3.599  1.00  0.00     0.065 A 
HETATM   57  C57 UNL     1      -9.417   3.115   4.315  1.00  0.00     0.037 A 
HETATM   58  C58 UNL     1      -8.236   2.786   3.646  1.00  0.00     0.010 A 
HETATM   59  C59 UNL     1      -8.402  -0.738   1.379  1.00  0.00     0.241 C 
HETATM   60  C60 UNL     1      -8.470  -1.955   2.323  1.00  0.00     0.176 C 
HETATM   61  C61 UNL     1      -9.010  -1.582   3.707  1.00  0.00     0.036 C 
HETATM   62  C62 UNL     1     -10.344  -0.828   3.692  1.00  0.00     0.022 C 
HETATM   63  C63 UNL     1     -10.783  -0.465   5.111  1.00  0.00     0.122 C 
HETATM   64  C64 UNL     1     -12.565   0.869   6.165  1.00  0.00     0.143 C 
HETATM   65  C65 UNL     1      -8.669  -3.669   0.604  1.00  0.00     0.241 C 
HETATM   66  C66 UNL     1      -9.659  -4.425  -0.313  1.00  0.00     0.177 C 
HETATM   67  C67 UNL     1     -10.176  -3.495  -1.418  1.00  0.00     0.044 C 
HETATM   68  C68 UNL     1      -9.080  -2.964  -2.344  1.00  0.00     0.105 C 
HETATM   69  C69 UNL     1      -9.670  -2.221  -3.524  1.00  0.00     0.215 C 
HETATM   70  C70 UNL     1     -10.647  -6.022   1.293  1.00  0.00     0.241 C 
HETATM   71  C71 UNL     1     -11.961  -6.563   1.894  1.00  0.00     0.177 C 
HETATM   72  C72 UNL     1     -12.893  -7.159   0.848  1.00  0.00     0.044 C 
HETATM   73  C73 UNL     1     -12.481  -8.629   0.782  1.00  0.00     0.105 C 
HETATM   74  C74 UNL     1     -11.883  -8.882   2.142  1.00  0.00     0.218 C 
HETATM   75  O1  UNL     1      10.801  -0.955   4.748  1.00  0.00    -0.271 OA
HETATM   76  O2  UNL     1       8.782  -4.120   2.848  1.00  0.00    -0.271 OA
HETATM   77  O3  UNL     1      10.513  -0.008   0.602  1.00  0.00    -0.271 OA
HETATM   78  O4  UNL     1       5.944   2.296   1.563  1.00  0.00    -0.272 OA
HETATM   79  O5  UNL     1       8.666   5.166   0.081  1.00  0.00    -0.271 OA
HETATM   80  O6  UNL     1       4.477   5.039  -1.165  1.00  0.00    -0.271 OA
HETATM   81  O7  UNL     1       3.048   2.194  -4.840  1.00  0.00    -0.271 OA
HETATM   82  O8  UNL     1      -1.386   0.989  -3.284  1.00  0.00    -0.271 OA
HETATM   83  O9  UNL     1      -2.378  -2.193  -3.811  1.00  0.00    -0.274 OA
HETATM   84  O10 UNL     1      -3.091   1.869  -6.488  1.00  0.00    -0.271 OA
HETATM   85  O11 UNL     1      -4.443   4.426  -4.804  1.00  0.00    -0.274 OA
HETATM   86  O12 UNL     1      -6.345  -0.752  -3.253  1.00  0.00    -0.272 OA
HETATM   87  O13 UNL     1      -5.096   1.792  -0.606  1.00  0.00    -0.271 OA
HETATM   88  O14 UNL     1     -11.640   3.910   4.285  1.00  0.00    -0.361 OA
HETATM   89  O15 UNL     1      -9.228  -0.544   0.489  1.00  0.00    -0.271 OA
HETATM   90  O16 UNL     1      -7.479  -3.527   0.316  1.00  0.00    -0.271 OA
HETATM   91  O17 UNL     1     -10.866  -2.177  -3.787  1.00  0.00    -0.274 OA
HETATM   92  O18 UNL     1      -9.544  -6.486   1.568  1.00  0.00    -0.271 OA
HETATM   93  O19 UNL     1     -11.551  -9.963   2.593  1.00  0.00    -0.274 OA
HETATM   94  N1  UNL     1      11.438  -1.716   2.676  1.00  0.00    -0.346 N 
HETATM   95  N2  UNL     1       9.226  -2.642   1.213  1.00  0.00    -0.368 N 
HETATM   96  N3  UNL     1      10.331   1.210   2.526  1.00  0.00    -0.346 N 
HETATM   97  N4  UNL     1       6.460  -1.935  -1.438  1.00  0.00    -0.360 N 
ATOM     98  H4  UNL     1       5.694  -2.608  -1.437  1.00  0.00     0.166 HD
HETATM   99  N5  UNL     1       8.399  -0.940  -1.851  1.00  0.00    -0.354 N 
HETATM  100  N6  UNL     1       8.216   2.618   1.489  1.00  0.00    -0.346 N 
HETATM  101  N7  UNL     1       6.504   5.250   0.807  1.00  0.00    -0.351 N 
HETATM  102  N8  UNL     1       6.441   5.283  -2.305  1.00  0.00    -0.346 N 
HETATM  103  N9  UNL     1       3.403   3.256  -2.855  1.00  0.00    -0.346 N 
HETATM  104  N10 UNL     1       3.458  -1.642  -1.791  1.00  0.00    -0.365 N 
HETATM  105  N11 UNL     1       0.681   1.194  -4.245  1.00  0.00    -0.346 N 
HETATM  106  N12 UNL     1      -0.875  -3.428  -2.674  1.00  0.00    -0.370 N 
HETATM  107  N13 UNL     1      -2.525  -0.102  -5.459  1.00  0.00    -0.346 N 
HETATM  108  N14 UNL     1      -4.135   3.201  -2.950  1.00  0.00    -0.370 N 
HETATM  109  N15 UNL     1      -4.352   0.324  -3.575  1.00  0.00    -0.346 N 
HETATM  110  N16 UNL     1      -5.698  -0.411  -0.479  1.00  0.00    -0.351 N 
HETATM  111  N17 UNL     1      -7.353   0.116   1.625  1.00  0.00    -0.346 N 
HETATM  112  N18 UNL     1     -11.937   0.409   5.062  1.00  0.00    -0.367 N 
HETATM  113  N19 UNL     1     -12.684   0.284   7.299  1.00  0.00    -0.376 N 
ATOM    114  H19 UNL     1     -13.139   0.676   8.123  1.00  0.00     0.158 HD
HETATM  115  N20 UNL     1     -13.126   2.077   5.978  1.00  0.00    -0.274 NA
HETATM  116  N21 UNL     1      -9.255  -2.985   1.662  1.00  0.00    -0.346 N 
HETATM  117  N22 UNL     1      -8.748  -1.614  -4.323  1.00  0.00    -0.370 N 
HETATM  118  N23 UNL     1     -10.805  -4.933   0.456  1.00  0.00    -0.346 N 
HETATM  119  N24 UNL     1     -11.732  -7.671   2.785  1.00  0.00    -0.348 N 
HETATM  120  S1  UNL     1      12.912  -6.616   1.741  1.00  0.00    -0.173 SA
HETATM  121  H80 UNL     1     -12.240   4.383   3.679  1.00  0.00     0.217 HD
HETATM  122  H81 UNL     1      11.545  -1.398   1.715  1.00  0.00     0.163 HD
HETATM  123  H82 UNL     1       9.717  -1.806   0.920  1.00  0.00     0.159 HD
HETATM  124  H83 UNL     1       8.267  -2.742   0.895  1.00  0.00     0.159 HD
HETATM  125  H84 UNL     1       9.623   1.563   3.163  1.00  0.00     0.163 HD
HETATM  126  H85 UNL     1       9.329  -0.799  -2.224  1.00  0.00     0.166 HD
HETATM  127  H86 UNL     1       8.871   3.359   1.230  1.00  0.00     0.163 HD
HETATM  128  H87 UNL     1       5.548   5.225   0.444  1.00  0.00     0.163 HD
HETATM  129  H88 UNL     1       7.064   4.862  -2.981  1.00  0.00     0.163 HD
HETATM  130  H89 UNL     1       3.032   3.562  -1.960  1.00  0.00     0.163 HD
HETATM  131  H90 UNL     1       4.335  -2.130  -1.953  1.00  0.00     0.165 HD
HETATM  132  H91 UNL     1       1.211   1.155  -5.113  1.00  0.00     0.163 HD
HETATM  133  H92 UNL     1       0.070  -3.415  -2.303  1.00  0.00     0.159 HD
HETATM  134  H93 UNL     1      -1.600  -3.652  -2.005  1.00  0.00     0.159 HD
HETATM  135  H94 UNL     1      -2.839  -0.745  -4.726  1.00  0.00     0.163 HD
HETATM  136  H95 UNL     1      -4.555   2.548  -2.290  1.00  0.00     0.159 HD
HETATM  137  H96 UNL     1      -3.701   4.015  -2.536  1.00  0.00     0.159 HD
HETATM  138  H97 UNL     1      -3.468   0.621  -3.155  1.00  0.00     0.163 HD
HETATM  139  H98 UNL     1      -6.527  -0.996  -0.409  1.00  0.00     0.163 HD
HETATM  140  H99 UNL     1      -6.593  -0.208   2.211  1.00  0.00     0.163 HD
HETATM  141  HA0 UNL     1     -11.894   1.103   4.323  1.00  0.00     0.162 HD
HETATM  142  HA1 UNL     1     -12.250  -0.637   7.244  1.00  0.00     0.158 HD
HETATM  143  HA2 UNL     1     -12.502   2.759   5.552  1.00  0.00     0.127 HD
HETATM  144  HA3 UNL     1     -13.473   2.427   6.866  1.00  0.00     0.127 HD
HETATM  145  HA4 UNL     1     -10.249  -2.822   1.555  1.00  0.00     0.163 HD
HETATM  146  HA5 UNL     1      -9.107  -1.017  -5.054  1.00  0.00     0.159 HD
HETATM  147  HA6 UNL     1      -7.827  -1.366  -3.953  1.00  0.00     0.159 HD
HETATM  148  HA7 UNL     1     -11.731  -4.737   0.095  1.00  0.00     0.163 HD
HETATM  149  HA8 UNL     1     -11.085  -7.638   3.565  1.00  0.00     0.163 HD
ENDROOT
TORSDOF 52
