REMARK  15 active torsions:
REMARK  status: ('A' for Active; 'I' for Inactive)
REMARK    1  A    between atoms: C6_6  and  N1_38 
REMARK    2  A    between atoms: C9_9  and  C10_10 
REMARK    3  A    between atoms: C10_10  and  O4_51 
REMARK    4  A    between atoms: C11_11  and  N3_40 
REMARK    5  A    between atoms: C13_13  and  C15_15 
REMARK       I    between atoms: C15_15  and  N5_42 
REMARK    6  A    between atoms: C16_16  and  N5_42 
REMARK    7  A    between atoms: C18_18  and  C20_20 
REMARK       I    between atoms: C20_20  and  N7_44 
REMARK    8  A    between atoms: C21_21  and  N7_44 
REMARK    9  A    between atoms: C23_23  and  C25_25 
REMARK       I    between atoms: C25_25  and  N9_46 
REMARK   10  A    between atoms: C26_26  and  C27_27 
REMARK   11  A    between atoms: C26_26  and  N9_46 
REMARK   12  A    between atoms: C32_32  and  O9_56 
REMARK   13  A    between atoms: N3_40  and  P1_57 
REMARK   14  A    between atoms: O4_51  and  P1_57 
REMARK   15  A    between atoms: O9_56  and  P1_57 
ROOT
HETATM    1  C27 UNL     1      12.538  -3.765   2.982  1.00  0.00     0.143 C 
HETATM    2  C28 UNL     1      12.402  -2.936   4.185  1.00  0.00     0.060 C 
HETATM    3  N10 UNL     1      12.316  -2.263   5.126  1.00  0.00    -0.197 NA
ENDROOT
BRANCH   1   4
HETATM    4  C26 UNL     1      13.267  -3.000   1.877  1.00  0.00     0.137 C 
BRANCH   4   5
HETATM    5  N9  UNL     1      12.493  -1.906   1.315  1.00  0.00    -0.355 N 
HETATM    6  C25 UNL     1      11.447  -2.146   0.449  1.00  0.00     0.268 C 
HETATM    7  O8  UNL     1      11.153  -3.284   0.096  1.00  0.00    -0.266 OA
HETATM    8  H45 UNL     1      12.501  -1.014   1.796  1.00  0.00     0.162 HD
BRANCH   6   9
HETATM    9  C23 UNL     1      10.692  -0.973   0.068  1.00  0.00     0.104 A 
HETATM   10  C24 UNL     1       9.315  -0.905  -0.101  1.00  0.00     0.066 A 
HETATM   11  C21 UNL     1       8.962   0.420  -0.451  1.00  0.00     0.053 A 
HETATM   12  C22 UNL     1      10.135   1.130  -0.524  1.00  0.00     0.120 A 
HETATM   13  N8  UNL     1      11.178   0.279  -0.254  1.00  0.00    -0.354 N 
HETATM   14  C29 UNL     1      12.568   0.658  -0.392  1.00  0.00     0.156 C 
BRANCH  11  15
HETATM   15  N7  UNL     1       7.671   0.863  -0.669  1.00  0.00    -0.320 N 
HETATM   16  C20 UNL     1       7.299   2.144  -1.036  1.00  0.00     0.273 C 
HETATM   17  O7  UNL     1       8.087   3.062  -1.244  1.00  0.00    -0.266 OA
HETATM   18  H44 UNL     1       6.950   0.162  -0.576  1.00  0.00     0.169 HD
BRANCH  16  19
HETATM   19  C18 UNL     1       5.854   2.326  -1.178  1.00  0.00     0.105 A 
HETATM   20  C19 UNL     1       4.805   1.502  -0.779  1.00  0.00     0.066 A 
HETATM   21  C16 UNL     1       3.580   2.109  -1.137  1.00  0.00     0.053 A 
HETATM   22  C17 UNL     1       3.889   3.305  -1.737  1.00  0.00     0.120 A 
HETATM   23  N6  UNL     1       5.256   3.434  -1.757  1.00  0.00    -0.354 N 
HETATM   24  C30 UNL     1       5.949   4.572  -2.328  1.00  0.00     0.156 C 
BRANCH  21  25
HETATM   25  N5  UNL     1       2.283   1.675  -0.951  1.00  0.00    -0.320 N 
HETATM   26  C15 UNL     1       1.920   0.452  -0.421  1.00  0.00     0.273 C 
HETATM   27  O6  UNL     1       2.697  -0.448  -0.124  1.00  0.00    -0.266 OA
HETATM   28  H43 UNL     1       1.552   2.271  -1.313  1.00  0.00     0.169 HD
BRANCH  26  29
HETATM   29  C13 UNL     1       0.482   0.296  -0.292  1.00  0.00     0.105 A 
HETATM   30  C14 UNL     1      -0.271  -0.800  -0.691  1.00  0.00     0.066 A 
HETATM   31  C11 UNL     1      -1.626  -0.534  -0.404  1.00  0.00     0.055 A 
HETATM   32  C12 UNL     1      -1.681   0.695   0.202  1.00  0.00     0.120 A 
HETATM   33  N4  UNL     1      -0.399   1.178   0.302  1.00  0.00    -0.354 N 
HETATM   34  C31 UNL     1      -0.052   2.392   1.011  1.00  0.00     0.156 C 
BRANCH  31  35
HETATM   35  N3  UNL     1      -2.640  -1.370  -0.684  1.00  0.00    -0.292 N 
HETATM   36  H42 UNL     1      -2.456  -2.183  -1.255  1.00  0.00     0.171 HD
BRANCH  35  37
HETATM   37  P1  UNL     1      -4.223  -1.020  -0.505  1.00  0.00     0.435 P 
HETATM   38  O5  UNL     1      -5.218  -2.077  -0.901  1.00  0.00    -0.234 OA
BRANCH  37  39
HETATM   39  O4  UNL     1      -4.449  -0.528   1.018  1.00  0.00    -0.295 OA
BRANCH  39  40
HETATM   40  C10 UNL     1      -4.880  -1.480   1.978  1.00  0.00     0.216 C 
BRANCH  40  41
HETATM   41  C9  UNL     1      -5.979  -0.853   2.842  1.00  0.00     0.171 C 
HETATM   42  C8  UNL     1      -6.624  -1.824   3.768  1.00  0.00     0.007 C 
HETATM   43  C7  UNL     1      -7.945  -1.804   3.590  1.00  0.00     0.025 C 
HETATM   44  C6  UNL     1      -8.306  -0.803   2.551  1.00  0.00     0.257 C 
HETATM   45  O3  UNL     1      -7.050  -0.372   1.994  1.00  0.00    -0.352 OA
BRANCH  44  46
HETATM   46  N1  UNL     1      -9.151  -1.394   1.525  1.00  0.00    -0.278 N 
HETATM   47  C3  UNL     1      -8.615  -2.026   0.418  1.00  0.00     0.111 A 
HETATM   48  C2  UNL     1      -9.372  -2.562  -0.547  1.00  0.00     0.022 A 
HETATM   49  C1  UNL     1      -8.831  -3.236  -1.764  1.00  0.00     0.056 C 
HETATM   50  C5  UNL     1     -10.843  -2.479  -0.401  1.00  0.00     0.256 A 
HETATM   51  N2  UNL     1     -11.294  -1.868   0.733  1.00  0.00    -0.275 N 
HETATM   52  O2  UNL     1     -11.609  -2.933  -1.244  1.00  0.00    -0.267 OA
HETATM   53  C4  UNL     1     -10.522  -1.317   1.720  1.00  0.00     0.331 A 
HETATM   54  H41 UNL     1     -12.293  -1.810   0.853  1.00  0.00     0.173 HD
HETATM   55  O1  UNL     1     -11.054  -0.800   2.700  1.00  0.00    -0.246 OA
ENDBRANCH  44  46
ENDBRANCH  40  41
ENDBRANCH  39  40
ENDBRANCH  37  39
BRANCH  37  56
HETATM   56  O9  UNL     1      -4.521   0.355  -1.305  1.00  0.00    -0.292 OA
BRANCH  56  57
HETATM   57  C32 UNL     1      -5.857   0.839  -1.284  1.00  0.00     0.133 C 
HETATM   58  C33 UNL     1      -6.495   0.641  -2.654  1.00  0.00     0.032 C 
HETATM   59  C34 UNL     1      -7.953   1.105  -2.670  1.00  0.00     0.002 C 
HETATM   60  C35 UNL     1      -8.262   2.182  -1.628  1.00  0.00     0.000 C 
HETATM   61  C36 UNL     1      -7.064   3.092  -1.380  1.00  0.00     0.002 C 
HETATM   62  C37 UNL     1      -5.839   2.318  -0.890  1.00  0.00     0.032 C 
ENDBRANCH  56  57
ENDBRANCH  37  56
ENDBRANCH  35  37
ENDBRANCH  31  35
ENDBRANCH  26  29
ENDBRANCH  21  25
ENDBRANCH  16  19
ENDBRANCH  11  15
ENDBRANCH   6   9
ENDBRANCH   4   5
ENDBRANCH   1   4
TORSDOF 15
