REMARK  19 active torsions:
REMARK  status: ('A' for Active; 'I' for Inactive)
REMARK    1  A    between atoms: C2_2  and  O1_63 
REMARK    2  A    between atoms: C3_3  and  C56_56 
REMARK    3  A    between atoms: C7_7  and  N1_71 
REMARK    4  A    between atoms: C8_8  and  N2_73 
REMARK    5  A    between atoms: C9_9  and  O7_69 
REMARK    6  A    between atoms: C10_10  and  C18_18 
REMARK       I    between atoms: C18_18  and  N3_75 
REMARK    7  A    between atoms: C19_19  and  N3_75 
REMARK    8  A    between atoms: C22_22  and  C25_25 
REMARK    9  A    between atoms: C28_28  and  N4_76 
REMARK   10  A    between atoms: C31_31  and  C32_32 
REMARK       I    between atoms: C31_31  and  N4_76 
REMARK   11  A    between atoms: C40_40  and  N5_77 
REMARK   12  A    between atoms: C41_41  and  O4_66 
REMARK   13  A    between atoms: C42_42  and  N6_79 
REMARK   14  A    between atoms: C46_46  and  C49_49 
REMARK   15  A    between atoms: C47_47  and  O5_67 
REMARK   16  A    between atoms: C49_49  and  O6_68 
REMARK   17  A    between atoms: C50_50  and  N7_81 
REMARK   18  A    between atoms: C56_56  and  O8_70 
REMARK   19  A    between atoms: C57_57  and  N8_83 
ROOT
HETATM    1  C19 UNL     1      -3.124  -0.464   0.350  1.00  0.00     0.035 A 
HETATM    2  C20 UNL     1      -2.344  -0.158   1.470  1.00  0.00     0.030 A 
HETATM    3  C21 UNL     1      -0.996   0.193   1.329  1.00  0.00     0.014 A 
HETATM    4  C22 UNL     1      -0.391   0.245   0.066  1.00  0.00    -0.026 A 
HETATM    5  C23 UNL     1      -1.181  -0.068  -1.049  1.00  0.00     0.014 A 
HETATM    6  C24 UNL     1      -2.531  -0.421  -0.910  1.00  0.00     0.030 A 
ENDROOT
BRANCH   4   7
HETATM    7  C25 UNL     1       1.025   0.616  -0.085  1.00  0.00    -0.026 A 
HETATM    8  C26 UNL     1       1.414   1.657  -0.941  1.00  0.00     0.014 A 
HETATM    9  C27 UNL     1       2.761   2.015  -1.088  1.00  0.00     0.030 A 
HETATM   10  C28 UNL     1       3.754   1.338  -0.383  1.00  0.00     0.035 A 
HETATM   11  C29 UNL     1       3.378   0.297   0.472  1.00  0.00     0.030 A 
HETATM   12  C30 UNL     1       2.032  -0.058   0.620  1.00  0.00     0.014 A 
BRANCH  10  13
HETATM   13  N4  UNL     1       5.129   1.630  -0.473  1.00  0.00    -0.323 N 
HETATM   14  C31 UNL     1       5.750   2.600  -1.233  1.00  0.00     0.259 C 
HETATM   15  O3  UNL     1       5.184   3.396  -1.977  1.00  0.00    -0.267 OA
HETATM   16  H46 UNL     1       5.749   1.053   0.091  1.00  0.00     0.169 HD
BRANCH  14  17
HETATM   17  C32 UNL     1       7.247   2.671  -1.123  1.00  0.00     0.068 A 
HETATM   18  C33 UNL     1       7.898   3.668  -1.868  1.00  0.00     0.032 A 
HETATM   19  C34 UNL     1       9.293   3.830  -1.835  1.00  0.00    -0.022 A 
HETATM   20  C35 UNL     1       9.912   4.843  -2.586  1.00  0.00     0.012 A 
HETATM   21  C39 UNL     1      10.080   2.968  -1.036  1.00  0.00     0.005 A 
HETATM   22  C36 UNL     1      11.295   5.016  -2.554  1.00  0.00     0.001 A 
HETATM   23  C37 UNL     1      12.079   4.179  -1.770  1.00  0.00     0.001 A 
HETATM   24  C38 UNL     1      11.478   3.168  -1.018  1.00  0.00     0.014 A 
HETATM   25  C40 UNL     1       9.438   1.947  -0.294  1.00  0.00     0.093 A 
HETATM   26  C41 UNL     1       8.031   1.819  -0.338  1.00  0.00     0.110 A 
BRANCH  25  27
HETATM   27  N5  UNL     1      10.186   1.077   0.535  1.00  0.00    -0.297 N 
HETATM   28  N6  UNL     1      10.277  -0.053   0.005  1.00  0.00    -0.297 N 
ATOM     29  H6  UNL     1       9.807  -0.334  -0.855  1.00  0.00     0.187 HD
ATOM     30  H5  UNL     1      10.592   1.334   1.435  1.00  0.00     0.187 HD
BRANCH  28  31
HETATM   31  C42 UNL     1      11.124  -0.881   0.770  1.00  0.00     0.082 A 
HETATM   32  C43 UNL     1      10.553  -1.758   1.705  1.00  0.00     0.034 A 
HETATM   33  C44 UNL     1      11.356  -2.585   2.492  1.00  0.00     0.003 A 
HETATM   34  C45 UNL     1      12.741  -2.548   2.345  1.00  0.00     0.019 A 
HETATM   35  C46 UNL     1      13.331  -1.695   1.400  1.00  0.00     0.050 A 
HETATM   36  C47 UNL     1      12.522  -0.877   0.598  1.00  0.00     0.110 A 
BRANCH  35  37
HETATM   37  C49 UNL     1      14.798  -1.704   1.255  1.00  0.00     0.153 C 
HETATM   38  N7  UNL     1      15.423  -1.701   0.124  1.00  0.00    -0.336 N 
ATOM     39  H7  UNL     1      14.894  -1.702  -0.748  1.00  0.00     0.168 HD
BRANCH  37  40
HETATM   40  O6  UNL     1      15.395  -1.723   2.465  1.00  0.00    -0.345 OA
HETATM   41  H42 UNL     1      16.360  -1.698   2.372  1.00  0.00     0.219 HD
ENDBRANCH  37  40
BRANCH  38  42
HETATM   42  C50 UNL     1      16.820  -1.696   0.090  1.00  0.00     0.034 A 
HETATM   43  C51 UNL     1      17.531  -2.898   0.047  1.00  0.00     0.029 A 
HETATM   44  C52 UNL     1      18.927  -2.891   0.018  1.00  0.00     0.002 A 
HETATM   45  C53 UNL     1      19.617  -1.680   0.022  1.00  0.00     0.000 A 
HETATM   46  C54 UNL     1      18.914  -0.476   0.047  1.00  0.00     0.002 A 
HETATM   47  C55 UNL     1      17.518  -0.486   0.075  1.00  0.00     0.029 A 
ENDBRANCH  38  42
ENDBRANCH  35  37
BRANCH  36  48
HETATM   48  O5  UNL     1      13.102   0.008  -0.280  1.00  0.00    -0.353 OA
HETATM   49  C48 UNL     1      13.013  -0.476  -1.622  1.00  0.00     0.210 C 
ENDBRANCH  36  48
ENDBRANCH  28  31
ENDBRANCH  25  27
BRANCH  26  50
HETATM   50  O4  UNL     1       7.450   0.823   0.420  1.00  0.00    -0.357 OA
HETATM   51  H41 UNL     1       8.198   0.333   0.820  1.00  0.00     0.217 HD
ENDBRANCH  26  50
ENDBRANCH  14  17
ENDBRANCH  10  13
ENDBRANCH   4   7
BRANCH   1  52
HETATM   52  N3  UNL     1      -4.472  -0.814   0.578  1.00  0.00    -0.323 N 
HETATM   53  C18 UNL     1      -5.445  -1.058  -0.374  1.00  0.00     0.259 C 
HETATM   54  O2  UNL     1      -5.338  -0.921  -1.589  1.00  0.00    -0.267 OA
HETATM   55  H45 UNL     1      -4.764  -0.798   1.546  1.00  0.00     0.169 HD
BRANCH  53  56
HETATM   56  C10 UNL     1      -6.779  -1.466   0.151  1.00  0.00     0.068 A 
HETATM   57  C9  UNL     1      -7.940  -1.102  -0.544  1.00  0.00     0.110 A 
HETATM   58  C8  UNL     1      -9.212  -1.442  -0.044  1.00  0.00     0.093 A 
HETATM   59  C17 UNL     1      -9.320  -2.213   1.146  1.00  0.00     0.005 A 
HETATM   60  C12 UNL     1      -8.141  -2.610   1.823  1.00  0.00    -0.022 A 
HETATM   61  C16 UNL     1     -10.562  -2.615   1.687  1.00  0.00     0.014 A 
HETATM   62  C11 UNL     1      -6.886  -2.234   1.318  1.00  0.00     0.032 A 
HETATM   63  C13 UNL     1      -8.234  -3.381   2.994  1.00  0.00     0.012 A 
HETATM   64  C14 UNL     1      -9.474  -3.761   3.506  1.00  0.00     0.001 A 
HETATM   65  C15 UNL     1     -10.638  -3.378   2.853  1.00  0.00     0.001 A 
BRANCH  57  66
HETATM   66  O7  UNL     1      -7.879  -0.401  -1.729  1.00  0.00    -0.357 OA
HETATM   67  H43 UNL     1      -6.953  -0.431  -2.058  1.00  0.00     0.217 HD
ENDBRANCH  57  66
BRANCH  58  68
HETATM   68  N2  UNL     1     -10.368  -1.056  -0.758  1.00  0.00    -0.297 N 
HETATM   69  N1  UNL     1     -10.779   0.048  -0.332  1.00  0.00    -0.297 N 
ATOM     70  H1  UNL     1     -10.343   0.585   0.418  1.00  0.00     0.187 HD
ATOM     71  H2  UNL     1     -10.802  -1.595  -1.507  1.00  0.00     0.187 HD
BRANCH  69  72
HETATM   72  C7  UNL     1     -11.931   0.439  -1.039  1.00  0.00     0.082 A 
HETATM   73  C2  UNL     1     -13.205   0.400  -0.441  1.00  0.00     0.110 A 
HETATM   74  C3  UNL     1     -14.336   0.772  -1.184  1.00  0.00     0.050 A 
HETATM   75  C4  UNL     1     -14.194   1.201  -2.513  1.00  0.00     0.019 A 
HETATM   76  C5  UNL     1     -12.931   1.275  -3.096  1.00  0.00     0.003 A 
HETATM   77  C6  UNL     1     -11.808   0.902  -2.360  1.00  0.00     0.034 A 
BRANCH  73  78
HETATM   78  O1  UNL     1     -13.364  -0.109   0.828  1.00  0.00    -0.353 OA
HETATM   79  C1  UNL     1     -12.886   0.809   1.813  1.00  0.00     0.210 C 
ENDBRANCH  73  78
BRANCH  74  80
HETATM   80  C56 UNL     1     -15.704   0.723  -0.636  1.00  0.00     0.153 C 
HETATM   81  N8  UNL     1     -16.722   0.292  -1.309  1.00  0.00    -0.336 N 
ATOM     82  H8  UNL     1     -16.593  -0.053  -2.260  1.00  0.00     0.168 HD
BRANCH  80  83
HETATM   83  O8  UNL     1     -15.771   1.248   0.603  1.00  0.00    -0.345 OA
HETATM   84  H44 UNL     1     -16.675   1.200   0.948  1.00  0.00     0.219 HD
ENDBRANCH  80  83
BRANCH  81  85
HETATM   85  C57 UNL     1     -17.998   0.297  -0.737  1.00  0.00     0.034 A 
HETATM   86  C58 UNL     1     -18.445  -0.803  -0.001  1.00  0.00     0.029 A 
HETATM   87  C59 UNL     1     -19.715  -0.797   0.577  1.00  0.00     0.002 A 
HETATM   88  C60 UNL     1     -20.550   0.308   0.412  1.00  0.00     0.000 A 
HETATM   89  C61 UNL     1     -20.116   1.403  -0.336  1.00  0.00     0.002 A 
HETATM   90  C62 UNL     1     -18.845   1.394  -0.912  1.00  0.00     0.029 A 
ENDBRANCH  81  85
ENDBRANCH  74  80
ENDBRANCH  69  72
ENDBRANCH  58  68
ENDBRANCH  53  56
ENDBRANCH   1  52
TORSDOF 19
