REMARK  0 active torsions:
REMARK  status: ('A' for Active; 'I' for Inactive)
REMARK       I    between atoms: C2_2  and  C3_3 
REMARK       I    between atoms: C3_3  and  C4_4 
REMARK       I    between atoms: C4_4  and  C5_5 
REMARK       I    between atoms: C4_4  and  N1_65 
REMARK       I    between atoms: C5_5  and  O2_53 
REMARK       I    between atoms: C6_6  and  C7_7 
REMARK       I    between atoms: C6_6  and  N1_65 
REMARK       I    between atoms: C7_7  and  C8_8 
REMARK       I    between atoms: C7_7  and  N2_66 
REMARK       I    between atoms: C8_8  and  C10_10 
REMARK       I    between atoms: C12_12  and  C13_13 
REMARK       I    between atoms: C12_12  and  N2_66 
REMARK       I    between atoms: C13_13  and  C14_14 
REMARK       I    between atoms: C13_13  and  N6_71 
REMARK       I    between atoms: C14_14  and  C15_15 
REMARK       I    between atoms: C15_15  and  C16_16 
REMARK       I    between atoms: C16_16  and  N3_67 
REMARK       I    between atoms: C17_17  and  N4_69 
REMARK       I    between atoms: C17_17  and  N5_70 
REMARK       I    between atoms: C18_18  and  C19_19 
REMARK       I    between atoms: C18_18  and  N6_71 
REMARK       I    between atoms: C19_19  and  N7_72 
REMARK       I    between atoms: C20_20  and  C21_21 
REMARK       I    between atoms: C20_20  and  N7_72 
REMARK       I    between atoms: C21_21  and  C22_22 
REMARK       I    between atoms: C21_21  and  N8_73 
REMARK       I    between atoms: C22_22  and  O7_58 
REMARK       I    between atoms: C24_24  and  C25_25 
REMARK       I    between atoms: C24_24  and  N8_73 
REMARK       I    between atoms: C25_25  and  C26_26 
REMARK       I    between atoms: C25_25  and  N9_74 
REMARK       I    between atoms: C26_26  and  O9_60 
REMARK       I    between atoms: C28_28  and  C29_29 
REMARK       I    between atoms: C28_28  and  N9_74 
REMARK       I    between atoms: C29_29  and  C30_30 
REMARK       I    between atoms: C29_29  and  N12_78 
REMARK       I    between atoms: C30_30  and  C31_31 
REMARK       I    between atoms: C34_34  and  C35_35 
REMARK       I    between atoms: C34_34  and  N12_78 
REMARK       I    between atoms: C35_35  and  C36_36 
REMARK       I    between atoms: C35_35  and  N13_79 
REMARK       I    between atoms: C36_36  and  C37_37 
REMARK       I    between atoms: C43_43  and  C44_44 
REMARK       I    between atoms: C43_43  and  N13_79 
REMARK       I    between atoms: C44_44  and  N14_80 
REMARK       I    between atoms: C46_46  and  C47_47 
REMARK       I    between atoms: C46_46  and  N14_80 
REMARK       I    between atoms: C47_47  and  C48_48 
REMARK       I    between atoms: C47_47  and  N18_85 
REMARK       I    between atoms: C48_48  and  C49_49 
REMARK       I    between atoms: C49_49  and  C50_50 
REMARK       I    between atoms: C50_50  and  N15_81 
REMARK       I    between atoms: C51_51  and  N16_83 
REMARK       I    between atoms: C51_51  and  N17_84 
ROOT
HETATM    1  C1  UNL     1      -9.689  -3.545  -0.410  1.00  0.00     0.005 C 
HETATM    2  C2  UNL     1      -8.769  -2.452  -0.929  1.00  0.00    -0.002 C 
HETATM    3  C3  UNL     1      -9.158  -1.079  -0.380  1.00  0.00     0.035 C 
HETATM    4  C4  UNL     1      -8.203   0.021  -0.860  1.00  0.00     0.182 C 
HETATM    5  C5  UNL     1      -8.831   1.391  -0.555  1.00  0.00     0.163 C 
HETATM    6  C6  UNL     1      -5.766   0.415  -0.816  1.00  0.00     0.241 C 
HETATM    7  C7  UNL     1      -4.562   0.663   0.151  1.00  0.00     0.180 C 
HETATM    8  C8  UNL     1      -3.280   1.177  -0.567  1.00  0.00     0.013 C 
HETATM    9  C9  UNL     1      -3.446   2.641  -1.006  1.00  0.00     0.012 C 
HETATM   10  C10 UNL     1      -2.771   0.341  -1.762  1.00  0.00     0.002 C 
HETATM   11  C11 UNL     1      -2.505  -1.126  -1.464  1.00  0.00     0.005 C 
HETATM   12  C12 UNL     1      -4.999  -0.841   2.107  1.00  0.00     0.241 C 
HETATM   13  C13 UNL     1      -4.284  -1.819   3.070  1.00  0.00     0.176 C 
HETATM   14  C14 UNL     1      -5.272  -2.747   3.789  1.00  0.00     0.036 C 
HETATM   15  C15 UNL     1      -5.512  -4.070   3.049  1.00  0.00     0.022 C 
HETATM   16  C16 UNL     1      -5.979  -3.915   1.602  1.00  0.00     0.121 C 
HETATM   17  C17 UNL     1      -6.125  -5.485  -0.166  1.00  0.00     0.121 C 
HETATM   18  C18 UNL     1      -2.365  -0.398   3.679  1.00  0.00     0.236 C 
HETATM   19  C19 UNL     1      -1.774   0.525   4.752  1.00  0.00     0.225 C 
HETATM   20  C20 UNL     1      -1.228   2.562   3.496  1.00  0.00     0.243 C 
HETATM   21  C21 UNL     1      -0.108   3.365   2.789  1.00  0.00     0.205 C 
HETATM   22  C22 UNL     1      -0.684   4.036   1.517  1.00  0.00     0.146 C 
HETATM   23  C23 UNL     1      -1.191   5.445   1.796  1.00  0.00     0.042 C 
HETATM   24  C24 UNL     1       2.198   2.483   3.186  1.00  0.00     0.243 C 
HETATM   25  C25 UNL     1       3.215   1.378   2.813  1.00  0.00     0.205 C 
HETATM   26  C26 UNL     1       4.570   2.019   2.438  1.00  0.00     0.146 C 
HETATM   27  C27 UNL     1       4.488   3.063   1.329  1.00  0.00     0.042 C 
HETATM   28  C28 UNL     1       1.779  -0.499   2.078  1.00  0.00     0.241 C 
HETATM   29  C29 UNL     1       1.117  -1.198   0.868  1.00  0.00     0.182 C 
HETATM   30  C30 UNL     1       1.346  -2.722   0.960  1.00  0.00     0.093 C 
HETATM   31  C31 UNL     1       2.639  -3.172   0.354  1.00  0.00     0.028 A 
HETATM   32  C32 UNL     1       3.950  -2.810   0.576  1.00  0.00     0.114 A 
HETATM   33  C33 UNL     1       4.016  -4.244  -1.004  1.00  0.00     0.180 A 
HETATM   34  C34 UNL     1       1.072   0.580  -0.896  1.00  0.00     0.241 C 
HETATM   35  C35 UNL     1       1.227   0.794  -2.423  1.00  0.00     0.180 C 
HETATM   36  C36 UNL     1       0.970   2.266  -2.782  1.00  0.00     0.073 C 
HETATM   37  C37 UNL     1       0.914   2.500  -4.274  1.00  0.00    -0.056 A 
HETATM   38  C38 UNL     1       2.041   2.966  -4.964  1.00  0.00     0.007 A 
HETATM   39  C39 UNL     1       1.992   3.162  -6.345  1.00  0.00     0.001 A 
HETATM   40  C40 UNL     1       0.819   2.894  -7.047  1.00  0.00     0.000 A 
HETATM   41  C41 UNL     1      -0.308   2.430  -6.370  1.00  0.00     0.001 A 
HETATM   42  C42 UNL     1      -0.262   2.233  -4.989  1.00  0.00     0.007 A 
HETATM   43  C43 UNL     1       2.856  -0.957  -3.170  1.00  0.00     0.240 C 
HETATM   44  C44 UNL     1       4.319  -1.169  -3.607  1.00  0.00     0.172 C 
HETATM   45  C45 UNL     1       4.469  -2.450  -4.415  1.00  0.00     0.042 C 
HETATM   46  C46 UNL     1       5.559  -0.050  -1.779  1.00  0.00     0.251 C 
HETATM   47  C47 UNL     1       6.462  -0.243  -0.533  1.00  0.00     0.308 C 
HETATM   48  C48 UNL     1       7.433   0.943  -0.411  1.00  0.00     0.047 C 
HETATM   49  C49 UNL     1       8.302   0.929   0.855  1.00  0.00     0.022 C 
HETATM   50  C50 UNL     1       9.650   0.226   0.686  1.00  0.00     0.121 C 
HETATM   51  C51 UNL     1      11.209   1.919   0.091  1.00  0.00     0.121 C 
HETATM   52  O1  UNL     1      -9.896   1.802  -0.992  1.00  0.00    -0.648 OA
HETATM   53  O2  UNL     1      -8.124   2.152   0.308  1.00  0.00    -0.775 OA
HETATM   54  O3  UNL     1      -5.782   0.780  -1.990  1.00  0.00    -0.271 OA
HETATM   55  O4  UNL     1      -6.106  -0.358   2.332  1.00  0.00    -0.271 OA
HETATM   56  O5  UNL     1      -1.823  -0.628   2.596  1.00  0.00    -0.272 OA
HETATM   57  O6  UNL     1      -2.399   2.937   3.532  1.00  0.00    -0.271 OA
HETATM   58  O7  UNL     1       0.299   4.132   0.475  1.00  0.00    -0.393 OA
HETATM   59  O8  UNL     1       2.446   3.308   4.064  1.00  0.00    -0.271 OA
HETATM   60  O9  UNL     1       5.202   2.605   3.580  1.00  0.00    -0.393 OA
HETATM   61  O10 UNL     1       1.460  -0.751   3.239  1.00  0.00    -0.271 OA
HETATM   62  O11 UNL     1       0.579   1.406  -0.128  1.00  0.00    -0.271 OA
HETATM   63  O12 UNL     1       2.049  -1.869  -2.987  1.00  0.00    -0.271 OA
HETATM   64  O13 UNL     1       5.140   1.051  -2.140  1.00  0.00    -0.271 OA
HETATM   65  N1  UNL     1      -6.892  -0.117  -0.219  1.00  0.00    -0.345 N 
HETATM   66  N2  UNL     1      -4.232  -0.485   1.015  1.00  0.00    -0.346 N 
HETATM   67  N3  UNL     1      -6.271  -5.244   1.079  1.00  0.00    -0.372 N 
ATOM     68  H3  UNL     1      -6.592  -5.981   1.707  1.00  0.00     0.161 HD
HETATM   69  N4  UNL     1      -5.726  -4.681  -1.177  1.00  0.00    -0.279 NA
HETATM   70  N5  UNL     1      -6.382  -6.722  -0.641  1.00  0.00    -0.279 NA
HETATM   71  N6  UNL     1      -3.567  -0.981   4.032  1.00  0.00    -0.346 N 
HETATM   72  N7  UNL     1      -0.810   1.430   4.168  1.00  0.00    -0.350 N 
HETATM   73  N8  UNL     1       1.018   2.477   2.478  1.00  0.00    -0.344 N 
HETATM   74  N9  UNL     1       2.714   0.471   1.776  1.00  0.00    -0.344 N 
HETATM   75  N10 UNL     1       4.786  -3.420  -0.329  1.00  0.00    -0.360 N 
ATOM     76  H10 UNL     1       5.787  -3.266  -0.450  1.00  0.00     0.166 HD
HETATM   77  N11 UNL     1       2.705  -4.113  -0.646  1.00  0.00    -0.354 N 
HETATM   78  N12 UNL     1       1.487  -0.656  -0.448  1.00  0.00    -0.346 N 
HETATM   79  N13 UNL     1       2.551   0.352  -2.868  1.00  0.00    -0.346 N 
HETATM   80  N14 UNL     1       5.173  -1.205  -2.424  1.00  0.00    -0.346 N 
HETATM   81  N15 UNL     1      10.488   0.934  -0.282  1.00  0.00    -0.372 N 
ATOM     82  H15 UNL     1      10.496   0.639  -1.258  1.00  0.00     0.161 HD
HETATM   83  N16 UNL     1      11.350   2.500   1.302  1.00  0.00    -0.279 NA
HETATM   84  N17 UNL     1      11.975   2.566  -0.815  1.00  0.00    -0.279 NA
HETATM   85  N18 UNL     1       7.174  -1.530  -0.557  1.00  0.00     0.092 N 
HETATM   86  H62 UNL     1      -8.654   2.972   0.389  1.00  0.00     0.167 HD
HETATM   87  H63 UNL     1       0.499   3.212   0.211  1.00  0.00     0.210 HD
HETATM   88  H64 UNL     1       4.567   3.236   3.981  1.00  0.00     0.210 HD
HETATM   89  H65 UNL     1      -6.897  -0.048   0.802  1.00  0.00     0.163 HD
HETATM   90  H66 UNL     1      -3.235  -0.624   1.182  1.00  0.00     0.163 HD
HETATM   91  H67 UNL     1      -5.778  -3.692  -0.969  1.00  0.00     0.126 HD
HETATM   92  H68 UNL     1      -6.227  -4.882  -2.036  1.00  0.00     0.126 HD
HETATM   93  H69 UNL     1      -5.644  -7.065  -1.244  1.00  0.00     0.126 HD
HETATM   94  H70 UNL     1      -6.533  -7.361   0.134  1.00  0.00     0.126 HD
HETATM   95  H71 UNL     1      -4.131  -0.492   4.719  1.00  0.00     0.163 HD
HETATM   96  H72 UNL     1       0.090   1.037   3.906  1.00  0.00     0.163 HD
HETATM   97  H73 UNL     1       0.885   1.803   1.730  1.00  0.00     0.163 HD
HETATM   98  H74 UNL     1       2.790   0.750   0.806  1.00  0.00     0.163 HD
HETATM   99  H75 UNL     1       1.929  -4.608  -1.065  1.00  0.00     0.166 HD
HETATM  100  H76 UNL     1       1.626  -1.345  -1.189  1.00  0.00     0.163 HD
HETATM  101  H77 UNL     1       3.347   0.983  -2.739  1.00  0.00     0.163 HD
HETATM  102  H78 UNL     1       5.183  -2.055  -1.862  1.00  0.00     0.163 HD
HETATM  103  H79 UNL     1      12.308   2.776   1.484  1.00  0.00     0.126 HD
HETATM  104  H80 UNL     1      10.977   1.963   2.074  1.00  0.00     0.126 HD
HETATM  105  H81 UNL     1      11.738   2.238  -1.747  1.00  0.00     0.126 HD
HETATM  106  H82 UNL     1      11.861   3.570  -0.755  1.00  0.00     0.126 HD
HETATM  107  H83 UNL     1       7.634  -1.649  -1.459  1.00  0.00     0.313 HD
HETATM  108  H84 UNL     1       6.518  -2.310  -0.443  1.00  0.00     0.313 HD
ENDROOT
TORSDOF 41
