REMARK  11 active torsions:
REMARK  status: ('A' for Active; 'I' for Inactive)
REMARK    1  A    between atoms: C2_2  and  C3_3 
REMARK       I    between atoms: C2_2  and  N1_31 
REMARK    2  A    between atoms: C5_5  and  C6_6 
REMARK    3  A    between atoms: C7_7  and  C8_8 
REMARK    4  A    between atoms: C10_10  and  C11_11 
REMARK       I    between atoms: C11_11  and  N3_34 
REMARK    5  A    between atoms: C12_12  and  N3_34 
REMARK    6  A    between atoms: C15_15  and  C16_16 
REMARK    7  A    between atoms: C16_16  and  N4_35 
REMARK    8  A    between atoms: C19_19  and  C20_20 
REMARK    9  A    between atoms: C19_19  and  N5_36 
REMARK   10  A    between atoms: C20_20  and  O3_40 
REMARK   11  A    between atoms: C23_23  and  C24_24 
ROOT
HETATM    1  C11 UNL     1       0.512   2.623   2.562  1.00  0.00     0.256 C 
HETATM    2  N3  UNL     1      -0.211   2.349   1.415  1.00  0.00    -0.323 N 
HETATM    3  O2  UNL     1       0.097   2.609   3.715  1.00  0.00    -0.267 OA
HETATM    4  H32 UNL     1       0.244   2.537   0.531  1.00  0.00     0.169 HD
ENDROOT
BRANCH   1   5
HETATM    5  C10 UNL     1       1.931   3.011   2.330  1.00  0.00     0.033 A 
HETATM    6  C9  UNL     1       2.703   2.412   1.327  1.00  0.00     0.038 A 
HETATM    7  C8  UNL     1       4.035   2.801   1.139  1.00  0.00     0.025 A 
HETATM    8  C28 UNL     1       4.610   3.789   1.959  1.00  0.00    -0.043 A 
HETATM    9  C27 UNL     1       3.832   4.366   2.975  1.00  0.00     0.009 A 
HETATM   10  C29 UNL     1       6.039   4.227   1.783  1.00  0.00     0.049 C 
HETATM   11  C26 UNL     1       2.505   3.977   3.163  1.00  0.00     0.017 A 
BRANCH   7  12
HETATM   12  C7  UNL     1       4.790   2.161   0.101  1.00  0.00    -0.059 C 
HETATM   13  C6  UNL     1       5.422   1.623  -0.766  1.00  0.00    -0.042 C 
BRANCH  13  14
HETATM   14  C5  UNL     1       6.173   0.988  -1.790  1.00  0.00     0.106 A 
HETATM   15  C4  UNL     1       6.210   1.304  -3.128  1.00  0.00     0.129 A 
HETATM   16  N2  UNL     1       7.051   0.464  -3.811  1.00  0.00    -0.345 N 
HETATM   17  C3  UNL     1       7.539  -0.371  -2.901  1.00  0.00     0.177 A 
ATOM     18  H2  UNL     1       7.259   0.478  -4.810  1.00  0.00     0.167 HD
HETATM   19  N6  UNL     1       7.024  -0.081  -1.655  1.00  0.00    -0.325 N 
HETATM   20  C30 UNL     1       7.339  -0.788  -0.436  1.00  0.00     0.159 C 
BRANCH  17  21
HETATM   21  C2  UNL     1       8.480  -1.433  -3.228  1.00  0.00     0.285 C 
HETATM   22  N1  UNL     1       8.829  -1.446  -4.561  1.00  0.00    -0.359 N 
HETATM   23  C1  UNL     1       9.634  -2.483  -5.143  1.00  0.00     0.149 C 
HETATM   24  H31 UNL     1       8.322  -0.791  -5.151  1.00  0.00     0.162 HD
HETATM   25  O1  UNL     1       8.917  -2.244  -2.417  1.00  0.00    -0.264 OA
ENDBRANCH  17  21
ENDBRANCH  13  14
ENDBRANCH   7  12
ENDBRANCH   1   5
BRANCH   2  26
HETATM   26  C12 UNL     1      -1.553   1.922   1.333  1.00  0.00     0.035 A 
HETATM   27  C13 UNL     1      -2.345   1.623   2.437  1.00  0.00     0.030 A 
HETATM   28  C14 UNL     1      -3.664   1.193   2.268  1.00  0.00     0.012 A 
HETATM   29  C15 UNL     1      -4.227   1.051   0.988  1.00  0.00    -0.015 A 
HETATM   30  C23 UNL     1      -3.439   1.363  -0.141  1.00  0.00     0.058 A 
HETATM   31  C25 UNL     1      -2.105   1.784   0.054  1.00  0.00     0.046 A 
BRANCH  29  32
HETATM   32  C16 UNL     1      -5.659   0.564   0.873  1.00  0.00     0.311 C 
BRANCH  32  33
HETATM   33  N4  UNL     1      -5.768  -0.680   0.105  1.00  0.00     0.096 N 
HETATM   34  C17 UNL     1      -7.169  -0.941  -0.271  1.00  0.00     0.303 C 
HETATM   35  C18 UNL     1      -7.332  -2.270  -1.044  1.00  0.00     0.302 C 
HETATM   36  N5  UNL     1      -6.796  -3.463  -0.349  1.00  0.00     0.093 N 
HETATM   37  C21 UNL     1      -5.402  -3.166   0.053  1.00  0.00     0.302 C 
HETATM   38  C22 UNL     1      -5.209  -1.839   0.828  1.00  0.00     0.303 C 
BRANCH  36  39
HETATM   39  C19 UNL     1      -7.657  -3.845   0.792  1.00  0.00     0.298 C 
BRANCH  39  40
HETATM   40  C20 UNL     1      -7.331  -5.259   1.300  1.00  0.00     0.194 C 
BRANCH  40  41
HETATM   41  O3  UNL     1      -7.285  -6.168   0.203  1.00  0.00    -0.399 OA
HETATM   42  H33 UNL     1      -6.933  -5.638  -0.543  1.00  0.00     0.209 HD
ENDBRANCH  40  41
ENDBRANCH  39  40
ENDBRANCH  36  39
ENDBRANCH  32  33
ENDBRANCH  29  32
BRANCH  30  43
HETATM   43  C24 UNL     1      -3.954   1.232  -1.562  1.00  0.00     0.418 C 
HETATM   44  F1  UNL     1      -3.868  -0.035  -2.052  1.00  0.00    -0.166 F 
HETATM   45  F2  UNL     1      -3.234   1.998  -2.439  1.00  0.00    -0.166 F 
HETATM   46  F3  UNL     1      -5.243   1.638  -1.731  1.00  0.00    -0.166 F 
ENDBRANCH  30  43
ENDBRANCH   2  26
TORSDOF 11
