REMARK  22 active torsions:
REMARK  status: ('A' for Active; 'I' for Inactive)
REMARK    1  A    between atoms: C4_4  and  O1_60 
REMARK    2  A    between atoms: C5_5  and  O1_60 
REMARK    3  A    between atoms: C6_6  and  N11_55 
REMARK    4  A    between atoms: C8_8  and  C34_34 
REMARK    5  A    between atoms: C10_10  and  N2_43 
REMARK    6  A    between atoms: C11_11  and  C12_12 
REMARK       I    between atoms: C11_11  and  N2_43 
REMARK    7  A    between atoms: C14_14  and  C16_16 
REMARK       I    between atoms: C16_16  and  N5_48 
REMARK    8  A    between atoms: C17_17  and  N5_48 
REMARK    9  A    between atoms: C19_19  and  C33_33 
REMARK   10  A    between atoms: C21_21  and  N7_50 
REMARK   11  A    between atoms: C22_22  and  O4_63 
REMARK   12  A    between atoms: C23_23  and  O4_63 
REMARK   13  A    between atoms: C27_27  and  C28_28 
REMARK       I    between atoms: C27_27  and  N7_50 
REMARK   14  A    between atoms: C28_28  and  C29_29 
REMARK   15  A    between atoms: C29_29  and  C30_30 
REMARK   16  A    between atoms: C30_30  and  C31_31 
REMARK   17  A    between atoms: C31_31  and  N8_51 
REMARK       I    between atoms: C32_32  and  N9_53 
REMARK       I    between atoms: C32_32  and  N10_54 
REMARK   18  A    between atoms: C35_35  and  C36_36 
REMARK       I    between atoms: C35_35  and  N11_55 
REMARK   19  A    between atoms: C36_36  and  C37_37 
REMARK   20  A    between atoms: C37_37  and  C38_38 
REMARK   21  A    between atoms: C38_38  and  C39_39 
REMARK   22  A    between atoms: C39_39  and  N12_56 
REMARK       I    between atoms: C40_40  and  N13_58 
REMARK       I    between atoms: C40_40  and  N14_59 
ROOT
HETATM    1  C12 UNL     1       1.524  -0.613  -0.806  1.00  0.00     0.104 A 
HETATM    2  C13 UNL     1       0.921   0.554  -0.405  1.00  0.00     0.070 A 
HETATM    3  C14 UNL     1      -0.412   0.644  -0.724  1.00  0.00     0.104 A 
HETATM    4  C15 UNL     1      -0.409  -1.411  -1.716  1.00  0.00     0.181 A 
HETATM    5  N3  UNL     1      -1.105  -0.321  -1.380  1.00  0.00    -0.348 N 
ATOM      6  H3  UNL     1      -2.095  -0.220  -1.603  1.00  0.00     0.167 HD
HETATM    7  N4  UNL     1       0.889  -1.618  -1.465  1.00  0.00    -0.348 N 
ATOM      8  H4  UNL     1       1.369  -2.472  -1.749  1.00  0.00     0.167 HD
ENDROOT
BRANCH   1   9
HETATM    9  C11 UNL     1       2.981  -0.840  -0.518  1.00  0.00     0.272 C 
HETATM   10  N2  UNL     1       3.432  -2.057  -0.992  1.00  0.00    -0.319 N 
HETATM   11  H34 UNL     1       2.683  -2.633  -1.372  1.00  0.00     0.169 HD
HETATM   12  O2  UNL     1       3.604   0.014   0.095  1.00  0.00    -0.266 OA
BRANCH  10  13
HETATM   13  C10 UNL     1       4.698  -2.670  -0.863  1.00  0.00     0.071 A 
HETATM   14  C5  UNL     1       5.898  -2.058  -0.473  1.00  0.00     0.123 A 
HETATM   15  C6  UNL     1       7.073  -2.817  -0.273  1.00  0.00     0.071 A 
HETATM   16  C7  UNL     1       7.073  -4.178  -0.570  1.00  0.00     0.048 A 
HETATM   17  C8  UNL     1       5.904  -4.804  -1.021  1.00  0.00     0.052 A 
HETATM   18  C9  UNL     1       4.730  -4.041  -1.164  1.00  0.00     0.048 A 
BRANCH  14  19
HETATM   19  O1  UNL     1       6.029  -0.699  -0.308  1.00  0.00    -0.336 OA
BRANCH  19  20
HETATM   20  C4  UNL     1       6.165  -0.026  -1.558  1.00  0.00     0.168 C 
HETATM   21  C1  UNL     1       6.190   1.473  -1.318  1.00  0.00     0.057 C 
HETATM   22  C2  UNL     1       7.666   1.748  -1.079  1.00  0.00     0.121 C 
HETATM   23  N1  UNL     1       8.395   0.795  -1.942  1.00  0.00    -0.400 N 
HETATM   24  C3  UNL     1       7.538  -0.152  -2.170  1.00  0.00     0.087 C 
ATOM     25  H1  UNL     1       9.354   0.866  -2.281  1.00  0.00     0.158 HD
ENDBRANCH  19  20
ENDBRANCH  14  19
BRANCH  15  26
HETATM   26  N11 UNL     1       8.205  -2.128   0.207  1.00  0.00    -0.325 N 
HETATM   27  C35 UNL     1       9.514  -2.552   0.245  1.00  0.00     0.222 C 
HETATM   28  O6  UNL     1       9.929  -3.657  -0.090  1.00  0.00    -0.273 OA
HETATM   29  H42 UNL     1       8.014  -1.202   0.598  1.00  0.00     0.169 HD
BRANCH  27  30
HETATM   30  C36 UNL     1      10.462  -1.470   0.729  1.00  0.00     0.103 C 
BRANCH  30  31
HETATM   31  C37 UNL     1      10.978  -1.747   2.133  1.00  0.00     0.011 C 
BRANCH  31  32
HETATM   32  C38 UNL     1       9.922  -1.709   3.241  1.00  0.00     0.020 C 
BRANCH  32  33
HETATM   33  C39 UNL     1       9.212  -0.361   3.399  1.00  0.00     0.121 C 
BRANCH  33  34
HETATM   34  N12 UNL     1       7.966  -0.369   2.629  1.00  0.00    -0.372 N 
HETATM   35  C40 UNL     1       7.097   0.534   2.896  1.00  0.00     0.121 C 
HETATM   36  N13 UNL     1       7.167   1.580   3.752  1.00  0.00    -0.279 NA
HETATM   37  N14 UNL     1       5.881   0.529   2.312  1.00  0.00    -0.279 NA
HETATM   38  H43 UNL     1       7.931   1.546   4.412  1.00  0.00     0.126 HD
HETATM   39  H44 UNL     1       6.285   1.738   4.225  1.00  0.00     0.126 HD
HETATM   40  H45 UNL     1       5.803  -0.134   1.541  1.00  0.00     0.126 HD
HETATM   41  H46 UNL     1       5.557   1.437   2.006  1.00  0.00     0.126 HD
ATOM     42  H12 UNL     1       7.796  -1.068   1.906  1.00  0.00     0.161 HD
ENDBRANCH  33  34
ENDBRANCH  32  33
ENDBRANCH  31  32
ENDBRANCH  30  31
ENDBRANCH  27  30
ENDBRANCH  15  26
BRANCH  17  43
HETATM   43  C34 UNL     1       5.914  -6.274  -1.360  1.00  0.00     0.417 C 
HETATM   44  F4  UNL     1       6.654  -7.022  -0.498  1.00  0.00    -0.166 F 
HETATM   45  F5  UNL     1       4.667  -6.827  -1.352  1.00  0.00    -0.166 F 
HETATM   46  F6  UNL     1       6.415  -6.514  -2.602  1.00  0.00    -0.166 F 
ENDBRANCH  17  43
ENDBRANCH  10  13
ENDBRANCH   1   9
BRANCH   3  47
HETATM   47  C16 UNL     1      -1.187   1.870  -0.343  1.00  0.00     0.272 C 
HETATM   48  N5  UNL     1      -2.512   1.811  -0.715  1.00  0.00    -0.319 N 
HETATM   49  H35 UNL     1      -2.797   0.953  -1.188  1.00  0.00     0.169 HD
HETATM   50  O3  UNL     1      -0.623   2.788   0.241  1.00  0.00    -0.266 OA
BRANCH  48  51
HETATM   51  C17 UNL     1      -3.533   2.763  -0.517  1.00  0.00     0.072 A 
HETATM   52  C18 UNL     1      -3.321   3.989   0.114  1.00  0.00     0.048 A 
HETATM   53  C19 UNL     1      -4.381   4.889   0.302  1.00  0.00     0.052 A 
HETATM   54  C20 UNL     1      -5.661   4.549  -0.167  1.00  0.00     0.048 A 
HETATM   55  C21 UNL     1      -5.895   3.343  -0.843  1.00  0.00     0.072 A 
HETATM   56  C22 UNL     1      -4.831   2.434  -0.968  1.00  0.00     0.129 A 
BRANCH  53  57
HETATM   57  C33 UNL     1      -4.140   6.194   1.021  1.00  0.00     0.417 C 
HETATM   58  F1  UNL     1      -3.006   6.826   0.616  1.00  0.00    -0.166 F 
HETATM   59  F2  UNL     1      -4.025   6.028   2.367  1.00  0.00    -0.166 F 
HETATM   60  F3  UNL     1      -5.149   7.094   0.844  1.00  0.00    -0.166 F 
ENDBRANCH  53  57
BRANCH  55  61
HETATM   61  N7  UNL     1      -7.220   3.139  -1.296  1.00  0.00    -0.325 N 
HETATM   62  C27 UNL     1      -7.637   2.331  -2.339  1.00  0.00     0.222 C 
HETATM   63  O5  UNL     1      -6.927   1.762  -3.161  1.00  0.00    -0.273 OA
HETATM   64  H37 UNL     1      -7.915   3.785  -0.944  1.00  0.00     0.169 HD
BRANCH  62  65
HETATM   65  C28 UNL     1      -9.149   2.210  -2.414  1.00  0.00     0.103 C 
BRANCH  65  66
HETATM   66  C29 UNL     1      -9.678   1.040  -1.585  1.00  0.00     0.011 C 
BRANCH  66  67
HETATM   67  C30 UNL     1      -9.614   1.292  -0.074  1.00  0.00     0.020 C 
BRANCH  67  68
HETATM   68  C31 UNL     1     -10.290   0.181   0.731  1.00  0.00     0.121 C 
BRANCH  68  69
HETATM   69  N8  UNL     1     -11.730   0.245   0.503  1.00  0.00    -0.372 N 
HETATM   70  C32 UNL     1     -12.485  -0.554   1.156  1.00  0.00     0.121 C 
HETATM   71  N9  UNL     1     -13.823  -0.508   0.984  1.00  0.00    -0.279 NA
HETATM   72  N10 UNL     1     -12.168  -1.504   2.063  1.00  0.00    -0.279 NA
HETATM   73  H38 UNL     1     -14.067   0.306   0.427  1.00  0.00     0.126 HD
HETATM   74  H39 UNL     1     -14.322  -0.493   1.865  1.00  0.00     0.126 HD
HETATM   75  H40 UNL     1     -12.768  -2.317   1.986  1.00  0.00     0.126 HD
HETATM   76  H41 UNL     1     -11.194  -1.774   2.060  1.00  0.00     0.126 HD
ATOM     77  H8  UNL     1     -12.125   0.911  -0.161  1.00  0.00     0.161 HD
ENDBRANCH  68  69
ENDBRANCH  67  68
ENDBRANCH  66  67
ENDBRANCH  65  66
ENDBRANCH  62  65
ENDBRANCH  55  61
BRANCH  56  78
HETATM   78  O4  UNL     1      -5.007   1.179  -1.507  1.00  0.00    -0.309 OA
BRANCH  78  79
HETATM   79  C23 UNL     1      -5.474   0.185  -0.685  1.00  0.00     0.065 C 
HETATM   80  C24 UNL     1      -5.647   0.146   0.644  1.00  0.00     0.089 C 
HETATM   81  N6  UNL     1      -6.150  -1.068   1.057  1.00  0.00    -0.300 NA
HETATM   82  C25 UNL     1      -6.557  -1.849  -0.117  1.00  0.00     0.098 C 
HETATM   83  H36 UNL     1      -6.809  -1.015   1.828  1.00  0.00     0.127 HD
HETATM   84  C26 UNL     1      -5.902  -1.113  -1.305  1.00  0.00     0.080 C 
ENDBRANCH  78  79
ENDBRANCH  56  78
ENDBRANCH  48  51
ENDBRANCH   3  47
TORSDOF 22
