REMARK  0 active torsions:
REMARK  status: ('A' for Active; 'I' for Inactive)
REMARK       I    between atoms: C2_2  and  C3_3 
REMARK       I    between atoms: C3_3  and  C5_5 
REMARK       I    between atoms: C5_5  and  C6_6 
REMARK       I    between atoms: C5_5  and  N11_94 
REMARK       I    between atoms: C6_6  and  C7_7 
REMARK       I    between atoms: C6_6  and  O12_81 
REMARK       I    between atoms: C7_7  and  C8_8 
REMARK       I    between atoms: C8_8  and  N1_84 
REMARK       I    between atoms: C12_12  and  C13_13 
REMARK       I    between atoms: C13_13  and  C14_14 
REMARK       I    between atoms: C13_13  and  O11_80 
REMARK       I    between atoms: C14_14  and  C16_16 
REMARK       I    between atoms: C16_16  and  N2_85 
REMARK       I    between atoms: C17_17  and  C18_18 
REMARK       I    between atoms: C17_17  and  C25_25 
REMARK       I    between atoms: C17_17  and  N2_85 
REMARK       I    between atoms: C18_18  and  C19_19 
REMARK       I    between atoms: C25_25  and  N3_86 
REMARK       I    between atoms: C26_26  and  C27_27 
REMARK       I    between atoms: C26_26  and  N3_86 
REMARK       I    between atoms: C30_30  and  N4_87 
REMARK       I    between atoms: C33_33  and  C34_34 
REMARK       I    between atoms: C33_33  and  N4_87 
REMARK       I    between atoms: C34_34  and  C35_35 
REMARK       I    between atoms: C34_34  and  N7_90 
REMARK       I    between atoms: C35_35  and  C36_36 
REMARK       I    between atoms: C36_36  and  C37_37 
REMARK       I    between atoms: C37_37  and  N5_88 
REMARK       I    between atoms: C38_38  and  N5_88 
REMARK       I    between atoms: C38_38  and  N6_89 
REMARK       I    between atoms: C39_39  and  C40_40 
REMARK       I    between atoms: C39_39  and  N7_90 
REMARK       I    between atoms: C40_40  and  C41_41 
REMARK       I    between atoms: C40_40  and  N8_91 
REMARK       I    between atoms: C44_44  and  C45_45 
REMARK       I    between atoms: C44_44  and  N8_91 
REMARK       I    between atoms: C45_45  and  C46_46 
REMARK       I    between atoms: C46_46  and  C47_47 
REMARK       I    between atoms: C47_47  and  N9_92 
REMARK       I    between atoms: C50_50  and  C54_54 
REMARK       I    between atoms: C54_54  and  O10_79 
REMARK       I    between atoms: C58_58  and  C59_59 
REMARK       I    between atoms: C58_58  and  N11_94 
REMARK       I    between atoms: C59_59  and  C60_60 
REMARK       I    between atoms: C59_59  and  N12_95 
REMARK       I    between atoms: C63_63  and  C64_64 
REMARK       I    between atoms: C63_63  and  N12_95 
REMARK       I    between atoms: C64_64  and  C65_65 
REMARK       I    between atoms: C64_64  and  N13_96 
REMARK       I    between atoms: N9_92  and  N10_93 
ROOT
HETATM    1  C1  UNL     1      -9.160  -3.569  -5.791  1.00  0.00     0.005 C 
HETATM    2  C2  UNL     1     -10.455  -3.469  -4.998  1.00  0.00     0.002 C 
HETATM    3  C3  UNL     1     -10.289  -3.610  -3.465  1.00  0.00     0.006 C 
HETATM    4  C4  UNL     1     -11.685  -3.595  -2.830  1.00  0.00     0.012 C 
HETATM    5  C5  UNL     1      -9.267  -2.609  -2.810  1.00  0.00     0.119 C 
HETATM    6  C6  UNL     1      -9.712  -1.106  -2.778  1.00  0.00     0.152 C 
HETATM    7  C7  UNL     1      -8.772  -0.153  -2.010  1.00  0.00     0.137 C 
HETATM    8  C8  UNL     1      -7.306  -0.153  -2.421  1.00  0.00     0.222 C 
HETATM    9  C9  UNL     1      -6.898   1.715  -0.750  1.00  0.00     0.126 C 
HETATM   10  C10 UNL     1      -5.875   2.824  -0.916  1.00  0.00     0.022 C 
HETATM   11  C11 UNL     1      -4.592   2.055  -1.189  1.00  0.00     0.029 C 
HETATM   12  C12 UNL     1      -5.050   0.853  -2.041  1.00  0.00     0.117 C 
HETATM   13  C13 UNL     1      -4.184  -0.423  -1.788  1.00  0.00     0.156 C 
HETATM   14  C14 UNL     1      -2.710  -0.224  -2.229  1.00  0.00     0.105 C 
HETATM   15  C15 UNL     1      -1.860  -1.460  -1.907  1.00  0.00     0.022 C 
HETATM   16  C16 UNL     1      -2.588   0.083  -3.716  1.00  0.00     0.224 C 
HETATM   17  C17 UNL     1      -1.085   0.989  -5.472  1.00  0.00     0.180 C 
HETATM   18  C18 UNL     1      -0.543  -0.228  -6.246  1.00  0.00     0.073 C 
HETATM   19  C19 UNL     1       0.589  -0.959  -5.554  1.00  0.00    -0.056 A 
HETATM   20  C20 UNL     1       1.903  -0.476  -5.610  1.00  0.00     0.007 A 
HETATM   21  C21 UNL     1       2.931  -1.139  -4.939  1.00  0.00     0.001 A 
HETATM   22  C22 UNL     1       2.660  -2.296  -4.212  1.00  0.00     0.000 A 
HETATM   23  C23 UNL     1       1.361  -2.796  -4.163  1.00  0.00     0.001 A 
HETATM   24  C24 UNL     1       0.331  -2.133  -4.832  1.00  0.00     0.007 A 
HETATM   25  C25 UNL     1      -0.149   2.213  -5.555  1.00  0.00     0.241 C 
HETATM   26  C26 UNL     1       0.591   4.189  -4.274  1.00  0.00     0.161 C 
HETATM   27  C27 UNL     1       1.631   3.736  -3.281  1.00  0.00    -0.040 A 
HETATM   28  C28 UNL     1       2.754   3.019  -3.710  1.00  0.00     0.011 A 
HETATM   29  C29 UNL     1       3.687   2.543  -2.786  1.00  0.00     0.030 A 
HETATM   30  C30 UNL     1       3.515   2.769  -1.416  1.00  0.00     0.034 A 
HETATM   31  C31 UNL     1       2.399   3.487  -0.986  1.00  0.00     0.030 A 
HETATM   32  C32 UNL     1       1.460   3.962  -1.910  1.00  0.00     0.011 A 
HETATM   33  C33 UNL     1       4.527   2.274   0.831  1.00  0.00     0.245 C 
HETATM   34  C34 UNL     1       5.817   1.624   1.408  1.00  0.00     0.177 C 
HETATM   35  C35 UNL     1       5.850   1.536   2.945  1.00  0.00     0.036 C 
HETATM   36  C36 UNL     1       5.760   2.829   3.773  1.00  0.00     0.022 C 
HETATM   37  C37 UNL     1       7.000   3.718   3.817  1.00  0.00     0.124 C 
HETATM   38  C38 UNL     1       8.457   2.787   5.566  1.00  0.00     0.313 C 
HETATM   39  C39 UNL     1       7.577   1.807  -0.357  1.00  0.00     0.241 C 
HETATM   40  C40 UNL     1       8.867   2.560  -0.767  1.00  0.00     0.180 C 
HETATM   41  C41 UNL     1       9.792   1.657  -1.618  1.00  0.00     0.009 C 
HETATM   42  C42 UNL     1      10.909   2.453  -2.296  1.00  0.00     0.012 C 
HETATM   43  C43 UNL     1      10.397   0.502  -0.811  1.00  0.00     0.012 C 
HETATM   44  C44 UNL     1      10.171   4.292   0.476  1.00  0.00     0.218 C 
HETATM   45  C45 UNL     1      10.820   4.610   1.809  1.00  0.00     0.112 C 
HETATM   46  C46 UNL     1      11.971   3.666   2.145  1.00  0.00     0.113 C 
HETATM   47  C47 UNL     1      11.493   2.382   2.796  1.00  0.00     0.232 C 
HETATM   48  C48 UNL     1      12.297  -0.714   3.191  1.00  0.00     0.115 C 
HETATM   49  C49 UNL     1      13.731  -1.095   2.821  1.00  0.00     0.031 C 
HETATM   50  C50 UNL     1      14.613  -1.302   4.056  1.00  0.00     0.086 C 
HETATM   51  C51 UNL     1      14.481  -0.114   5.017  1.00  0.00     0.036 C 
HETATM   52  C52 UNL     1      13.030   0.319   5.301  1.00  0.00     0.076 C 
HETATM   53  C53 UNL     1      12.324  -0.597   6.308  1.00  0.00     0.028 C 
HETATM   54  C54 UNL     1      14.335  -2.634   4.722  1.00  0.00     0.143 C 
HETATM   55  C55 UNL     1      -5.082  -1.668   0.058  1.00  0.00     0.202 C 
HETATM   56  C56 UNL     1     -10.897   0.344  -4.276  1.00  0.00     0.202 C 
HETATM   57  C57 UNL     1      -7.516  -3.924  -1.634  1.00  0.00     0.153 C 
HETATM   58  C58 UNL     1      -9.442  -2.948  -0.326  1.00  0.00     0.243 C 
HETATM   59  C59 UNL     1      -8.879  -3.548   0.991  1.00  0.00     0.180 C 
HETATM   60  C60 UNL     1      -9.193  -5.057   1.112  1.00  0.00     0.009 C 
HETATM   61  C61 UNL     1      -8.405  -5.677   2.271  1.00  0.00     0.012 C 
HETATM   62  C62 UNL     1     -10.685  -5.366   1.278  1.00  0.00     0.012 C 
HETATM   63  C63 UNL     1      -8.866  -1.579   2.476  1.00  0.00     0.252 C 
HETATM   64  C64 UNL     1      -9.708  -0.764   3.495  1.00  0.00     0.316 C 
HETATM   65  C65 UNL     1      -9.569   0.780   3.353  1.00  0.00     0.020 C 
HETATM   66  C66 UNL     1      -9.930   1.237   1.933  1.00  0.00     0.012 C 
HETATM   67  C67 UNL     1      -8.226   1.384   3.766  1.00  0.00     0.012 C 
HETATM   68  C68 UNL     1      -8.138  -1.655   5.206  1.00  0.00     0.310 C 
HETATM   69  C69 UNL     1     -10.451  -2.267   5.284  1.00  0.00     0.310 C 
HETATM   70  O1  UNL     1      -6.859  -0.882  -3.302  1.00  0.00    -0.273 OA
HETATM   71  O2  UNL     1      -3.456  -0.177  -4.539  1.00  0.00    -0.273 OA
HETATM   72  O3  UNL     1       0.609   2.430  -6.496  1.00  0.00    -0.271 OA
HETATM   73  O4  UNL     1       3.614   2.665   1.552  1.00  0.00    -0.271 OA
HETATM   74  O5  UNL     1       7.763   3.133   6.510  1.00  0.00    -0.248 OA
HETATM   75  O6  UNL     1       6.991   1.011  -1.087  1.00  0.00    -0.271 OA
HETATM   76  O7  UNL     1      10.212   5.070  -0.470  1.00  0.00    -0.274 OA
HETATM   77  O8  UNL     1      10.317   2.017   2.757  1.00  0.00    -0.272 OA
HETATM   78  O9  UNL     1      13.568  -3.500   4.338  1.00  0.00    -0.650 OA
HETATM   79  O10 UNL     1      15.083  -2.831   5.825  1.00  0.00    -0.776 OA
HETATM   80  O11 UNL     1      -4.131  -0.704  -0.369  1.00  0.00    -0.388 OA
HETATM   81  O12 UNL     1      -9.874  -0.630  -4.129  1.00  0.00    -0.388 OA
HETATM   82  O13 UNL     1     -10.502  -2.310  -0.283  1.00  0.00    -0.271 OA
HETATM   83  O14 UNL     1      -7.765  -1.228   2.059  1.00  0.00    -0.271 OA
HETATM   84  N1  UNL     1      -6.481   0.712  -1.718  1.00  0.00    -0.345 N 
HETATM   85  N2  UNL     1      -1.400   0.689  -4.065  1.00  0.00    -0.347 N 
HETATM   86  N3  UNL     1      -0.341   3.117  -4.527  1.00  0.00    -0.355 N 
HETATM   87  N4  UNL     1       4.502   2.255  -0.555  1.00  0.00    -0.325 N 
HETATM   88  N5  UNL     1       8.191   3.029   4.254  1.00  0.00    -0.343 N 
HETATM   89  N6  UNL     1       9.635   2.140   5.748  1.00  0.00    -0.352 N 
HETATM   90  N7  UNL     1       7.042   2.203   0.853  1.00  0.00    -0.346 N 
HETATM   91  N8  UNL     1       9.522   3.085   0.430  1.00  0.00    -0.347 N 
HETATM   92  N9  UNL     1      12.520   1.652   3.373  1.00  0.00    -0.289 N 
HETATM   93  N10 UNL     1      12.220   0.462   4.075  1.00  0.00    -0.225 NA
HETATM   94  N11 UNL     1      -8.750  -3.149  -1.516  1.00  0.00    -0.347 N 
HETATM   95  N12 UNL     1      -9.449  -2.780   2.101  1.00  0.00    -0.346 N 
HETATM   96  N13 UNL     1      -9.504  -1.218   4.902  1.00  0.00     0.094 N 
HETATM   97  HA1 UNL     1      14.833  -3.730   6.128  1.00  0.00     0.167 HD
HETATM   98  HA2 UNL     1      -0.604   0.568  -3.446  1.00  0.00     0.163 HD
HETATM   99  HA3 UNL     1      -0.932   2.811  -3.763  1.00  0.00     0.162 HD
HETATM  100  HA4 UNL     1       5.262   1.742  -1.003  1.00  0.00     0.169 HD
HETATM  101  HA5 UNL     1       8.792   2.565   3.580  1.00  0.00     0.164 HD
HETATM  102  HA6 UNL     1       9.982   1.540   5.008  1.00  0.00     0.160 HD
HETATM  103  HA7 UNL     1       9.788   1.817   6.692  1.00  0.00     0.160 HD
HETATM  104  HA8 UNL     1       7.350   3.109   1.180  1.00  0.00     0.163 HD
HETATM  105  HA9 UNL     1       9.580   2.462   1.236  1.00  0.00     0.163 HD
HETATM  106  HB0 UNL     1      13.458   2.041   3.417  1.00  0.00     0.184 HD
HETATM  107  HB1 UNL     1     -10.462  -2.783   2.141  1.00  0.00     0.163 HD
ENDROOT
TORSDOF 39
