REMARK  0 active torsions:
REMARK  status: ('A' for Active; 'I' for Inactive)
REMARK       I    between atoms: C1_1  and  C40_40 
REMARK       I    between atoms: C1_1  and  N1_88 
REMARK       I    between atoms: C2_2  and  N1_88 
REMARK       I    between atoms: C5_5  and  C6_6 
REMARK       I    between atoms: C6_6  and  N4_92 
REMARK       I    between atoms: C7_7  and  N4_92 
REMARK       I    between atoms: C9_9  and  C10_10 
REMARK       I    between atoms: C10_10  and  N6_94 
REMARK       I    between atoms: C11_11  and  N6_94 
REMARK       I    between atoms: C13_13  and  C16_16 
REMARK       I    between atoms: C16_16  and  N8_96 
REMARK       I    between atoms: C17_17  and  N8_96 
REMARK       I    between atoms: C20_20  and  C22_22 
REMARK       I    between atoms: C22_22  and  N10_98 
REMARK       I    between atoms: C23_23  and  C24_24 
REMARK       I    between atoms: C23_23  and  N10_98 
REMARK       I    between atoms: C24_24  and  C25_25 
REMARK       I    between atoms: C25_25  and  N11_99 
REMARK       I    between atoms: C26_26  and  C27_27 
REMARK       I    between atoms: C26_26  and  N11_99 
REMARK       I    between atoms: C27_27  and  C28_28 
REMARK       I    between atoms: C28_28  and  N12_100 
REMARK       I    between atoms: C29_29  and  C30_30 
REMARK       I    between atoms: C29_29  and  N12_100 
REMARK       I    between atoms: C34_34  and  C35_35 
REMARK       I    between atoms: C35_35  and  O8_80 
REMARK       I    between atoms: C40_40  and  C41_41 
REMARK       I    between atoms: C41_41  and  C42_42 
REMARK       I    between atoms: C41_41  and  N22_111 
REMARK       I    between atoms: C42_42  and  N13_101 
REMARK       I    between atoms: C43_43  and  C44_44 
REMARK       I    between atoms: C43_43  and  N13_101 
REMARK       I    between atoms: C46_46  and  N14_102 
REMARK       I    between atoms: C47_47  and  C48_48 
REMARK       I    between atoms: C47_47  and  N14_102 
REMARK       I    between atoms: C50_50  and  N16_104 
REMARK       I    between atoms: C53_53  and  C54_54 
REMARK       I    between atoms: C53_53  and  N16_104 
REMARK       I    between atoms: C57_57  and  N18_106 
REMARK       I    between atoms: C59_59  and  C60_60 
REMARK       I    between atoms: C59_59  and  N18_106 
REMARK       I    between atoms: C66_66  and  C67_67 
REMARK       I    between atoms: C66_66  and  N22_111 
REMARK       I    between atoms: C70_70  and  N23_112 
ROOT
HETATM    1  C1  UNL     1      -2.530  -0.199  -3.369  1.00  0.00     0.225 C 
HETATM    2  C2  UNL     1      -1.986  -2.349  -2.372  1.00  0.00     0.125 A 
HETATM    3  C3  UNL     1      -2.287  -3.645  -2.032  1.00  0.00     0.140 A 
HETATM    4  C4  UNL     1      -1.048  -5.401  -0.748  1.00  0.00     0.157 C 
HETATM    5  C5  UNL     1      -0.297  -3.057  -1.253  1.00  0.00     0.178 A 
HETATM    6  C6  UNL     1       1.001  -3.059  -0.593  1.00  0.00     0.290 C 
HETATM    7  C7  UNL     1       2.876  -1.508  -0.236  1.00  0.00     0.053 A 
HETATM    8  C8  UNL     1       3.442  -0.270  -0.414  1.00  0.00     0.120 A 
HETATM    9  C9  UNL     1       4.918  -1.495   0.791  1.00  0.00     0.105 A 
HETATM   10  C10 UNL     1       6.136  -1.827   1.530  1.00  0.00     0.273 C 
HETATM   11  C11 UNL     1       7.136  -3.616   2.886  1.00  0.00     0.053 A 
HETATM   12  C12 UNL     1       8.423  -3.114   3.186  1.00  0.00     0.066 A 
HETATM   13  C13 UNL     1       9.100  -4.036   3.980  1.00  0.00     0.105 A 
HETATM   14  C14 UNL     1       8.485  -6.308   4.897  1.00  0.00     0.156 C 
HETATM   15  C15 UNL     1       7.042  -4.846   3.491  1.00  0.00     0.120 A 
HETATM   16  C16 UNL     1      10.449  -3.981   4.547  1.00  0.00     0.273 C 
HETATM   17  C17 UNL     1      12.342  -2.426   4.836  1.00  0.00     0.053 A 
HETATM   18  C18 UNL     1      13.259  -3.221   5.475  1.00  0.00     0.120 A 
HETATM   19  C19 UNL     1      15.561  -2.995   6.390  1.00  0.00     0.156 C 
HETATM   20  C20 UNL     1      14.228  -1.189   5.232  1.00  0.00     0.104 A 
HETATM   21  C21 UNL     1      12.947  -1.152   4.687  1.00  0.00     0.066 A 
HETATM   22  C22 UNL     1      15.240  -0.148   5.324  1.00  0.00     0.268 C 
HETATM   23  C23 UNL     1      15.897   2.107   4.545  1.00  0.00     0.125 C 
HETATM   24  C24 UNL     1      17.046   1.866   3.563  1.00  0.00     0.050 C 
HETATM   25  C25 UNL     1      16.555   1.797   2.109  1.00  0.00     0.273 C 
HETATM   26  C26 UNL     1      18.638   2.583   1.017  1.00  0.00     0.273 C 
HETATM   27  C27 UNL     1      18.159   4.008   0.706  1.00  0.00     0.050 C 
HETATM   28  C28 UNL     1      17.343   4.128  -0.582  1.00  0.00     0.124 C 
HETATM   29  C29 UNL     1      19.011   4.451  -2.375  1.00  0.00     0.251 C 
HETATM   30  C30 UNL     1      19.751   3.823  -3.505  1.00  0.00     0.033 A 
HETATM   31  C31 UNL     1      21.037   4.297  -3.799  1.00  0.00     0.017 A 
HETATM   32  C32 UNL     1      21.771   3.742  -4.848  1.00  0.00     0.002 A 
HETATM   33  C33 UNL     1      21.220   2.714  -5.614  1.00  0.00     0.018 A 
HETATM   34  C34 UNL     1      19.930   2.244  -5.337  1.00  0.00     0.038 A 
HETATM   35  C35 UNL     1      19.383   1.159  -6.188  1.00  0.00     0.176 C 
HETATM   36  C36 UNL     1      19.192   2.802  -4.284  1.00  0.00     0.035 A 
HETATM   37  C37 UNL     1      18.157   0.227   1.179  1.00  0.00     0.309 C 
HETATM   38  C38 UNL     1       3.797  -2.275   0.512  1.00  0.00     0.066 A 
HETATM   39  C39 UNL     1       5.554   0.881   0.215  1.00  0.00     0.156 C 
HETATM   40  C40 UNL     1      -3.601   0.467  -4.211  1.00  0.00     0.130 C 
HETATM   41  C41 UNL     1      -4.860   0.908  -3.446  1.00  0.00     0.111 C 
HETATM   42  C42 UNL     1      -4.722   0.964  -1.902  1.00  0.00     0.148 C 
HETATM   43  C43 UNL     1      -6.800   2.234  -1.414  1.00  0.00     0.268 C 
HETATM   44  C44 UNL     1      -8.097   2.085  -0.800  1.00  0.00     0.104 A 
HETATM   45  C45 UNL     1      -9.329   2.115  -1.435  1.00  0.00     0.066 A 
HETATM   46  C46 UNL     1     -10.329   1.825  -0.480  1.00  0.00     0.053 A 
HETATM   47  C47 UNL     1     -12.347   1.577  -1.852  1.00  0.00     0.273 C 
HETATM   48  C48 UNL     1     -13.798   1.453  -1.733  1.00  0.00     0.105 A 
HETATM   49  C49 UNL     1     -14.624   1.707  -0.642  1.00  0.00     0.066 A 
HETATM   50  C50 UNL     1     -15.963   1.438  -1.005  1.00  0.00     0.053 A 
HETATM   51  C51 UNL     1     -15.944   1.037  -2.319  1.00  0.00     0.120 A 
HETATM   52  C52 UNL     1     -14.238   0.680  -4.096  1.00  0.00     0.156 C 
HETATM   53  C53 UNL     1     -17.212   1.921   1.056  1.00  0.00     0.273 C 
HETATM   54  C54 UNL     1     -18.571   1.931   1.595  1.00  0.00     0.105 A 
HETATM   55  C55 UNL     1     -18.021   3.087   3.772  1.00  0.00     0.156 C 
HETATM   56  C56 UNL     1     -20.270   2.313   3.043  1.00  0.00     0.120 A 
HETATM   57  C57 UNL     1     -20.815   1.684   1.952  1.00  0.00     0.053 A 
HETATM   58  C58 UNL     1     -19.755   1.440   1.049  1.00  0.00     0.066 A 
HETATM   59  C59 UNL     1     -22.773   0.762   0.785  1.00  0.00     0.290 C 
HETATM   60  C60 UNL     1     -24.205   0.602   1.017  1.00  0.00     0.176 A 
HETATM   61  C61 UNL     1     -26.348   0.079   0.772  1.00  0.00     0.109 A 
HETATM   62  C62 UNL     1     -26.128   0.697   1.979  1.00  0.00     0.107 A 
HETATM   63  C63 UNL     1     -24.846  -0.545  -1.127  1.00  0.00     0.157 C 
HETATM   64  C64 UNL     1      -9.699   1.723   0.740  1.00  0.00     0.120 A 
HETATM   65  C65 UNL     1      -7.364   1.911   1.599  1.00  0.00     0.156 C 
HETATM   66  C66 UNL     1      -6.286  -1.152  -3.740  1.00  0.00     0.252 C 
HETATM   67  C67 UNL     1      -7.647  -1.660  -4.082  1.00  0.00     0.032 A 
HETATM   68  C68 UNL     1      -8.793  -0.859  -3.977  1.00  0.00     0.019 A 
HETATM   69  C69 UNL     1     -10.052  -1.379  -4.296  1.00  0.00     0.037 A 
HETATM   70  C70 UNL     1     -10.166  -2.710  -4.716  1.00  0.00     0.102 A 
HETATM   71  C71 UNL     1      -9.029  -3.524  -4.810  1.00  0.00     0.037 A 
HETATM   72  C72 UNL     1      -7.774  -2.996  -4.488  1.00  0.00     0.019 A 
HETATM   73  O1  UNL     1      -1.563   0.453  -2.985  1.00  0.00    -0.273 OA
HETATM   74  O2  UNL     1       1.447  -4.033   0.010  1.00  0.00    -0.264 OA
HETATM   75  O3  UNL     1       7.088  -1.053   1.598  1.00  0.00    -0.266 OA
HETATM   76  O4  UNL     1      10.955  -4.952   5.104  1.00  0.00    -0.266 OA
HETATM   77  O5  UNL     1      16.280  -0.267   5.966  1.00  0.00    -0.266 OA
HETATM   78  O6  UNL     1      19.285   5.592  -2.021  1.00  0.00    -0.268 OA
HETATM   79  O7  UNL     1      19.944   0.645  -7.137  1.00  0.00    -0.646 OA
HETATM   80  O8  UNL     1      18.157   0.764  -5.802  1.00  0.00    -0.773 OA
HETATM   81  O9  UNL     1      -6.488   3.176  -2.131  1.00  0.00    -0.266 OA
HETATM   82  O10 UNL     1     -11.775   1.552  -2.940  1.00  0.00    -0.266 OA
HETATM   83  O11 UNL     1     -16.240   2.243   1.737  1.00  0.00    -0.266 OA
HETATM   84  O12 UNL     1     -22.212   0.382  -0.240  1.00  0.00    -0.264 OA
HETATM   85  O13 UNL     1      -5.412  -1.930  -3.373  1.00  0.00    -0.268 OA
HETATM   86  O14 UNL     1     -12.454  -2.485  -5.044  1.00  0.00    -0.532 OA
HETATM   87  O15 UNL     1     -11.553  -4.464  -5.332  1.00  0.00    -0.532 OA
HETATM   88  N1  UNL     1      -2.801  -1.521  -3.099  1.00  0.00    -0.312 N 
HETATM   89  N2  UNL     1      -1.204  -4.087  -1.321  1.00  0.00    -0.339 N 
HETATM   90  N3  UNL     1      -0.763  -1.995  -1.892  1.00  0.00    -0.323 N 
ATOM     91  H3  UNL     1      -0.299  -1.093  -2.002  1.00  0.00     0.169 HD
HETATM   92  N4  UNL     1       1.637  -1.842  -0.735  1.00  0.00    -0.319 N 
HETATM   93  N5  UNL     1       4.669  -0.266   0.199  1.00  0.00    -0.354 N 
HETATM   94  N6  UNL     1       6.109  -3.068   2.142  1.00  0.00    -0.320 N 
HETATM   95  N7  UNL     1       8.224  -5.098   4.143  1.00  0.00    -0.354 N 
HETATM   96  N8  UNL     1      11.070  -2.752   4.405  1.00  0.00    -0.320 N 
HETATM   97  N9  UNL     1      14.385  -2.476   5.721  1.00  0.00    -0.354 N 
HETATM   98  N10 UNL     1      14.964   1.000   4.611  1.00  0.00    -0.356 N 
HETATM   99  N11 UNL     1      17.575   1.567   1.071  1.00  0.00     0.084 N 
HETATM  100  N12 UNL     1      18.058   3.670  -1.756  1.00  0.00    -0.357 N 
HETATM  101  N13 UNL     1      -5.985   1.148  -1.200  1.00  0.00    -0.354 N 
HETATM  102  N14 UNL     1     -11.692   1.669  -0.637  1.00  0.00    -0.320 N 
HETATM  103  N15 UNL     1     -14.643   1.055  -2.756  1.00  0.00    -0.354 N 
HETATM  104  N16 UNL     1     -17.129   1.530  -0.268  1.00  0.00    -0.320 N 
HETATM  105  N17 UNL     1     -18.922   2.457   2.829  1.00  0.00    -0.354 N 
HETATM  106  N18 UNL     1     -22.155   1.385   1.852  1.00  0.00    -0.319 N 
HETATM  107  N19 UNL     1     -25.121   0.023   0.170  1.00  0.00    -0.342 N 
HETATM  108  N20 UNL     1     -24.804   1.018   2.127  1.00  0.00    -0.346 N 
ATOM    109  H20 UNL     1     -24.368   1.481   2.925  1.00  0.00     0.167 HD
HETATM  110  N21 UNL     1      -8.351   1.892   0.541  1.00  0.00    -0.354 N 
HETATM  111  N22 UNL     1      -6.074   0.196  -3.883  1.00  0.00    -0.350 N 
HETATM  112  N23 UNL     1     -11.486  -3.259  -5.054  1.00  0.00    -0.116 N 
HETATM  113  H68 UNL     1      17.925   0.059  -6.443  1.00  0.00     0.167 HD
HETATM  114  H69 UNL     1      -3.714  -1.898  -3.356  1.00  0.00     0.170 HD
HETATM  115  H70 UNL     1       1.121  -1.139  -1.263  1.00  0.00     0.169 HD
HETATM  116  H71 UNL     1       5.273  -3.627   2.067  1.00  0.00     0.169 HD
HETATM  117  H72 UNL     1      10.554  -2.006   3.965  1.00  0.00     0.169 HD
HETATM  118  H73 UNL     1      14.153   1.021   4.013  1.00  0.00     0.162 HD
HETATM  119  H74 UNL     1      18.025   2.676  -1.940  1.00  0.00     0.162 HD
HETATM  120  H75 UNL     1      -6.416   0.319  -0.814  1.00  0.00     0.162 HD
HETATM  121  H76 UNL     1     -12.226   1.529   0.208  1.00  0.00     0.169 HD
HETATM  122  H77 UNL     1     -17.979   1.303  -0.761  1.00  0.00     0.169 HD
HETATM  123  H78 UNL     1     -22.767   1.640   2.622  1.00  0.00     0.169 HD
HETATM  124  H79 UNL     1      -6.823   0.791  -4.215  1.00  0.00     0.163 HD
ENDROOT
TORSDOF 33
