REMARK  27 active torsions:
REMARK  status: ('A' for Active; 'I' for Inactive)
REMARK    1  A    between atoms: C2_2  and  C4_4 
REMARK    2  A    between atoms: C4_4  and  C5_5 
REMARK    3  A    between atoms: C4_4  and  N15_90 
REMARK    4  A    between atoms: C5_5  and  C6_6 
REMARK    5  A    between atoms: C6_6  and  C7_7 
REMARK    6  A    between atoms: C7_7  and  C8_8 
REMARK    7  A    between atoms: C7_7  and  C12_12 
REMARK    8  A    between atoms: C8_8  and  C9_9 
REMARK    9  A    between atoms: C9_9  and  C10_10 
REMARK   10  A    between atoms: C10_10  and  N1_70 
REMARK       I    between atoms: C11_11  and  N1_70 
REMARK       I    between atoms: C11_11  and  N2_71 
REMARK       I    between atoms: C12_12  and  N3_72 
REMARK   11  A    between atoms: C13_13  and  N3_72 
REMARK   12  A    between atoms: C16_16  and  C19_19 
REMARK   13  A    between atoms: C19_19  and  O4_56 
REMARK   14  A    between atoms: C20_20  and  O4_56 
REMARK       I    between atoms: C20_20  and  N4_73 
REMARK   15  A    between atoms: C22_22  and  C23_23 
REMARK   16  A    between atoms: C22_22  and  N4_73 
REMARK   17  A    between atoms: C23_23  and  C24_24 
REMARK   18  A    between atoms: C24_24  and  C25_25 
REMARK       I    between atoms: C25_25  and  N5_74 
REMARK   19  A    between atoms: C26_26  and  N5_74 
REMARK   20  A    between atoms: C31_31  and  N8_79 
REMARK   21  A    between atoms: C39_39  and  N10_82 
REMARK   22  A    between atoms: C43_43  and  N14_89 
REMARK   23  A    between atoms: C46_46  and  C47_47 
REMARK       I    between atoms: C46_46  and  N15_90 
REMARK   24  A    between atoms: C47_47  and  C48_48 
REMARK   25  A    between atoms: C48_48  and  N16_91 
REMARK   26  A    between atoms: O14_66  and  P1_92 
REMARK   27  A    between atoms: P2_93  and  S2_95 
ROOT
HETATM    1  C25 UNL     1      -2.016   2.002  -0.673  1.00  0.00     0.223 C 
HETATM    2  O6  UNL     1      -2.472   3.137  -0.692  1.00  0.00    -0.273 OA
HETATM    3  N5  UNL     1      -2.727   0.828  -0.563  1.00  0.00    -0.311 N 
HETATM    4  H60 UNL     1      -2.237  -0.009  -0.284  1.00  0.00     0.170 HD
ENDROOT
BRANCH   3   5
HETATM    5  C26 UNL     1      -4.113   0.663  -0.584  1.00  0.00     0.139 A 
HETATM    6  C27 UNL     1      -5.074   1.564  -1.072  1.00  0.00     0.122 A 
HETATM    7  C28 UNL     1      -6.400   1.153  -0.974  1.00  0.00     0.142 A 
HETATM    8  N9  UNL     1      -5.015   2.791  -1.696  1.00  0.00    -0.346 N 
HETATM    9  N6  UNL     1      -6.858  -0.013  -0.488  1.00  0.00    -0.336 N 
HETATM   10  N8  UNL     1      -7.139   2.180  -1.496  1.00  0.00    -0.297 N 
HETATM   11  C29 UNL     1      -5.849  -0.804  -0.086  1.00  0.00     0.183 A 
ATOM     12  H6  UNL     1      -7.845  -0.265  -0.432  1.00  0.00     0.168 HD
HETATM   13  N7  UNL     1      -4.528  -0.546  -0.118  1.00  0.00    -0.337 N 
ATOM     14  H7  UNL     1      -3.853  -1.242   0.200  1.00  0.00     0.168 HD
HETATM   15  C30 UNL     1      -6.262   3.141  -1.915  1.00  0.00     0.188 A 
ATOM     16  H9  UNL     1      -4.176   3.319  -1.938  1.00  0.00     0.167 HD
BRANCH  10  17
HETATM   17  C31 UNL     1      -8.577   2.268  -1.609  1.00  0.00     0.267 C 
HETATM   18  C32 UNL     1      -9.254   1.110  -2.322  1.00  0.00     0.251 C 
HETATM   19  C33 UNL     1     -10.653   1.184  -1.746  1.00  0.00     0.201 C 
HETATM   20  F2  UNL     1      -9.273   1.284  -3.665  1.00  0.00    -0.242 F 
HETATM   21  C34 UNL     1     -10.375   1.566  -0.289  1.00  0.00     0.181 C 
HETATM   22  O12 UNL     1     -11.362   2.251  -2.382  1.00  0.00    -0.295 OA
HETATM   23  C35 UNL     1     -10.218   0.370   0.650  1.00  0.00     0.213 C 
HETATM   24  O7  UNL     1      -9.155   2.346  -0.285  1.00  0.00    -0.353 OA
HETATM   25  O8  UNL     1     -11.265  -0.568   0.462  1.00  0.00    -0.311 OA
HETATM   26  P1  UNL     1     -12.224  -1.003   1.680  1.00  0.00     0.327 P 
HETATM   27  O9  UNL     1     -13.175   0.282   1.860  1.00  0.00    -0.303 OA
HETATM   28  S1  UNL     1     -13.017  -2.750   1.555  1.00  0.00    -0.007 SA
HETATM   29  C36 UNL     1     -14.463   0.309   1.249  1.00  0.00     0.201 C 
HETATM   30  C37 UNL     1     -14.905   1.743   0.950  1.00  0.00     0.181 C 
HETATM   31  C40 UNL     1     -15.533  -0.187   2.205  1.00  0.00     0.251 C 
HETATM   32  C38 UNL     1     -14.685   2.145  -0.511  1.00  0.00     0.213 C 
HETATM   33  O13 UNL     1     -16.311   1.862   1.229  1.00  0.00    -0.353 OA
HETATM   34  O10 UNL     1     -13.346   1.909  -0.903  1.00  0.00    -0.304 OA
HETATM   35  P2  UNL     1     -12.976   2.187  -2.454  1.00  0.00     0.388 P 
HETATM   36  O11 UNL     1     -13.555   3.476  -2.951  1.00  0.00    -0.246 OA
HETATM   37  C39 UNL     1     -16.748   0.679   1.916  1.00  0.00     0.267 C 
HETATM   38  F1  UNL     1     -15.129   0.067   3.489  1.00  0.00    -0.242 F 
BRANCH  26  39
HETATM   39  O14 UNL     1     -11.270  -0.859   2.964  1.00  0.00    -0.324 OA
HETATM   40  H55 UNL     1     -11.648  -1.297   3.750  1.00  0.00     0.220 HD
ENDBRANCH  26  39
BRANCH  35  41
HETATM   41  S2  UNL     1     -13.594   0.591  -3.637  1.00  0.00    -0.058 SA
HETATM   42  H64 UNL     1     -13.301   1.198  -4.794  1.00  0.00     0.114 HD
ENDBRANCH  35  41
BRANCH  37  43
HETATM   43  N10 UNL     1     -17.800   0.064   1.136  1.00  0.00    -0.297 N 
HETATM   44  C41 UNL     1     -19.138   0.135   1.432  1.00  0.00     0.188 A 
HETATM   45  N11 UNL     1     -19.873  -0.523   0.560  1.00  0.00    -0.346 N 
HETATM   46  C42 UNL     1     -18.969  -1.032  -0.349  1.00  0.00     0.116 A 
ATOM     47  H11 UNL     1     -20.887  -0.632   0.557  1.00  0.00     0.167 HD
HETATM   48  C43 UNL     1     -19.126  -1.812  -1.507  1.00  0.00     0.109 A 
HETATM   49  C45 UNL     1     -17.674  -0.667  -0.013  1.00  0.00     0.142 A 
HETATM   50  N12 UNL     1     -18.024  -2.136  -2.220  1.00  0.00    -0.341 N 
HETATM   51  C44 UNL     1     -16.823  -1.718  -1.772  1.00  0.00     0.183 A 
ATOM     52  H12 UNL     1     -18.099  -2.684  -3.077  1.00  0.00     0.167 HD
HETATM   53  N13 UNL     1     -16.548  -0.976  -0.676  1.00  0.00    -0.336 N 
ATOM     54  H13 UNL     1     -15.611  -0.689  -0.391  1.00  0.00     0.168 HD
BRANCH  48  55
HETATM   55  N14 UNL     1     -20.360  -2.254  -1.965  1.00  0.00    -0.287 NA
HETATM   56  H61 UNL     1     -21.142  -1.717  -1.608  1.00  0.00     0.125 HD
HETATM   57  H62 UNL     1     -20.348  -2.472  -2.952  1.00  0.00     0.125 HD
ENDBRANCH  48  55
ENDBRANCH  37  43
ENDBRANCH  10  17
ENDBRANCH   3   5
BRANCH   1  58
HETATM   58  C24 UNL     1      -0.519   1.736  -0.711  1.00  0.00     0.105 C 
BRANCH  58  59
HETATM   59  C23 UNL     1       0.288   3.016  -0.921  1.00  0.00     0.029 C 
BRANCH  59  60
HETATM   60  C22 UNL     1       1.799   2.786  -0.882  1.00  0.00     0.128 C 
BRANCH  60  61
HETATM   61  N4  UNL     1       2.291   1.936  -1.966  1.00  0.00    -0.332 N 
HETATM   62  C20 UNL     1       2.580   0.589  -1.808  1.00  0.00     0.362 C 
HETATM   63  O5  UNL     1       2.980  -0.136  -2.711  1.00  0.00    -0.238 OA
HETATM   64  C21 UNL     1       2.412   2.535  -3.284  1.00  0.00     0.155 C 
BRANCH  62  65
HETATM   65  O4  UNL     1       2.353   0.157  -0.539  1.00  0.00    -0.299 OA
BRANCH  65  66
HETATM   66  C19 UNL     1       2.664  -1.215  -0.277  1.00  0.00     0.219 C 
BRANCH  66  67
HETATM   67  C16 UNL     1       4.039  -1.313   0.331  1.00  0.00    -0.034 A 
HETATM   68  C15 UNL     1       4.230  -1.106   1.702  1.00  0.00     0.011 A 
HETATM   69  C14 UNL     1       5.510  -1.177   2.265  1.00  0.00     0.030 A 
HETATM   70  C13 UNL     1       6.621  -1.448   1.467  1.00  0.00     0.034 A 
HETATM   71  C18 UNL     1       6.432  -1.642   0.093  1.00  0.00     0.030 A 
HETATM   72  C17 UNL     1       5.155  -1.573  -0.471  1.00  0.00     0.011 A 
BRANCH  70  73
HETATM   73  N3  UNL     1       7.944  -1.530   1.949  1.00  0.00    -0.327 N 
HETATM   74  C12 UNL     1       8.375  -1.420   3.258  1.00  0.00     0.226 C 
HETATM   75  O3  UNL     1       7.653  -1.265   4.240  1.00  0.00    -0.273 OA
HETATM   76  H59 UNL     1       8.643  -1.716   1.244  1.00  0.00     0.169 HD
BRANCH  74  77
HETATM   77  C7  UNL     1       9.892  -1.545   3.444  1.00  0.00     0.085 C 
BRANCH  77  78
HETATM   78  C6  UNL     1      10.683  -0.661   2.459  1.00  0.00     0.094 C 
BRANCH  78  79
HETATM   79  C5  UNL     1      11.999  -0.140   3.030  1.00  0.00     0.150 C 
HETATM   80  O1  UNL     1      12.297  -0.310   4.215  1.00  0.00    -0.296 OA
BRANCH  79  81
HETATM   81  C4  UNL     1      12.911   0.708   2.113  1.00  0.00     0.157 C 
BRANCH  81  82
HETATM   82  C2  UNL     1      12.956   2.177   2.598  1.00  0.00     0.007 C 
HETATM   83  C1  UNL     1      11.625   2.917   2.436  1.00  0.00     0.012 C 
HETATM   84  C3  UNL     1      14.073   2.955   1.894  1.00  0.00     0.012 C 
ENDBRANCH  81  82
BRANCH  81  85
HETATM   85  N15 UNL     1      12.569   0.609   0.694  1.00  0.00    -0.349 N 
HETATM   86  C46 UNL     1      13.337  -0.131  -0.184  1.00  0.00     0.219 C 
HETATM   87  O15 UNL     1      14.407  -0.638   0.131  1.00  0.00    -0.274 OA
HETATM   88  H63 UNL     1      11.690   0.991   0.369  1.00  0.00     0.163 HD
BRANCH  86  89
HETATM   89  C47 UNL     1      12.758  -0.197  -1.581  1.00  0.00     0.123 C 
BRANCH  89  90
HETATM   90  C48 UNL     1      13.411  -1.269  -2.454  1.00  0.00     0.145 C 
BRANCH  90  91
HETATM   91  N16 UNL     1      14.816  -1.036  -2.729  1.00  0.00    -0.281 N 
HETATM   92  C49 UNL     1      15.303  -0.012  -3.470  1.00  0.00     0.250 A 
HETATM   93  C50 UNL     1      16.764  -0.144  -3.484  1.00  0.00     0.080 A 
HETATM   94  O16 UNL     1      14.695   0.877  -4.037  1.00  0.00    -0.268 OA
HETATM   95  C51 UNL     1      17.079  -1.225  -2.770  1.00  0.00     0.080 A 
HETATM   96  C52 UNL     1      15.831  -1.822  -2.282  1.00  0.00     0.250 A 
HETATM   97  O17 UNL     1      15.785  -2.844  -1.621  1.00  0.00    -0.268 OA
ENDBRANCH  90  91
ENDBRANCH  89  90
ENDBRANCH  86  89
ENDBRANCH  81  85
ENDBRANCH  79  81
ENDBRANCH  78  79
ENDBRANCH  77  78
BRANCH  77  98
HETATM   98  C8  UNL     1      10.373  -3.010   3.478  1.00  0.00     0.016 C 
BRANCH  98  99
HETATM   99  C9  UNL     1      10.067  -3.839   2.224  1.00  0.00     0.020 C 
BRANCH  99 100
HETATM  100  C10 UNL     1      11.045  -4.994   1.992  1.00  0.00     0.124 C 
BRANCH 100 101
HETATM  101  N1  UNL     1      12.426  -4.578   1.841  1.00  0.00    -0.348 N 
HETATM  102  C11 UNL     1      12.833  -3.677   0.901  1.00  0.00     0.291 C 
HETATM  103  O2  UNL     1      12.115  -3.136   0.072  1.00  0.00    -0.254 OA
HETATM  104  N2  UNL     1      14.152  -3.390   1.024  1.00  0.00    -0.254 NA
HETATM  105  H57 UNL     1      14.511  -2.746   0.318  1.00  0.00     0.128 HD
HETATM  106  H58 UNL     1      14.772  -4.175   1.160  1.00  0.00     0.128 HD
HETATM  107  H56 UNL     1      13.022  -4.627   2.656  1.00  0.00     0.163 HD
ENDBRANCH 100 101
ENDBRANCH  99 100
ENDBRANCH  98  99
ENDBRANCH  77  98
ENDBRANCH  74  77
ENDBRANCH  70  73
ENDBRANCH  66  67
ENDBRANCH  65  66
ENDBRANCH  62  65
ENDBRANCH  60  61
ENDBRANCH  59  60
ENDBRANCH  58  59
ENDBRANCH   1  58
TORSDOF 27
