REMARK  0 active torsions:
REMARK  status: ('A' for Active; 'I' for Inactive)
REMARK       I    between atoms: C2_2  and  C3_3 
REMARK       I    between atoms: C3_3  and  C5_5 
REMARK       I    between atoms: C5_5  and  C6_6 
REMARK       I    between atoms: C5_5  and  N9_80 
REMARK       I    between atoms: C6_6  and  N1_72 
REMARK       I    between atoms: C7_7  and  C8_8 
REMARK       I    between atoms: C7_7  and  C12_12 
REMARK       I    between atoms: C7_7  and  N1_72 
REMARK       I    between atoms: C8_8  and  C10_10 
REMARK       I    between atoms: C12_12  and  N2_73 
REMARK       I    between atoms: C13_13  and  C16_16 
REMARK       I    between atoms: C13_13  and  N2_73 
REMARK       I    between atoms: C16_16  and  N3_74 
REMARK       I    between atoms: C20_20  and  C21_21 
REMARK       I    between atoms: C21_21  and  N4_75 
REMARK       I    between atoms: C22_22  and  C23_23 
REMARK       I    between atoms: C22_22  and  C27_27 
REMARK       I    between atoms: C22_22  and  N4_75 
REMARK       I    between atoms: C23_23  and  C24_24 
REMARK       I    between atoms: C27_27  and  N5_76 
REMARK       I    between atoms: C28_28  and  C29_29 
REMARK       I    between atoms: C28_28  and  C33_33 
REMARK       I    between atoms: C28_28  and  N5_76 
REMARK       I    between atoms: C29_29  and  C30_30 
REMARK       I    between atoms: C33_33  and  N6_77 
REMARK       I    between atoms: C34_34  and  C37_37 
REMARK       I    between atoms: C34_34  and  N6_77 
REMARK       I    between atoms: C37_37  and  N7_78 
REMARK       I    between atoms: C41_41  and  C42_42 
REMARK       I    between atoms: C42_42  and  N8_79 
REMARK       I    between atoms: C43_43  and  C44_44 
REMARK       I    between atoms: C43_43  and  C48_48 
REMARK       I    between atoms: C43_43  and  N8_79 
REMARK       I    between atoms: C44_44  and  C45_45 
REMARK       I    between atoms: C48_48  and  O9_67 
REMARK       I    between atoms: C49_49  and  C50_50 
REMARK       I    between atoms: C49_49  and  N9_80 
REMARK       I    between atoms: C50_50  and  C51_51 
REMARK       I    between atoms: C50_50  and  N11_82 
REMARK       I    between atoms: C51_51  and  C52_52 
REMARK       I    between atoms: C52_52  and  N10_81 
REMARK       I    between atoms: C53_53  and  C54_54 
REMARK       I    between atoms: C53_53  and  N11_82 
REMARK       I    between atoms: C54_54  and  N12_83 
REMARK       I    between atoms: C57_57  and  N12_83 
ROOT
HETATM    1  C1  UNL     1      -5.163  -6.161   2.057  1.00  0.00     0.005 C 
HETATM    2  C2  UNL     1      -4.530  -6.874   0.870  1.00  0.00     0.002 C 
HETATM    3  C3  UNL     1      -4.190  -5.969  -0.340  1.00  0.00     0.013 C 
HETATM    4  C4  UNL     1      -3.885  -6.886  -1.537  1.00  0.00     0.012 C 
HETATM    5  C5  UNL     1      -3.012  -4.999  -0.063  1.00  0.00     0.180 C 
HETATM    6  C6  UNL     1      -2.588  -4.232  -1.349  1.00  0.00     0.241 C 
HETATM    7  C7  UNL     1      -3.015  -2.216  -2.740  1.00  0.00     0.180 C 
HETATM    8  C8  UNL     1      -4.085  -2.163  -3.859  1.00  0.00     0.013 C 
HETATM    9  C9  UNL     1      -4.116  -3.475  -4.650  1.00  0.00     0.012 C 
HETATM   10  C10 UNL     1      -5.491  -1.720  -3.390  1.00  0.00     0.002 C 
HETATM   11  C11 UNL     1      -6.388  -2.800  -2.801  1.00  0.00     0.005 C 
HETATM   12  C12 UNL     1      -2.753  -0.816  -2.124  1.00  0.00     0.241 C 
HETATM   13  C13 UNL     1      -1.783   1.443  -2.550  1.00  0.00     0.101 C 
HETATM   14  C14 UNL     1      -2.920   2.246  -1.903  1.00  0.00     0.048 C 
HETATM   15  C15 UNL     1      -1.310   2.238  -3.783  1.00  0.00     0.048 C 
HETATM   16  C16 UNL     1      -0.512   1.203  -1.676  1.00  0.00     0.228 C 
HETATM   17  C17 UNL     1      -0.823   1.961   0.557  1.00  0.00     0.099 C 
HETATM   18  C18 UNL     1       0.215   1.180   1.368  1.00  0.00     0.017 C 
HETATM   19  C19 UNL     1       1.537   1.350   0.616  1.00  0.00     0.031 C 
HETATM   20  C20 UNL     1       1.223   2.384  -0.449  1.00  0.00     0.158 C 
HETATM   21  C21 UNL     1       2.116   2.518  -1.702  1.00  0.00     0.236 C 
HETATM   22  C22 UNL     1       4.226   1.788  -2.862  1.00  0.00     0.177 C 
HETATM   23  C23 UNL     1       3.673   1.788  -4.295  1.00  0.00     0.038 C 
HETATM   24  C24 UNL     1       2.714   0.629  -4.628  1.00  0.00    -0.020 C 
HETATM   25  C25 UNL     1       2.197   0.779  -6.061  1.00  0.00     0.009 C 
HETATM   26  C26 UNL     1       3.365  -0.743  -4.453  1.00  0.00     0.009 C 
HETATM   27  C27 UNL     1       5.176   2.975  -2.612  1.00  0.00     0.241 C 
HETATM   28  C28 UNL     1       5.250   5.386  -2.034  1.00  0.00     0.177 C 
HETATM   29  C29 UNL     1       4.886   6.713  -2.728  1.00  0.00     0.038 C 
HETATM   30  C30 UNL     1       3.407   7.089  -2.977  1.00  0.00    -0.020 C 
HETATM   31  C31 UNL     1       2.481   6.869  -1.785  1.00  0.00     0.009 C 
HETATM   32  C32 UNL     1       2.835   6.445  -4.243  1.00  0.00     0.009 C 
HETATM   33  C33 UNL     1       5.094   5.436  -0.479  1.00  0.00     0.241 C 
HETATM   34  C34 UNL     1       5.258   3.927   1.588  1.00  0.00     0.106 C 
HETATM   35  C35 UNL     1       4.013   4.484   2.283  1.00  0.00     0.048 C 
HETATM   36  C36 UNL     1       6.550   4.516   2.160  1.00  0.00     0.048 C 
HETATM   37  C37 UNL     1       5.213   2.351   1.652  1.00  0.00     0.248 C 
HETATM   38  C38 UNL     1       5.971   2.148   4.091  1.00  0.00     0.127 C 
HETATM   39  C39 UNL     1       5.928   0.943   5.020  1.00  0.00     0.022 C 
HETATM   40  C40 UNL     1       6.152  -0.228   4.070  1.00  0.00     0.037 C 
HETATM   41  C41 UNL     1       5.383   0.199   2.820  1.00  0.00     0.179 C 
HETATM   42  C42 UNL     1       3.919  -0.285   2.910  1.00  0.00     0.241 C 
HETATM   43  C43 UNL     1       2.393  -2.217   2.392  1.00  0.00     0.108 C 
HETATM   44  C44 UNL     1       2.481  -3.517   1.562  1.00  0.00     0.031 C 
HETATM   45  C45 UNL     1       2.554  -3.362   0.024  1.00  0.00    -0.021 C 
HETATM   46  C46 UNL     1       1.241  -2.843  -0.565  1.00  0.00     0.009 C 
HETATM   47  C47 UNL     1       3.726  -2.516  -0.467  1.00  0.00     0.009 C 
HETATM   48  C48 UNL     1       1.835  -2.521   3.806  1.00  0.00     0.189 C 
HETATM   49  C49 UNL     1      -2.450  -3.309   1.661  1.00  0.00     0.241 C 
HETATM   50  C50 UNL     1      -2.915  -1.955   2.272  1.00  0.00     0.185 C 
HETATM   51  C51 UNL     1      -2.106  -1.746   3.562  1.00  0.00     0.137 C 
HETATM   52  C52 UNL     1      -2.119  -0.312   4.027  1.00  0.00     0.217 C 
HETATM   53  C53 UNL     1      -5.278  -1.604   1.510  1.00  0.00     0.246 C 
HETATM   54  C54 UNL     1      -6.436  -0.611   1.823  1.00  0.00     0.106 C 
HETATM   55  C55 UNL     1      -7.675  -0.944   0.982  1.00  0.00     0.048 C 
HETATM   56  C56 UNL     1      -5.922   0.783   1.414  1.00  0.00     0.048 C 
HETATM   57  C57 UNL     1      -7.250  -1.668   3.940  1.00  0.00     0.214 C 
HETATM   58  C58 UNL     1      -7.658  -1.377   5.359  1.00  0.00     0.117 C 
HETATM   59  O1  UNL     1      -1.716  -4.659  -2.106  1.00  0.00    -0.271 OA
HETATM   60  O2  UNL     1      -2.990  -0.554  -0.946  1.00  0.00    -0.271 OA
HETATM   61  O3  UNL     1       0.254   0.264  -1.912  1.00  0.00    -0.277 OA
HETATM   62  O4  UNL     1       1.837   3.328  -2.590  1.00  0.00    -0.272 OA
HETATM   63  O5  UNL     1       6.356   2.809  -2.303  1.00  0.00    -0.271 OA
HETATM   64  O6  UNL     1       5.000   6.482   0.156  1.00  0.00    -0.271 OA
HETATM   65  O7  UNL     1       4.880   1.709   0.639  1.00  0.00    -0.271 OA
HETATM   66  O8  UNL     1       3.012   0.388   3.399  1.00  0.00    -0.271 OA
HETATM   67  O9  UNL     1       1.328  -1.344   4.450  1.00  0.00    -0.399 OA
HETATM   68  O10 UNL     1      -1.277  -3.681   1.718  1.00  0.00    -0.271 OA
HETATM   69  O11 UNL     1      -3.007   0.491   3.758  1.00  0.00    -0.274 OA
HETATM   70  O12 UNL     1      -5.118  -2.115   0.401  1.00  0.00    -0.271 OA
HETATM   71  O13 UNL     1      -7.367  -2.782   3.445  1.00  0.00    -0.274 OA
HETATM   72  N1  UNL     1      -3.364  -3.135  -1.667  1.00  0.00    -0.346 N 
HETATM   73  N2  UNL     1      -2.233   0.112  -3.010  1.00  0.00    -0.342 N 
HETATM   74  N3  UNL     1      -0.204   2.202  -0.739  1.00  0.00    -0.238 NA
HETATM   75  N4  UNL     1       3.247   1.742  -1.766  1.00  0.00    -0.346 N 
HETATM   76  N5  UNL     1       4.590   4.223  -2.624  1.00  0.00    -0.346 N 
HETATM   77  N6  UNL     1       5.215   4.207   0.135  1.00  0.00    -0.342 N 
HETATM   78  N7  UNL     1       5.465   1.662   2.816  1.00  0.00    -0.337 N 
HETATM   79  N8  UNL     1       3.719  -1.581   2.485  1.00  0.00    -0.353 N 
HETATM   80  N9  UNL     1      -3.386  -3.997   0.932  1.00  0.00    -0.346 N 
HETATM   81  N10 UNL     1      -1.093   0.020   4.861  1.00  0.00    -0.370 N 
HETATM   82  N11 UNL     1      -4.351  -1.751   2.528  1.00  0.00    -0.345 N 
HETATM   83  N12 UNL     1      -6.738  -0.578   3.268  1.00  0.00    -0.344 N 
HETATM   84  H91 UNL     1       1.937  -0.612   4.203  1.00  0.00     0.209 HD
HETATM   85  H92 UNL     1      -3.925  -2.726  -0.918  1.00  0.00     0.163 HD
HETATM   86  H93 UNL     1      -1.642  -0.301  -3.724  1.00  0.00     0.163 HD
HETATM   87  H94 UNL     1       3.618   1.392  -0.883  1.00  0.00     0.163 HD
HETATM   88  H95 UNL     1       3.571   4.222  -2.648  1.00  0.00     0.163 HD
HETATM   89  H96 UNL     1       5.594   3.460  -0.443  1.00  0.00     0.163 HD
HETATM   90  H97 UNL     1       4.503  -2.075   2.077  1.00  0.00     0.163 HD
HETATM   91  H98 UNL     1      -4.286  -3.541   0.810  1.00  0.00     0.163 HD
HETATM   92  H99 UNL     1      -0.234  -0.536   4.868  1.00  0.00     0.159 HD
HETATM   93  HA0 UNL     1      -1.002   0.990   5.131  1.00  0.00     0.159 HD
HETATM   94  HA1 UNL     1      -4.540  -1.098   3.285  1.00  0.00     0.163 HD
HETATM   95  HA2 UNL     1      -6.898   0.333   3.681  1.00  0.00     0.163 HD
ENDROOT
TORSDOF 33
