REMARK  0 active torsions:
REMARK  status: ('A' for Active; 'I' for Inactive)
REMARK       I    between atoms: C2_2  and  O1_58 
REMARK       I    between atoms: C3_3  and  C57_57 
REMARK       I    between atoms: C5_5  and  N1_72 
REMARK       I    between atoms: C8_8  and  C9_9 
REMARK       I    between atoms: C8_8  and  N1_72 
REMARK       I    between atoms: C9_9  and  C10_10 
REMARK       I    between atoms: C9_9  and  N5_77 
REMARK       I    between atoms: C10_10  and  C11_11 
REMARK       I    between atoms: C11_11  and  C12_12 
REMARK       I    between atoms: C12_12  and  N2_73 
REMARK       I    between atoms: C13_13  and  N2_73 
REMARK       I    between atoms: C13_13  and  N3_74 
REMARK       I    between atoms: C13_13  and  N4_76 
REMARK       I    between atoms: C14_14  and  C15_15 
REMARK       I    between atoms: C14_14  and  N5_77 
REMARK       I    between atoms: C16_16  and  O11_68 
REMARK       I    between atoms: C19_19  and  N6_78 
REMARK       I    between atoms: C21_21  and  C22_22 
REMARK       I    between atoms: C21_21  and  N6_78 
REMARK       I    between atoms: C22_22  and  C23_23 
REMARK       I    between atoms: C22_22  and  N10_83 
REMARK       I    between atoms: C23_23  and  C24_24 
REMARK       I    between atoms: C24_24  and  C25_25 
REMARK       I    between atoms: C25_25  and  N7_79 
REMARK       I    between atoms: C26_26  and  N7_79 
REMARK       I    between atoms: C26_26  and  N8_80 
REMARK       I    between atoms: C26_26  and  N9_82 
REMARK       I    between atoms: C27_27  and  C28_28 
REMARK       I    between atoms: C27_27  and  N10_83 
REMARK       I    between atoms: C29_29  and  O10_67 
REMARK       I    between atoms: C32_32  and  N11_84 
REMARK       I    between atoms: C34_34  and  C35_35 
REMARK       I    between atoms: C34_34  and  N11_84 
REMARK       I    between atoms: C35_35  and  C36_36 
REMARK       I    between atoms: C35_35  and  N15_89 
REMARK       I    between atoms: C36_36  and  C37_37 
REMARK       I    between atoms: C37_37  and  C38_38 
REMARK       I    between atoms: C38_38  and  N12_85 
REMARK       I    between atoms: C39_39  and  N12_85 
REMARK       I    between atoms: C39_39  and  N14_88 
REMARK       I    between atoms: C40_40  and  C41_41 
REMARK       I    between atoms: C40_40  and  N15_89 
REMARK       I    between atoms: C42_42  and  O9_66 
REMARK       I    between atoms: C45_45  and  N16_90 
REMARK       I    between atoms: C47_47  and  C48_48 
REMARK       I    between atoms: C47_47  and  N16_90 
REMARK       I    between atoms: C48_48  and  C49_49 
REMARK       I    between atoms: C48_48  and  N20_95 
REMARK       I    between atoms: C49_49  and  C50_50 
REMARK       I    between atoms: C50_50  and  C51_51 
REMARK       I    between atoms: C51_51  and  N17_91 
REMARK       I    between atoms: C52_52  and  N17_91 
REMARK       I    between atoms: C52_52  and  N19_94 
REMARK       I    between atoms: C55_55  and  C56_56 
REMARK       I    between atoms: C55_55  and  O11_68 
REMARK       I    between atoms: C56_56  and  O13_70 
REMARK       I    between atoms: C57_57  and  N21_96 
ROOT
HETATM    1  C1  UNL     1     -11.584   3.877 -10.912  1.00  0.00     0.210 C 
HETATM    2  C2  UNL     1     -11.379   2.483  -9.100  1.00  0.00     0.084 A 
HETATM    3  C3  UNL     1     -10.982   1.156  -9.260  1.00  0.00     0.067 A 
HETATM    4  C4  UNL     1     -10.117   0.560  -8.333  1.00  0.00     0.049 A 
HETATM    5  C5  UNL     1      -9.697   1.268  -7.202  1.00  0.00     0.035 A 
HETATM    6  C6  UNL     1     -10.118   2.589  -7.035  1.00  0.00     0.032 A 
HETATM    7  C7  UNL     1     -10.954   3.196  -7.980  1.00  0.00     0.040 A 
HETATM    8  C8  UNL     1      -8.629   0.932  -4.966  1.00  0.00     0.245 C 
HETATM    9  C9  UNL     1      -7.846  -0.140  -4.169  1.00  0.00     0.177 C 
HETATM   10  C10 UNL     1      -8.531  -1.517  -4.099  1.00  0.00     0.036 C 
HETATM   11  C11 UNL     1      -9.823  -1.612  -3.269  1.00  0.00     0.022 C 
HETATM   12  C12 UNL     1     -11.036  -0.855  -3.812  1.00  0.00     0.122 C 
HETATM   13  C13 UNL     1     -11.991  -2.262  -5.624  1.00  0.00     0.143 C 
HETATM   14  C14 UNL     1      -6.513  -0.039  -2.071  1.00  0.00     0.255 C 
HETATM   15  C15 UNL     1      -6.233   0.706  -0.800  1.00  0.00     0.067 A 
HETATM   16  C16 UNL     1      -6.760   1.972  -0.481  1.00  0.00     0.085 A 
HETATM   17  C17 UNL     1      -6.407   2.563   0.737  1.00  0.00     0.040 A 
HETATM   18  C18 UNL     1      -5.525   1.924   1.618  1.00  0.00     0.032 A 
HETATM   19  C19 UNL     1      -4.987   0.680   1.306  1.00  0.00     0.035 A 
HETATM   20  C20 UNL     1      -5.353   0.075   0.101  1.00  0.00     0.049 A 
HETATM   21  C21 UNL     1      -3.481   0.416   3.300  1.00  0.00     0.245 C 
HETATM   22  C22 UNL     1      -2.530  -0.646   3.903  1.00  0.00     0.177 C 
HETATM   23  C23 UNL     1      -3.235  -1.953   4.310  1.00  0.00     0.036 C 
HETATM   24  C24 UNL     1      -4.352  -1.842   5.355  1.00  0.00     0.022 C 
HETATM   25  C25 UNL     1      -3.906  -1.255   6.696  1.00  0.00     0.122 C 
HETATM   26  C26 UNL     1      -4.895   0.992   6.679  1.00  0.00     0.143 C 
HETATM   27  C27 UNL     1      -0.323  -1.525   3.124  1.00  0.00     0.255 C 
HETATM   28  C28 UNL     1       0.657  -1.612   1.988  1.00  0.00     0.067 A 
HETATM   29  C29 UNL     1       0.388  -1.259   0.651  1.00  0.00     0.084 A 
HETATM   30  C30 UNL     1       1.413  -1.390  -0.296  1.00  0.00     0.040 A 
HETATM   31  C31 UNL     1       2.685  -1.857   0.067  1.00  0.00     0.032 A 
HETATM   32  C32 UNL     1       2.958  -2.203   1.385  1.00  0.00     0.035 A 
HETATM   33  C33 UNL     1       1.934  -2.089   2.326  1.00  0.00     0.049 A 
HETATM   34  C34 UNL     1       5.379  -2.823   1.152  1.00  0.00     0.245 C 
HETATM   35  C35 UNL     1       6.575  -3.389   1.983  1.00  0.00     0.177 C 
HETATM   36  C36 UNL     1       6.575  -3.230   3.516  1.00  0.00     0.036 C 
HETATM   37  C37 UNL     1       6.516  -1.801   4.067  1.00  0.00     0.022 C 
HETATM   38  C38 UNL     1       6.072  -1.748   5.531  1.00  0.00     0.122 C 
HETATM   39  C39 UNL     1       3.612  -1.425   5.516  1.00  0.00     0.143 C 
HETATM   40  C40 UNL     1       8.342  -1.809   1.189  1.00  0.00     0.255 C 
HETATM   41  C41 UNL     1       9.545  -1.659   0.322  1.00  0.00     0.067 A 
HETATM   42  C42 UNL     1       9.805  -2.487  -0.777  1.00  0.00     0.084 A 
HETATM   43  C43 UNL     1      10.962  -2.309  -1.534  1.00  0.00     0.040 A 
HETATM   44  C44 UNL     1      11.847  -1.276  -1.218  1.00  0.00     0.032 A 
HETATM   45  C45 UNL     1      11.594  -0.420  -0.137  1.00  0.00     0.035 A 
HETATM   46  C46 UNL     1      10.439  -0.615   0.625  1.00  0.00     0.049 A 
HETATM   47  C47 UNL     1      12.556   1.505   1.151  1.00  0.00     0.255 C 
HETATM   48  C48 UNL     1      13.760   2.474   1.091  1.00  0.00     0.309 C 
HETATM   49  C49 UNL     1      15.087   1.772   1.408  1.00  0.00     0.046 C 
HETATM   50  C50 UNL     1      15.172   0.941   2.699  1.00  0.00     0.017 C 
HETATM   51  C51 UNL     1      14.817   1.624   4.021  1.00  0.00     0.095 C 
HETATM   52  C52 UNL     1      15.605   3.586   5.301  1.00  0.00     0.122 C 
HETATM   53  C53 UNL     1       8.042  -3.083  -2.123  1.00  0.00     0.210 C 
HETATM   54  C54 UNL     1      -1.149  -0.473  -1.011  1.00  0.00     0.210 C 
HETATM   55  C55 UNL     1      -7.847   3.953  -1.309  1.00  0.00     0.285 C 
HETATM   56  C56 UNL     1      -6.653   4.859  -1.568  1.00  0.00     0.164 C 
HETATM   57  C57 UNL     1     -11.474   0.339 -10.385  1.00  0.00     0.252 C 
HETATM   58  O1  UNL     1     -12.271   3.067  -9.956  1.00  0.00    -0.355 OA
HETATM   59  O2  UNL     1      -8.978   1.985  -4.430  1.00  0.00    -0.271 OA
HETATM   60  O3  UNL     1      -5.820  -1.002  -2.388  1.00  0.00    -0.268 OA
HETATM   61  O4  UNL     1      -3.607   1.533   3.799  1.00  0.00    -0.271 OA
HETATM   62  O5  UNL     1      -0.041  -1.978   4.231  1.00  0.00    -0.268 OA
HETATM   63  O6  UNL     1       5.488  -2.670  -0.067  1.00  0.00    -0.271 OA
HETATM   64  O7  UNL     1       7.845  -0.820   1.711  1.00  0.00    -0.268 OA
HETATM   65  O8  UNL     1      11.742   1.577   2.068  1.00  0.00    -0.271 OA
HETATM   66  O9  UNL     1       8.967  -3.518  -1.118  1.00  0.00    -0.355 OA
HETATM   67  O10 UNL     1      -0.871  -0.801   0.347  1.00  0.00    -0.355 OA
HETATM   68  O11 UNL     1      -7.613   2.553  -1.382  1.00  0.00    -0.340 OA
HETATM   69  O12 UNL     1      -6.455   5.942  -1.040  1.00  0.00    -0.648 OA
HETATM   70  O13 UNL     1      -5.798   4.384  -2.495  1.00  0.00    -0.775 OA
HETATM   71  O14 UNL     1     -11.272   0.643 -11.551  1.00  0.00    -0.268 OA
HETATM   72  N1  UNL     1      -8.899   0.568  -6.274  1.00  0.00    -0.325 N 
HETATM   73  N2  UNL     1     -11.290  -1.187  -5.205  1.00  0.00    -0.367 N 
HETATM   74  N3  UNL     1     -12.418  -3.262  -4.952  1.00  0.00    -0.376 N 
ATOM     75  H3  UNL     1     -12.930  -4.053  -5.343  1.00  0.00     0.158 HD
HETATM   76  N4  UNL     1     -12.210  -2.231  -6.955  1.00  0.00    -0.274 NA
HETATM   77  N5  UNL     1      -7.561   0.393  -2.843  1.00  0.00    -0.344 N 
HETATM   78  N6  UNL     1      -4.091  -0.024   2.131  1.00  0.00    -0.325 N 
HETATM   79  N7  UNL     1      -3.815   0.185   6.594  1.00  0.00    -0.367 N 
HETATM   80  N8  UNL     1      -6.092   0.610   6.928  1.00  0.00    -0.376 N 
ATOM     81  H8  UNL     1      -6.382  -0.355   7.088  1.00  0.00     0.158 HD
HETATM   82  N9  UNL     1      -4.553   2.268   6.413  1.00  0.00    -0.274 NA
HETATM   83  N10 UNL     1      -1.526  -0.916   2.865  1.00  0.00    -0.344 N 
HETATM   84  N11 UNL     1       4.204  -2.658   1.863  1.00  0.00    -0.325 N 
HETATM   85  N12 UNL     1       4.700  -2.210   5.697  1.00  0.00    -0.367 N 
HETATM   86  N13 UNL     1       3.526  -0.306   4.904  1.00  0.00    -0.376 N 
ATOM     87  H13 UNL     1       2.663   0.223   4.781  1.00  0.00     0.158 HD
HETATM   88  N14 UNL     1       2.508  -1.979   6.052  1.00  0.00    -0.274 NA
HETATM   89  N15 UNL     1       7.854  -3.087   1.343  1.00  0.00    -0.344 N 
HETATM   90  N16 UNL     1      12.544   0.593   0.108  1.00  0.00    -0.325 N 
HETATM   91  N17 UNL     1      15.474   2.913   4.136  1.00  0.00    -0.270 NA
HETATM   92  N18 UNL     1      15.510   3.152   6.501  1.00  0.00    -0.381 N 
ATOM     93  H18 UNL     1      15.628   3.718   7.341  1.00  0.00     0.158 HD
HETATM   94  N19 UNL     1      15.904   4.882   5.091  1.00  0.00    -0.279 NA
HETATM   95  N20 UNL     1      13.534   3.637   1.974  1.00  0.00     0.092 N 
HETATM   96  N21 UNL     1     -12.158  -0.794 -10.029  1.00  0.00    -0.366 N 
HETATM   97  H52 UNL     1      -5.100   5.069  -2.561  1.00  0.00     0.167 HD
HETATM   98  H53 UNL     1      -8.616  -0.366  -6.549  1.00  0.00     0.169 HD
HETATM   99  H54 UNL     1     -11.523  -0.362  -5.754  1.00  0.00     0.162 HD
HETATM  100  H55 UNL     1     -12.172  -3.153  -3.968  1.00  0.00     0.158 HD
HETATM  101  H56 UNL     1     -12.666  -3.107  -7.203  1.00  0.00     0.127 HD
HETATM  102  H57 UNL     1     -11.336  -2.172  -7.463  1.00  0.00     0.127 HD
HETATM  103  H58 UNL     1      -7.991   1.288  -2.611  1.00  0.00     0.163 HD
HETATM  104  H59 UNL     1      -3.802  -0.940   1.804  1.00  0.00     0.169 HD
HETATM  105  H60 UNL     1      -2.984   0.591   7.009  1.00  0.00     0.162 HD
HETATM  106  H61 UNL     1      -6.710   1.422   6.941  1.00  0.00     0.158 HD
HETATM  107  H62 UNL     1      -3.926   2.287   5.603  1.00  0.00     0.127 HD
HETATM  108  H63 UNL     1      -5.340   2.871   6.216  1.00  0.00     0.127 HD
HETATM  109  H64 UNL     1      -1.600  -0.430   1.974  1.00  0.00     0.163 HD
HETATM  110  H65 UNL     1       4.246  -2.776   2.869  1.00  0.00     0.169 HD
HETATM  111  H66 UNL     1       4.594  -2.751   6.551  1.00  0.00     0.162 HD
HETATM  112  H67 UNL     1       4.440  -0.015   4.555  1.00  0.00     0.158 HD
HETATM  113  H68 UNL     1       1.676  -1.474   5.738  1.00  0.00     0.127 HD
HETATM  114  H69 UNL     1       2.385  -2.959   5.835  1.00  0.00     0.127 HD
HETATM  115  H70 UNL     1       8.184  -3.764   0.662  1.00  0.00     0.163 HD
HETATM  116  H71 UNL     1      13.312   0.646  -0.550  1.00  0.00     0.169 HD
HETATM  117  H72 UNL     1      15.147   3.545   3.399  1.00  0.00     0.130 HD
HETATM  118  H73 UNL     1      15.299   2.156   6.490  1.00  0.00     0.158 HD
HETATM  119  H74 UNL     1      16.640   5.004   4.408  1.00  0.00     0.126 HD
HETATM  120  H75 UNL     1      16.158   5.312   5.975  1.00  0.00     0.126 HD
HETATM  121  H76 UNL     1      12.999   3.303   2.788  1.00  0.00     0.313 HD
HETATM  122  H77 UNL     1      12.851   4.251   1.521  1.00  0.00     0.313 HD
HETATM  123  H78 UNL     1     -12.644  -1.256 -10.787  1.00  0.00     0.159 HD
HETATM  124  H79 UNL     1     -12.580  -0.868  -9.109  1.00  0.00     0.159 HD
ENDROOT
TORSDOF 39
