REMARK  0 active torsions:
REMARK  status: ('A' for Active; 'I' for Inactive)
REMARK       I    between atoms: C2_2  and  C3_3 
REMARK       I    between atoms: C2_2  and  O1_36 
REMARK       I    between atoms: C3_3  and  N1_41 
REMARK       I    between atoms: C4_4  and  C5_5 
REMARK       I    between atoms: C4_4  and  N1_41 
REMARK       I    between atoms: C5_5  and  C6_6 
REMARK       I    between atoms: C6_6  and  N2_42 
REMARK       I    between atoms: C7_7  and  C8_8 
REMARK       I    between atoms: C7_7  and  N2_42 
REMARK       I    between atoms: C8_8  and  C9_9 
REMARK       I    between atoms: C8_8  and  N5_45 
REMARK       I    between atoms: C9_9  and  C10_10 
REMARK       I    between atoms: C10_10  and  C11_11 
REMARK       I    between atoms: C11_11  and  C12_12 
REMARK       I    between atoms: C12_12  and  C13_13 
REMARK       I    between atoms: C13_13  and  C14_14 
REMARK       I    between atoms: C14_14  and  C15_15 
REMARK       I    between atoms: C15_15  and  C16_16 
REMARK       I    between atoms: C15_15  and  N4_44 
REMARK       I    between atoms: C16_16  and  C17_17 
REMARK       I    between atoms: C17_17  and  C18_18 
REMARK       I    between atoms: C18_18  and  C19_19 
REMARK       I    between atoms: C19_19  and  N3_43 
REMARK       I    between atoms: C20_20  and  C21_21 
REMARK       I    between atoms: C20_20  and  N1_41 
REMARK       I    between atoms: C21_21  and  C22_22 
REMARK       I    between atoms: C22_22  and  N6_46 
REMARK       I    between atoms: C23_23  and  C24_24 
REMARK       I    between atoms: C23_23  and  N6_46 
REMARK       I    between atoms: C24_24  and  C25_25 
REMARK       I    between atoms: C24_24  and  N9_49 
REMARK       I    between atoms: C25_25  and  C26_26 
REMARK       I    between atoms: C26_26  and  C27_27 
REMARK       I    between atoms: C27_27  and  C28_28 
REMARK       I    between atoms: C28_28  and  C29_29 
REMARK       I    between atoms: C29_29  and  C30_30 
REMARK       I    between atoms: C30_30  and  C31_31 
REMARK       I    between atoms: C31_31  and  C32_32 
REMARK       I    between atoms: C31_31  and  N8_48 
REMARK       I    between atoms: C32_32  and  C33_33 
REMARK       I    between atoms: C33_33  and  C34_34 
REMARK       I    between atoms: C34_34  and  C35_35 
REMARK       I    between atoms: C35_35  and  N7_47 
ROOT
HETATM    1  C1  UNL     1       0.523   6.429  -4.268  1.00  0.00     0.201 C 
HETATM    2  C2  UNL     1      -1.779   6.359  -3.656  1.00  0.00     0.197 C 
HETATM    3  C3  UNL     1      -2.116   4.941  -4.160  1.00  0.00     0.298 C 
HETATM    4  C4  UNL     1      -1.961   2.539  -4.036  1.00  0.00     0.274 C 
HETATM    5  C5  UNL     1      -1.165   1.351  -3.479  1.00  0.00     0.050 C 
HETATM    6  C6  UNL     1       0.347   1.537  -3.626  1.00  0.00     0.124 C 
HETATM    7  C7  UNL     1       1.121  -0.662  -2.793  1.00  0.00     0.250 C 
HETATM    8  C8  UNL     1       2.122  -1.360  -1.841  1.00  0.00     0.308 C 
HETATM    9  C9  UNL     1       3.557  -1.201  -2.363  1.00  0.00     0.045 C 
HETATM   10  C10 UNL     1       4.604  -1.789  -1.410  1.00  0.00     0.003 C 
HETATM   11  C11 UNL     1       6.024  -1.557  -1.934  1.00  0.00     0.000 C 
HETATM   12  C12 UNL     1       7.108  -2.045  -0.970  1.00  0.00     0.007 C 
HETATM   13  C13 UNL     1       7.137  -3.562  -0.810  1.00  0.00     0.080 C 
HETATM   14  C14 UNL     1       8.285  -3.985   0.087  1.00  0.00     0.159 C 
HETATM   15  C15 UNL     1       7.925  -4.696   1.405  1.00  0.00     0.286 C 
HETATM   16  C16 UNL     1       7.255  -3.743   2.406  1.00  0.00     0.043 C 
HETATM   17  C17 UNL     1       8.141  -2.585   2.887  1.00  0.00     0.004 C 
HETATM   18  C18 UNL     1       7.364  -1.650   3.820  1.00  0.00     0.030 C 
HETATM   19  C19 UNL     1       8.163  -0.419   4.255  1.00  0.00     0.267 C 
HETATM   20  C20 UNL     1      -2.400   3.805  -1.996  1.00  0.00     0.274 C 
HETATM   21  C21 UNL     1      -1.659   4.539  -0.868  1.00  0.00     0.050 C 
HETATM   22  C22 UNL     1      -0.203   4.118  -0.676  1.00  0.00     0.124 C 
HETATM   23  C23 UNL     1      -0.137   2.397   1.106  1.00  0.00     0.250 C 
HETATM   24  C24 UNL     1       0.081   0.892   1.394  1.00  0.00     0.308 C 
HETATM   25  C25 UNL     1      -0.965  -0.039   0.760  1.00  0.00     0.045 C 
HETATM   26  C26 UNL     1      -2.356  -0.104   1.411  1.00  0.00     0.003 C 
HETATM   27  C27 UNL     1      -3.153   1.197   1.323  1.00  0.00     0.000 C 
HETATM   28  C28 UNL     1      -4.585   1.071   1.852  1.00  0.00     0.007 C 
HETATM   29  C29 UNL     1      -5.456   0.137   1.019  1.00  0.00     0.080 C 
HETATM   30  C30 UNL     1      -6.931   0.311   1.334  1.00  0.00     0.159 C 
HETATM   31  C31 UNL     1      -7.415  -0.182   2.711  1.00  0.00     0.286 C 
HETATM   32  C32 UNL     1      -8.752  -0.930   2.597  1.00  0.00     0.043 C 
HETATM   33  C33 UNL     1      -8.629  -2.226   1.787  1.00  0.00     0.004 C 
HETATM   34  C34 UNL     1      -9.958  -2.984   1.749  1.00  0.00     0.030 C 
HETATM   35  C35 UNL     1      -9.843  -4.261   0.918  1.00  0.00     0.267 C 
HETATM   36  O1  UNL     1      -0.428   6.524  -3.218  1.00  0.00    -0.394 OA
HETATM   37  O2  UNL     1       0.384  -1.290  -3.550  1.00  0.00    -0.271 OA
HETATM   38  O3  UNL     1       9.457  -3.770  -0.236  1.00  0.00    -0.296 OA
HETATM   39  O4  UNL     1      -0.321   3.215   2.006  1.00  0.00    -0.271 OA
HETATM   40  O5  UNL     1      -7.685   0.821   0.502  1.00  0.00    -0.296 OA
HETATM   41  N1  UNL     1      -1.705   3.799  -3.303  1.00  0.00     0.090 N 
HETATM   42  N2  UNL     1       1.113   0.717  -2.697  1.00  0.00    -0.359 N 
HETATM   43  N3  UNL     1       9.323  -0.750   5.073  1.00  0.00     0.078 N 
HETATM   44  N4  UNL     1       9.131  -5.322   1.982  1.00  0.00     0.090 N 
HETATM   45  N5  UNL     1       1.761  -2.785  -1.707  1.00  0.00     0.092 N 
HETATM   46  N6  UNL     1      -0.055   2.746  -0.223  1.00  0.00    -0.359 N 
HETATM   47  N7  UNL     1     -11.110  -4.982   0.922  1.00  0.00     0.078 N 
HETATM   48  N8  UNL     1      -7.573   0.972   3.610  1.00  0.00     0.090 N 
HETATM   49  N9  UNL     1       0.204   0.663   2.848  1.00  0.00     0.092 N 
HETATM   50  H60 UNL     1       1.925   1.153  -2.277  1.00  0.00     0.162 HD
HETATM   51  H61 UNL     1       9.038  -1.343   5.852  1.00  0.00     0.312 HD
HETATM   52  H62 UNL     1       9.987  -1.300   4.531  1.00  0.00     0.312 HD
HETATM   53  H63 UNL     1       9.866  -4.608   2.010  1.00  0.00     0.313 HD
HETATM   54  H64 UNL     1       9.496  -5.993   1.302  1.00  0.00     0.313 HD
HETATM   55  H65 UNL     1       0.789  -2.837  -1.394  1.00  0.00     0.313 HD
HETATM   56  H66 UNL     1       1.721  -3.179  -2.652  1.00  0.00     0.313 HD
HETATM   57  H67 UNL     1       0.017   2.026  -0.929  1.00  0.00     0.162 HD
HETATM   58  H68 UNL     1     -11.040  -5.794   0.310  1.00  0.00     0.312 HD
HETATM   59  H69 UNL     1     -11.842  -4.392   0.528  1.00  0.00     0.312 HD
HETATM   60  H70 UNL     1      -6.675   1.416   3.789  1.00  0.00     0.313 HD
HETATM   61  H71 UNL     1      -7.933   0.663   4.512  1.00  0.00     0.313 HD
HETATM   62  H72 UNL     1      -0.628   1.063   3.292  1.00  0.00     0.313 HD
HETATM   63  H73 UNL     1       0.950   1.275   3.191  1.00  0.00     0.313 HD
ENDROOT
TORSDOF 41
