REMARK  10 active torsions:
REMARK  status: ('A' for Active; 'I' for Inactive)
REMARK    1  A    between atoms: C6_6  and  C7_7 
REMARK       I    between atoms: C7_7  and  N1_27 
REMARK    2  A    between atoms: C8_8  and  C9_9 
REMARK    3  A    between atoms: C8_8  and  N1_27 
REMARK    4  A    between atoms: C9_9  and  N2_28 
REMARK    5  A    between atoms: C11_11  and  C12_12 
REMARK       I    between atoms: C12_12  and  N4_30 
REMARK    6  A    between atoms: C13_13  and  N4_30 
REMARK    7  A    between atoms: C20_20  and  C21_21 
REMARK       I    between atoms: C21_21  and  N6_32 
REMARK    8  A    between atoms: C22_22  and  C23_23 
REMARK    9  A    between atoms: C22_22  and  N6_32 
REMARK   10  A    between atoms: C23_23  and  N7_33 
ROOT
HETATM    1  C12 UNL     1       0.600  -0.974   1.511  1.00  0.00     0.272 C 
HETATM    2  O2  UNL     1       0.419  -1.170   2.707  1.00  0.00    -0.266 OA
HETATM    3  N4  UNL     1      -0.397  -0.750   0.577  1.00  0.00    -0.322 N 
HETATM    4  H21 UNL     1      -0.105  -0.377  -0.314  1.00  0.00     0.169 HD
ENDROOT
BRANCH   1   5
HETATM    5  C11 UNL     1       1.939  -0.913   0.950  1.00  0.00     0.102 A 
HETATM    6  C10 UNL     1       3.117  -0.597   1.608  1.00  0.00     0.049 A 
HETATM    7  C4  UNL     1       4.189  -0.664   0.679  1.00  0.00    -0.006 A 
HETATM    8  C3  UNL     1       3.646  -1.064  -0.539  1.00  0.00     0.043 A 
HETATM    9  C5  UNL     1       5.577  -0.437   0.768  1.00  0.00     0.030 A 
HETATM   10  C2  UNL     1       4.421  -1.259  -1.687  1.00  0.00     0.031 A 
HETATM   11  N3  UNL     1       2.294  -1.227  -0.344  1.00  0.00    -0.351 N 
HETATM   12  C1  UNL     1       5.796  -1.024  -1.583  1.00  0.00     0.019 A 
HETATM   13  C6  UNL     1       6.372  -0.606  -0.378  1.00  0.00     0.033 A 
HETATM   14  H20 UNL     1       1.661  -1.580  -1.048  1.00  0.00     0.166 HD
BRANCH  13  15
HETATM   15  C7  UNL     1       7.844  -0.379  -0.343  1.00  0.00     0.251 C 
HETATM   16  O1  UNL     1       8.580  -0.966  -1.130  1.00  0.00    -0.268 OA
HETATM   17  N1  UNL     1       8.299   0.544   0.580  1.00  0.00    -0.355 N 
HETATM   18  H17 UNL     1       7.626   1.189   0.971  1.00  0.00     0.162 HD
BRANCH  17  19
HETATM   19  C8  UNL     1       9.691   0.960   0.592  1.00  0.00     0.152 C 
BRANCH  19  20
HETATM   20  C9  UNL     1       9.979   2.155  -0.340  1.00  0.00     0.286 C 
BRANCH  20  21
HETATM   21  N2  UNL     1       9.436   2.003  -1.690  1.00  0.00     0.079 N 
HETATM   22  H18 UNL     1       9.450   1.009  -1.944  1.00  0.00     0.312 HD
HETATM   23  H19 UNL     1      10.032   2.482  -2.361  1.00  0.00     0.312 HD
ENDBRANCH  20  21
ENDBRANCH  19  20
ENDBRANCH  17  19
ENDBRANCH  13  15
ENDBRANCH   1   5
BRANCH   3  24
HETATM   24  C13 UNL     1      -1.794  -0.826   0.772  1.00  0.00     0.037 A 
HETATM   25  C14 UNL     1      -2.601  -0.400  -0.297  1.00  0.00     0.059 A 
HETATM   26  C15 UNL     1      -3.994  -0.470  -0.147  1.00  0.00     0.045 A 
HETATM   27  C16 UNL     1      -4.601  -0.947   1.010  1.00  0.00    -0.007 A 
HETATM   28  N5  UNL     1      -5.002  -0.124  -1.013  1.00  0.00    -0.351 N 
HETATM   29  C17 UNL     1      -3.784  -1.377   2.070  1.00  0.00     0.016 A 
HETATM   30  C19 UNL     1      -6.007  -0.875   0.807  1.00  0.00     0.049 A 
HETATM   31  C18 UNL     1      -2.388  -1.313   1.937  1.00  0.00     0.030 A 
HETATM   32  C20 UNL     1      -6.241  -0.356  -0.455  1.00  0.00     0.102 A 
HETATM   33  H22 UNL     1      -4.877   0.254  -1.943  1.00  0.00     0.166 HD
BRANCH  32  34
HETATM   34  C21 UNL     1      -7.455  -0.066  -1.185  1.00  0.00     0.268 C 
HETATM   35  O3  UNL     1      -7.433   0.352  -2.339  1.00  0.00    -0.266 OA
HETATM   36  N6  UNL     1      -8.623  -0.278  -0.491  1.00  0.00    -0.354 N 
HETATM   37  H23 UNL     1      -8.559  -0.325   0.516  1.00  0.00     0.162 HD
BRANCH  36  38
HETATM   38  C22 UNL     1      -9.896   0.189  -1.007  1.00  0.00     0.152 C 
BRANCH  38  39
HETATM   39  C23 UNL     1     -10.169   1.640  -0.585  1.00  0.00     0.286 C 
BRANCH  39  40
HETATM   40  N7  UNL     1     -10.175   1.779   0.878  1.00  0.00     0.079 N 
HETATM   41  H24 UNL     1     -10.307   2.763   1.113  1.00  0.00     0.312 HD
HETATM   42  H25 UNL     1     -10.984   1.290   1.260  1.00  0.00     0.312 HD
ENDBRANCH  39  40
ENDBRANCH  38  39
ENDBRANCH  36  38
ENDBRANCH  32  34
ENDBRANCH   3  24
TORSDOF 10
