REMARK  11 active torsions:
REMARK  status: ('A' for Active; 'I' for Inactive)
REMARK    1  A    between atoms: C2_2  and  N1_31 
REMARK    2  A    between atoms: C2_2  and  N9_41 
REMARK    3  A    between atoms: C3_3  and  C4_4 
REMARK       I    between atoms: C3_3  and  N1_31 
REMARK    4  A    between atoms: C10_10  and  C12_12 
REMARK       I    between atoms: C12_12  and  N3_33 
REMARK    5  A    between atoms: C13_13  and  N3_33 
REMARK    6  A    between atoms: C20_20  and  C21_21 
REMARK       I    between atoms: C21_21  and  N5_35 
REMARK    7  A    between atoms: C22_22  and  C23_23 
REMARK    8  A    between atoms: C22_22  and  N5_35 
REMARK    9  A    between atoms: C23_23  and  N6_36 
REMARK   10  A    between atoms: C24_24  and  C25_25 
REMARK   11  A    between atoms: C24_24  and  N8_40 
REMARK       I    between atoms: C30_30  and  N10_43 
REMARK       I    between atoms: C30_30  and  N11_44 
ROOT
HETATM    1  C13 UNL     1       1.176  -1.615  -1.334  1.00  0.00     0.037 A 
HETATM    2  C14 UNL     1       1.779  -1.488  -0.071  1.00  0.00     0.059 A 
HETATM    3  C15 UNL     1       3.175  -1.583   0.014  1.00  0.00     0.045 A 
HETATM    4  C16 UNL     1       3.981  -1.800  -1.099  1.00  0.00    -0.007 A 
HETATM    5  C17 UNL     1       3.368  -1.928  -2.357  1.00  0.00     0.016 A 
HETATM    6  C18 UNL     1       1.971  -1.833  -2.460  1.00  0.00     0.030 A 
HETATM    7  C19 UNL     1       5.327  -1.842  -0.642  1.00  0.00     0.049 A 
HETATM    8  C20 UNL     1       5.330  -1.642   0.729  1.00  0.00     0.102 A 
HETATM    9  N4  UNL     1       4.010  -1.499   1.101  1.00  0.00    -0.351 N 
HETATM   10  H24 UNL     1       3.716  -1.352   2.058  1.00  0.00     0.166 HD
ENDROOT
BRANCH   1  11
HETATM   11  N3  UNL     1      -0.232  -1.511  -1.372  1.00  0.00    -0.322 N 
HETATM   12  C12 UNL     1      -1.063  -1.596  -2.471  1.00  0.00     0.272 C 
HETATM   13  O2  UNL     1      -0.702  -1.782  -3.627  1.00  0.00    -0.266 OA
HETATM   14  H23 UNL     1      -0.679  -1.358  -0.481  1.00  0.00     0.169 HD
BRANCH  12  15
HETATM   15  C10 UNL     1      -2.477  -1.444  -2.167  1.00  0.00     0.102 A 
HETATM   16  C11 UNL     1      -3.177  -1.214  -0.993  1.00  0.00     0.049 A 
HETATM   17  C6  UNL     1      -4.567  -1.153  -1.300  1.00  0.00    -0.006 A 
HETATM   18  C5  UNL     1      -5.730  -0.951  -0.531  1.00  0.00     0.030 A 
HETATM   19  C7  UNL     1      -4.692  -1.356  -2.672  1.00  0.00     0.043 A 
HETATM   20  C4  UNL     1      -6.983  -0.951  -1.169  1.00  0.00     0.033 A 
HETATM   21  C9  UNL     1      -7.072  -1.173  -2.548  1.00  0.00     0.019 A 
HETATM   22  C8  UNL     1      -5.928  -1.375  -3.327  1.00  0.00     0.031 A 
HETATM   23  N2  UNL     1      -3.423  -1.524  -3.169  1.00  0.00    -0.351 N 
HETATM   24  H22 UNL     1      -3.191  -1.692  -4.140  1.00  0.00     0.166 HD
BRANCH  20  25
HETATM   25  C3  UNL     1      -8.246  -0.746  -0.406  1.00  0.00     0.253 C 
HETATM   26  N1  UNL     1      -8.147  -0.007   0.748  1.00  0.00    -0.336 N 
HETATM   27  H21 UNL     1      -7.322   0.531   0.958  1.00  0.00     0.164 HD
HETATM   28  O1  UNL     1      -9.304  -1.199  -0.829  1.00  0.00    -0.268 OA
BRANCH  26  29
HETATM   29  C2  UNL     1      -9.294   0.339   1.538  1.00  0.00     0.182 C 
HETATM   30  C1  UNL     1      -9.735  -0.833   2.409  1.00  0.00     0.055 C 
BRANCH  29  31
HETATM   31  N9  UNL     1      -8.851   1.437   2.382  1.00  0.00    -0.351 N 
HETATM   32  C30 UNL     1      -9.708   2.272   2.829  1.00  0.00     0.123 C 
HETATM   33  N10 UNL     1      -9.299   3.280   3.632  1.00  0.00    -0.279 NA
HETATM   34  N11 UNL     1     -11.047   2.350   2.660  1.00  0.00    -0.279 NA
HETATM   35  H28 UNL     1      -8.332   3.135   3.905  1.00  0.00     0.126 HD
HETATM   36  H29 UNL     1      -9.885   3.379   4.453  1.00  0.00     0.126 HD
HETATM   37  H30 UNL     1     -11.372   3.309   2.602  1.00  0.00     0.126 HD
HETATM   38  H31 UNL     1     -11.427   1.800   1.900  1.00  0.00     0.126 HD
ATOM     39  H9  UNL     1      -7.863   1.540   2.615  1.00  0.00     0.163 HD
ENDBRANCH  29  31
ENDBRANCH  26  29
ENDBRANCH  20  25
ENDBRANCH  12  15
ENDBRANCH   1  11
BRANCH   8  40
HETATM   40  C21 UNL     1       6.395  -1.574   1.704  1.00  0.00     0.268 C 
HETATM   41  N5  UNL     1       7.664  -1.701   1.200  1.00  0.00    -0.354 N 
HETATM   42  H25 UNL     1       7.787  -1.550   0.210  1.00  0.00     0.162 HD
HETATM   43  O3  UNL     1       6.171  -1.365   2.893  1.00  0.00    -0.266 OA
BRANCH  41  44
HETATM   44  C22 UNL     1       8.844  -1.489   2.020  1.00  0.00     0.142 C 
BRANCH  44  45
HETATM   45  C23 UNL     1       9.046  -0.030   2.449  1.00  0.00     0.140 C 
BRANCH  45  46
HETATM   46  N6  UNL     1       8.915   0.859   1.291  1.00  0.00    -0.378 N 
HETATM   47  C24 UNL     1       7.904   1.658   1.208  1.00  0.00     0.100 C 
ATOM     48  H6  UNL     1       9.620   0.847   0.554  1.00  0.00     0.160 HD
BRANCH  47  49
HETATM   49  C25 UNL     1       7.809   2.564  -0.002  1.00  0.00     0.070 A 
HETATM   50  C26 UNL     1       8.857   2.673  -0.907  1.00  0.00     0.033 A 
HETATM   51  C27 UNL     1       8.688   3.510  -2.005  1.00  0.00     0.004 A 
HETATM   52  C28 UNL     1       7.489   4.199  -2.161  1.00  0.00     0.017 A 
HETATM   53  C29 UNL     1       6.496   4.025  -1.207  1.00  0.00     0.088 A 
HETATM   54  N7  UNL     1       6.621   3.223  -0.128  1.00  0.00    -0.363 N 
ATOM     55  H7  UNL     1       5.870   3.116   0.554  1.00  0.00     0.165 HD
ENDBRANCH  47  49
BRANCH  47  56
HETATM   56  N8  UNL     1       6.864   1.757   2.108  1.00  0.00    -0.287 NA
HETATM   57  H26 UNL     1       6.597   0.900   2.581  1.00  0.00     0.125 HD
HETATM   58  H27 UNL     1       6.062   2.251   1.716  1.00  0.00     0.125 HD
ENDBRANCH  47  56
ENDBRANCH  45  46
ENDBRANCH  44  45
ENDBRANCH  41  44
ENDBRANCH   8  40
TORSDOF 11
