REMARK  0 active torsions:
REMARK  status: ('A' for Active; 'I' for Inactive)
REMARK       I    between atoms: C2_2  and  C3_3 
REMARK       I    between atoms: C2_2  and  N11_96 
REMARK       I    between atoms: C3_3  and  N1_84 
REMARK       I    between atoms: C4_4  and  C5_5 
REMARK       I    between atoms: C4_4  and  C8_8 
REMARK       I    between atoms: C4_4  and  N1_84 
REMARK       I    between atoms: C8_8  and  N2_85 
REMARK       I    between atoms: C9_9  and  C10_10 
REMARK       I    between atoms: C9_9  and  N2_85 
REMARK       I    between atoms: C10_10  and  N3_86 
REMARK       I    between atoms: C11_11  and  N3_86 
REMARK       I    between atoms: C12_12  and  N5_88 
REMARK       I    between atoms: C14_14  and  N4_87 
REMARK       I    between atoms: C17_17  and  C18_18 
REMARK       I    between atoms: C17_17  and  C22_22 
REMARK       I    between atoms: C17_17  and  N3_86 
REMARK       I    between atoms: C18_18  and  C19_19 
REMARK       I    between atoms: C22_22  and  N8_93 
REMARK       I    between atoms: C23_23  and  C24_24 
REMARK       I    between atoms: C23_23  and  C28_28 
REMARK       I    between atoms: C23_23  and  N8_93 
REMARK       I    between atoms: C24_24  and  C25_25 
REMARK       I    between atoms: C28_28  and  N9_94 
REMARK       I    between atoms: C29_29  and  C30_30 
REMARK       I    between atoms: C29_29  and  C33_33 
REMARK       I    between atoms: C29_29  and  N9_94 
REMARK       I    between atoms: C30_30  and  C31_31 
REMARK       I    between atoms: C31_31  and  S1_103 
REMARK       I    between atoms: C33_33  and  N10_95 
REMARK       I    between atoms: C34_34  and  C35_35 
REMARK       I    between atoms: C34_34  and  N11_96 
REMARK       I    between atoms: C35_35  and  C36_36 
REMARK       I    between atoms: C35_35  and  N13_98 
REMARK       I    between atoms: C36_36  and  C37_37 
REMARK       I    between atoms: C45_45  and  C46_46 
REMARK       I    between atoms: C45_45  and  N13_98 
REMARK       I    between atoms: C46_46  and  C47_47 
REMARK       I    between atoms: C46_46  and  N15_100 
REMARK       I    between atoms: C47_47  and  C48_48 
REMARK       I    between atoms: C48_48  and  C49_49 
REMARK       I    between atoms: C49_49  and  N14_99 
REMARK       I    between atoms: C50_50  and  C51_51 
REMARK       I    between atoms: C50_50  and  N15_100 
REMARK       I    between atoms: C51_51  and  C52_52 
REMARK       I    between atoms: C51_51  and  N17_102 
REMARK       I    between atoms: C52_52  and  C53_53 
REMARK       I    between atoms: C56_56  and  N16_101 
REMARK       I    between atoms: C59_59  and  C60_60 
REMARK       I    between atoms: C59_59  and  N16_101 
REMARK       I    between atoms: C61_61  and  C62_62 
REMARK       I    between atoms: C61_61  and  N16_101 
REMARK       I    between atoms: C63_63  and  O16_83 
REMARK       I    between atoms: C63_63  and  N17_102 
REMARK       I    between atoms: C64_64  and  O16_83 
ROOT
HETATM    1  C1  UNL     1      -0.053  -1.307   0.908  1.00  0.00     0.042 C 
HETATM    2  C2  UNL     1       0.431  -0.190  -0.009  1.00  0.00     0.172 C 
HETATM    3  C3  UNL     1       1.124  -0.765  -1.261  1.00  0.00     0.240 C 
HETATM    4  C4  UNL     1       3.160  -1.947  -2.076  1.00  0.00     0.180 C 
HETATM    5  C5  UNL     1       2.511  -2.821  -3.181  1.00  0.00     0.009 C 
HETATM    6  C6  UNL     1       1.511  -3.837  -2.607  1.00  0.00     0.012 C 
HETATM    7  C7  UNL     1       3.569  -3.611  -3.970  1.00  0.00     0.012 C 
HETATM    8  C8  UNL     1       3.996  -0.740  -2.611  1.00  0.00     0.241 C 
HETATM    9  C9  UNL     1       5.518   0.992  -1.728  1.00  0.00     0.225 C 
HETATM   10  C10 UNL     1       5.327   2.426  -1.208  1.00  0.00     0.242 C 
HETATM   11  C11 UNL     1       6.419   4.400  -0.275  1.00  0.00     0.071 A 
HETATM   12  C12 UNL     1       5.390   5.335  -0.045  1.00  0.00     0.132 A 
HETATM   13  C13 UNL     1       5.630   6.722  -0.124  1.00  0.00     0.074 A 
HETATM   14  C14 UNL     1       6.913   7.182  -0.435  1.00  0.00     0.105 A 
HETATM   15  C15 UNL     1       7.953   6.276  -0.657  1.00  0.00     0.038 A 
HETATM   16  C16 UNL     1       7.702   4.902  -0.577  1.00  0.00     0.035 A 
HETATM   17  C17 UNL     1       7.100   2.196   0.668  1.00  0.00     0.190 C 
HETATM   18  C18 UNL     1       6.316   1.690   1.888  1.00  0.00     0.094 C 
HETATM   19  C19 UNL     1       5.413   0.560   1.615  1.00  0.00     0.028 C 
HETATM   20  C20 UNL     1       4.037   0.456   1.627  1.00  0.00     0.114 C 
HETATM   21  C21 UNL     1       4.873  -1.510   1.229  1.00  0.00     0.180 C 
HETATM   22  C22 UNL     1       8.150   1.272   0.003  1.00  0.00     0.242 C 
HETATM   23  C23 UNL     1       9.378  -0.863   0.071  1.00  0.00     0.177 C 
HETATM   24  C24 UNL     1      10.821  -0.375  -0.181  1.00  0.00     0.038 C 
HETATM   25  C25 UNL     1      11.478   0.491   0.917  1.00  0.00    -0.020 C 
HETATM   26  C26 UNL     1      11.620  -0.232   2.254  1.00  0.00     0.009 C 
HETATM   27  C27 UNL     1      12.858   0.955   0.439  1.00  0.00     0.009 C 
HETATM   28  C28 UNL     1       9.362  -2.191   0.866  1.00  0.00     0.241 C 
HETATM   29  C29 UNL     1       9.758  -4.651   0.671  1.00  0.00     0.177 C 
HETATM   30  C30 UNL     1       9.696  -5.681  -0.471  1.00  0.00     0.045 C 
HETATM   31  C31 UNL     1      10.967  -5.873  -1.308  1.00  0.00     0.076 C 
HETATM   32  C32 UNL     1      13.000  -3.993  -1.390  1.00  0.00     0.089 C 
HETATM   33  C33 UNL     1      10.879  -4.983   1.686  1.00  0.00     0.238 C 
HETATM   34  C34 UNL     1      -1.355   1.533   0.268  1.00  0.00     0.241 C 
HETATM   35  C35 UNL     1      -2.308   2.461  -0.517  1.00  0.00     0.181 C 
HETATM   36  C36 UNL     1      -1.610   3.777  -0.874  1.00  0.00     0.075 C 
HETATM   37  C37 UNL     1      -0.425   3.569  -1.760  1.00  0.00    -0.028 A 
HETATM   38  C38 UNL     1       0.885   3.471  -1.336  1.00  0.00     0.096 A 
HETATM   39  C39 UNL     1       0.902   3.118  -3.553  1.00  0.00     0.042 A 
HETATM   40  C40 UNL     1       1.273   2.838  -4.873  1.00  0.00     0.030 A 
HETATM   41  C41 UNL     1       0.264   2.819  -5.840  1.00  0.00     0.002 A 
HETATM   42  C42 UNL     1      -1.062   3.068  -5.497  1.00  0.00     0.001 A 
HETATM   43  C43 UNL     1      -1.418   3.339  -4.170  1.00  0.00     0.014 A 
HETATM   44  C44 UNL     1      -0.418   3.365  -3.176  1.00  0.00    -0.002 A 
HETATM   45  C45 UNL     1      -4.377   1.655   0.513  1.00  0.00     0.241 C 
HETATM   46  C46 UNL     1      -5.257   1.715   1.787  1.00  0.00     0.177 C 
HETATM   47  C47 UNL     1      -4.471   1.076   2.950  1.00  0.00     0.044 C 
HETATM   48  C48 UNL     1      -3.812  -0.281   2.650  1.00  0.00     0.113 C 
HETATM   49  C49 UNL     1      -4.773  -1.314   2.135  1.00  0.00     0.311 C 
HETATM   50  C50 UNL     1      -7.406   1.480   0.627  1.00  0.00     0.241 C 
HETATM   51  C51 UNL     1      -8.792   0.802   0.590  1.00  0.00     0.183 C 
HETATM   52  C52 UNL     1      -9.844   1.894   0.872  1.00  0.00     0.073 C 
HETATM   53  C53 UNL     1     -11.263   1.400   0.717  1.00  0.00    -0.056 A 
HETATM   54  C54 UNL     1     -12.088   1.226   1.827  1.00  0.00     0.009 A 
HETATM   55  C55 UNL     1     -13.396   0.742   1.676  1.00  0.00     0.030 A 
HETATM   56  C56 UNL     1     -13.940   0.415   0.423  1.00  0.00     0.030 A 
HETATM   57  C57 UNL     1     -13.090   0.614  -0.678  1.00  0.00     0.030 A 
HETATM   58  C58 UNL     1     -11.780   1.096  -0.542  1.00  0.00     0.009 A 
HETATM   59  C59 UNL     1     -16.219  -0.014   1.383  1.00  0.00     0.138 C 
HETATM   60  C60 UNL     1     -16.694   1.410   1.682  1.00  0.00     0.134 C 
HETATM   61  C61 UNL     1     -15.621  -0.861  -0.907  1.00  0.00     0.138 C 
HETATM   62  C62 UNL     1     -16.283  -0.028  -2.009  1.00  0.00     0.134 C 
HETATM   63  C63 UNL     1      -8.426  -1.555   1.186  1.00  0.00     0.362 C 
HETATM   64  C64 UNL     1      -9.001  -3.911   1.521  1.00  0.00     0.061 C 
HETATM   65  C65 UNL     1      -7.628  -4.398   1.990  1.00  0.00     0.046 C 
HETATM   66  C66 UNL     1      -9.241  -4.226   0.041  1.00  0.00     0.046 C 
HETATM   67  C67 UNL     1     -10.085  -4.607   2.357  1.00  0.00     0.046 C 
HETATM   68  O1  UNL     1       0.663  -0.579  -2.389  1.00  0.00    -0.271 OA
HETATM   69  O2  UNL     1       4.472  -0.690  -3.743  1.00  0.00    -0.271 OA
HETATM   70  O3  UNL     1       4.419   3.122  -1.690  1.00  0.00    -0.271 OA
HETATM   71  O4  UNL     1       8.303   8.988  -0.870  1.00  0.00    -0.532 OA
HETATM   72  O5  UNL     1       6.251   9.392  -0.205  1.00  0.00    -0.532 OA
HETATM   73  O6  UNL     1       3.995   4.023   1.256  1.00  0.00    -0.532 OA
HETATM   74  O7  UNL     1       3.102   5.614   0.035  1.00  0.00    -0.532 OA
HETATM   75  O8  UNL     1       8.696   1.610  -1.051  1.00  0.00    -0.271 OA
HETATM   76  O9  UNL     1       9.051  -2.287   2.052  1.00  0.00    -0.271 OA
HETATM   77  O10 UNL     1      11.412  -6.086   1.783  1.00  0.00    -0.271 OA
HETATM   78  O11 UNL     1      -1.273   1.580   1.496  1.00  0.00    -0.271 OA
HETATM   79  O12 UNL     1      -4.397   0.654  -0.214  1.00  0.00    -0.271 OA
HETATM   80  O13 UNL     1      -5.597  -1.893   2.821  1.00  0.00    -0.266 OA
HETATM   81  O14 UNL     1      -7.112   2.404  -0.127  1.00  0.00    -0.271 OA
HETATM   82  O15 UNL     1      -7.459  -1.746   0.459  1.00  0.00    -0.238 OA
HETATM   83  O16 UNL     1      -9.182  -2.495   1.785  1.00  0.00    -0.294 OA
HETATM   84  N1  UNL     1       2.250  -1.506  -1.014  1.00  0.00    -0.346 N 
HETATM   85  N2  UNL     1       4.317   0.188  -1.638  1.00  0.00    -0.351 N 
HETATM   86  N3  UNL     1       6.270   2.970  -0.325  1.00  0.00    -0.300 N 
HETATM   87  N4  UNL     1       7.174   8.625  -0.512  1.00  0.00    -0.116 N 
HETATM   88  N5  UNL     1       4.065   4.937   0.423  1.00  0.00    -0.113 N 
HETATM   89  N6  UNL     1       3.721  -0.797   1.207  1.00  0.00    -0.360 N 
ATOM     90  H6  UNL     1       2.799  -1.134   0.930  1.00  0.00     0.166 HD
HETATM   91  N7  UNL     1       5.909  -0.655   1.284  1.00  0.00    -0.354 N 
ATOM     92  H7  UNL     1       6.888  -0.880   1.109  1.00  0.00     0.166 HD
HETATM   93  N8  UNL     1       8.499   0.127   0.679  1.00  0.00    -0.346 N 
HETATM   94  N9  UNL     1       9.806  -3.285   0.154  1.00  0.00    -0.346 N 
HETATM   95  N10 UNL     1      11.173  -4.007   2.595  1.00  0.00    -0.368 N 
HETATM   96  N11 UNL     1      -0.684   0.622  -0.506  1.00  0.00    -0.346 N 
HETATM   97  N12 UNL     1       1.677   3.197  -2.419  1.00  0.00    -0.365 N 
HETATM   98  N13 UNL     1      -3.462   2.671   0.370  1.00  0.00    -0.346 N 
HETATM   99  N14 UNL     1      -4.842  -1.660   0.747  1.00  0.00    -0.017 N 
HETATM  100  N15 UNL     1      -6.517   0.997   1.575  1.00  0.00    -0.346 N 
HETATM  101  N16 UNL     1     -15.242  -0.056   0.274  1.00  0.00    -0.379 N 
HETATM  102  N17 UNL     1      -8.926  -0.329   1.519  1.00  0.00    -0.323 N 
HETATM  103  S1  UNL     1      11.463  -4.396  -2.262  1.00  0.00    -0.173 SA
HETATM  104 CL1  UNL     1     -17.843   1.410   3.046  1.00  0.00    -0.129 Cl
HETATM  105 CL2  UNL     1     -17.990   0.338  -1.643  1.00  0.00    -0.129 Cl
HETATM  106  H78 UNL     1       2.696  -1.340  -0.092  1.00  0.00     0.163 HD
HETATM  107  H79 UNL     1       4.088  -0.100  -0.684  1.00  0.00     0.163 HD
HETATM  108  H80 UNL     1       7.687  -0.309   1.160  1.00  0.00     0.163 HD
HETATM  109  H81 UNL     1      10.108  -3.161  -0.809  1.00  0.00     0.163 HD
HETATM  110  H82 UNL     1      10.470  -3.284   2.760  1.00  0.00     0.159 HD
HETATM  111  H83 UNL     1      11.747  -4.275   3.382  1.00  0.00     0.159 HD
HETATM  112  H84 UNL     1      -0.614   0.816  -1.508  1.00  0.00     0.163 HD
HETATM  113  H85 UNL     1       2.685   3.061  -2.384  1.00  0.00     0.165 HD
HETATM  114  H86 UNL     1      -3.264   3.238   1.189  1.00  0.00     0.163 HD
HETATM  115  H87 UNL     1      -4.282  -2.479   0.533  1.00  0.00     0.284 HD
HETATM  116  H88 UNL     1      -5.838  -1.845   0.544  1.00  0.00     0.284 HD
HETATM  117  H89 UNL     1      -4.575  -0.856   0.153  1.00  0.00     0.284 HD
HETATM  118  H90 UNL     1      -6.993   0.591   2.379  1.00  0.00     0.163 HD
HETATM  119  H91 UNL     1      -9.838  -0.444   1.950  1.00  0.00     0.165 HD
ENDROOT
TORSDOF 43
