REMARK  0 active torsions:
REMARK  status: ('A' for Active; 'I' for Inactive)
REMARK       I    between atoms: C2_2  and  C3_3 
REMARK       I    between atoms: C3_3  and  C5_5 
REMARK       I    between atoms: C5_5  and  C6_6 
REMARK       I    between atoms: C5_5  and  N4_84 
REMARK       I    between atoms: C6_6  and  N1_80 
REMARK       I    between atoms: C8_8  and  C9_9 
REMARK       I    between atoms: C8_8  and  C29_29 
REMARK       I    between atoms: C8_8  and  N1_80 
REMARK       I    between atoms: C9_9  and  C10_10 
REMARK       I    between atoms: C10_10  and  C11_11 
REMARK       I    between atoms: C10_10  and  O5_70 
REMARK       I    between atoms: C12_12  and  C14_14 
REMARK       I    between atoms: C14_14  and  N3_83 
REMARK       I    between atoms: C15_15  and  C16_16 
REMARK       I    between atoms: C15_15  and  C23_23 
REMARK       I    between atoms: C15_15  and  N3_83 
REMARK       I    between atoms: C16_16  and  C17_17 
REMARK       I    between atoms: C23_23  and  C24_24 
REMARK       I    between atoms: C24_24  and  C26_26 
REMARK       I    between atoms: C26_26  and  O4_69 
REMARK       I    between atoms: C27_27  and  O5_70 
REMARK       I    between atoms: C32_32  and  C33_33 
REMARK       I    between atoms: C32_32  and  N4_84 
REMARK       I    between atoms: C39_39  and  C40_40 
REMARK       I    between atoms: C39_39  and  N5_85 
REMARK       I    between atoms: C43_43  and  N6_86 
REMARK       I    between atoms: C46_46  and  C47_47 
REMARK       I    between atoms: C46_46  and  N6_86 
REMARK       I    between atoms: C47_47  and  N7_87 
REMARK       I    between atoms: C49_49  and  C50_50 
REMARK       I    between atoms: C49_49  and  N7_87 
REMARK       I    between atoms: C50_50  and  C51_51 
REMARK       I    between atoms: C50_50  and  N8_88 
REMARK       I    between atoms: C54_54  and  C55_55 
REMARK       I    between atoms: C54_54  and  N8_88 
REMARK       I    between atoms: C55_55  and  C56_56 
REMARK       I    between atoms: C55_55  and  N10_90 
REMARK       I    between atoms: C56_56  and  N9_89 
REMARK       I    between atoms: C57_57  and  O12_77 
REMARK       I    between atoms: C57_57  and  N9_89 
REMARK       I    between atoms: C58_58  and  O12_77 
ROOT
HETATM    1  C1  UNL     1       6.432   3.668   0.771  1.00  0.00     0.005 C 
HETATM    2  C2  UNL     1       5.099   3.381   1.448  1.00  0.00     0.002 C 
HETATM    3  C3  UNL     1       5.140   2.302   2.559  1.00  0.00     0.013 C 
HETATM    4  C4  UNL     1       5.937   2.835   3.756  1.00  0.00     0.012 C 
HETATM    5  C5  UNL     1       5.663   0.927   2.071  1.00  0.00     0.180 C 
HETATM    6  C6  UNL     1       5.446  -0.232   3.096  1.00  0.00     0.243 C 
HETATM    7  C7  UNL     1       7.784   0.013   4.046  1.00  0.00     0.153 C 
HETATM    8  C8  UNL     1       6.314  -1.872   4.751  1.00  0.00     0.092 C 
HETATM    9  C9  UNL     1       6.090  -3.143   3.884  1.00  0.00     0.065 C 
HETATM   10  C10 UNL     1       7.392  -3.778   3.371  1.00  0.00     0.190 C 
HETATM   11  C11 UNL     1       8.001  -3.081   2.175  1.00  0.00     0.081 A 
HETATM   12  C12 UNL     1       8.232  -2.003   0.221  1.00  0.00     0.108 A 
HETATM   13  C13 UNL     1       9.548  -2.367   0.445  1.00  0.00     0.086 A 
HETATM   14  C14 UNL     1       7.709  -1.260  -0.940  1.00  0.00     0.269 C 
HETATM   15  C15 UNL     1       8.293   0.013  -3.004  1.00  0.00     0.089 C 
HETATM   16  C16 UNL     1       8.035   1.492  -2.614  1.00  0.00     0.063 C 
HETATM   17  C17 UNL     1       9.133   2.265  -1.919  1.00  0.00    -0.056 A 
HETATM   18  C18 UNL     1       9.691   3.397  -2.533  1.00  0.00     0.007 A 
HETATM   19  C19 UNL     1      10.694   4.134  -1.900  1.00  0.00     0.001 A 
HETATM   20  C20 UNL     1      11.140   3.762  -0.635  1.00  0.00     0.000 A 
HETATM   21  C21 UNL     1      10.577   2.661   0.001  1.00  0.00     0.001 A 
HETATM   22  C22 UNL     1       9.575   1.923  -0.633  1.00  0.00     0.007 A 
HETATM   23  C23 UNL     1       9.235  -0.235  -4.205  1.00  0.00     0.040 C 
HETATM   24  C24 UNL     1      10.625   0.428  -4.242  1.00  0.00     0.081 C 
HETATM   25  C25 UNL     1      11.360   0.003  -5.517  1.00  0.00     0.021 C 
HETATM   26  C26 UNL     1      11.496   0.101  -3.048  1.00  0.00     0.143 C 
HETATM   27  C27 UNL     1       7.136  -6.078   3.872  1.00  0.00     0.255 C 
HETATM   28  C28 UNL     1       6.855  -7.421   3.273  1.00  0.00     0.126 C 
HETATM   29  C29 UNL     1       5.213  -1.704   5.852  1.00  0.00     0.000 C 
HETATM   30  C30 UNL     1       5.301  -0.352   6.571  1.00  0.00     0.011 C 
HETATM   31  C31 UNL     1       5.308  -2.807   6.920  1.00  0.00     0.011 C 
HETATM   32  C32 UNL     1       3.700   0.320   0.618  1.00  0.00     0.249 C 
HETATM   33  C33 UNL     1       3.292  -0.782  -0.397  1.00  0.00     0.281 C 
HETATM   34  C34 UNL     1       3.631  -2.184   0.129  1.00  0.00     0.043 C 
HETATM   35  C35 UNL     1       3.393  -3.256  -0.926  1.00  0.00     0.004 C 
HETATM   36  C36 UNL     1       1.975  -3.206  -1.472  1.00  0.00     0.028 C 
HETATM   37  C37 UNL     1       1.595  -1.815  -1.966  1.00  0.00     0.238 C 
HETATM   38  C38 UNL     1       1.532   0.620  -1.539  1.00  0.00     0.274 C 
HETATM   39  C39 UNL     1       0.789  -0.928   0.305  1.00  0.00     0.276 C 
HETATM   40  C40 UNL     1      -0.688  -0.842  -0.022  1.00  0.00    -0.032 A 
HETATM   41  C41 UNL     1      -1.437  -1.984  -0.330  1.00  0.00     0.011 A 
HETATM   42  C42 UNL     1      -2.800  -1.883  -0.636  1.00  0.00     0.030 A 
HETATM   43  C43 UNL     1      -3.446  -0.642  -0.639  1.00  0.00     0.034 A 
HETATM   44  C44 UNL     1      -2.708   0.494  -0.313  1.00  0.00     0.030 A 
HETATM   45  C45 UNL     1      -1.347   0.395   0.000  1.00  0.00     0.011 A 
HETATM   46  C46 UNL     1      -5.647   0.479  -1.073  1.00  0.00     0.244 C 
HETATM   47  C47 UNL     1      -7.097   0.117  -1.459  1.00  0.00     0.172 C 
HETATM   48  C48 UNL     1      -7.160  -0.355  -2.908  1.00  0.00     0.042 C 
HETATM   49  C49 UNL     1      -9.300   1.211  -1.146  1.00  0.00     0.241 C 
HETATM   50  C50 UNL     1     -10.021   2.571  -0.981  1.00  0.00     0.180 C 
HETATM   51  C51 UNL     1      -9.827   3.138   0.442  1.00  0.00     0.009 C 
HETATM   52  C52 UNL     1     -10.367   4.568   0.533  1.00  0.00     0.012 C 
HETATM   53  C53 UNL     1     -10.461   2.272   1.536  1.00  0.00     0.012 C 
HETATM   54  C54 UNL     1     -11.837   2.431  -2.641  1.00  0.00     0.243 C 
HETATM   55  C55 UNL     1     -13.186   1.738  -2.911  1.00  0.00     0.206 C 
HETATM   56  C56 UNL     1     -12.976   0.211  -2.918  1.00  0.00     0.160 C 
HETATM   57  C57 UNL     1     -13.623  -0.515  -0.644  1.00  0.00     0.361 C 
HETATM   58  C58 UNL     1     -13.794  -1.205   1.684  1.00  0.00     0.061 C 
HETATM   59  C59 UNL     1     -14.841  -2.303   1.469  1.00  0.00     0.046 C 
HETATM   60  C60 UNL     1     -14.423   0.092   2.208  1.00  0.00     0.046 C 
HETATM   61  C61 UNL     1     -12.764  -1.699   2.711  1.00  0.00     0.046 C 
HETATM   62  C62 UNL     1     -13.428   1.860  -5.407  1.00  0.00     0.251 A 
HETATM   63  C63 UNL     1     -14.074   2.791  -6.339  1.00  0.00     0.080 A 
HETATM   64  C64 UNL     1     -14.674   3.737  -5.616  1.00  0.00     0.080 A 
HETATM   65  C65 UNL     1     -14.423   3.439  -4.203  1.00  0.00     0.251 A 
HETATM   66  O1  UNL     1       4.346  -0.803   3.135  1.00  0.00    -0.271 OA
HETATM   67  O2  UNL     1       6.511  -0.990  -1.041  1.00  0.00    -0.266 OA
HETATM   68  O3  UNL     1      11.270  -0.732  -2.183  1.00  0.00    -0.650 OA
HETATM   69  O4  UNL     1      12.605   0.862  -3.001  1.00  0.00    -0.776 OA
HETATM   70  O5  UNL     1       7.106  -5.118   2.910  1.00  0.00    -0.309 OA
HETATM   71  O6  UNL     1       7.353  -5.876   5.058  1.00  0.00    -0.266 OA
HETATM   72  O7  UNL     1       2.873   1.044   1.165  1.00  0.00    -0.271 OA
HETATM   73  O8  UNL     1      -5.312   1.653  -0.914  1.00  0.00    -0.271 OA
HETATM   74  O9  UNL     1      -9.902   0.135  -1.146  1.00  0.00    -0.271 OA
HETATM   75  O10 UNL     1     -11.155   2.962  -3.515  1.00  0.00    -0.271 OA
HETATM   76  O11 UNL     1     -14.805  -0.248  -0.785  1.00  0.00    -0.238 OA
HETATM   77  O12 UNL     1     -13.025  -0.967   0.478  1.00  0.00    -0.294 OA
HETATM   78  O13 UNL     1     -12.761   0.907  -5.765  1.00  0.00    -0.268 OA
HETATM   79  O14 UNL     1     -14.776   4.156  -3.286  1.00  0.00    -0.268 OA
HETATM   80  N1  UNL     1       6.498  -0.663   3.905  1.00  0.00    -0.350 N 
HETATM   81  N2  UNL     1       7.358  -2.402   1.243  1.00  0.00    -0.347 N 
ATOM     82  H2  UNL     1       6.359  -2.195   1.263  1.00  0.00     0.166 HD
HETATM   83  N3  UNL     1       8.631  -0.846  -1.877  1.00  0.00    -0.351 N 
HETATM   84  N4  UNL     1       5.062   0.429   0.817  1.00  0.00    -0.346 N 
HETATM   85  N5  UNL     1       1.775  -0.747  -0.888  1.00  0.00    -0.054 N 
HETATM   86  N6  UNL     1      -4.818  -0.628  -0.966  1.00  0.00    -0.325 N 
HETATM   87  N7  UNL     1      -7.934   1.290  -1.252  1.00  0.00    -0.346 N 
HETATM   88  N8  UNL     1     -11.424   2.358  -1.320  1.00  0.00    -0.346 N 
HETATM   89  N9  UNL     1     -12.680  -0.346  -1.608  1.00  0.00    -0.334 N 
HETATM   90  N10 UNL     1     -13.731   2.273  -4.152  1.00  0.00    -0.266 N 
HETATM   91  S1  UNL     1       9.702  -3.217   1.921  1.00  0.00    -0.084 SA
HETATM   92  H87 UNL     1      13.073   0.612  -2.179  1.00  0.00     0.167 HD
HETATM   93  H88 UNL     1       9.625  -0.986  -1.703  1.00  0.00     0.163 HD
HETATM   94  H89 UNL     1       5.644  -0.252   0.326  1.00  0.00     0.163 HD
HETATM   95  H90 UNL     1      -5.244  -1.531  -1.137  1.00  0.00     0.169 HD
HETATM   96  H91 UNL     1      -7.471   2.195  -1.286  1.00  0.00     0.163 HD
HETATM   97  H92 UNL     1     -11.906   1.670  -0.752  1.00  0.00     0.163 HD
HETATM   98  H93 UNL     1     -11.713  -0.557  -1.357  1.00  0.00     0.164 HD
ENDROOT
TORSDOF 34
