REMARK  25 active torsions:
REMARK  status: ('A' for Active; 'I' for Inactive)
REMARK    1  A    between atoms: C4_4  and  C5_5 
REMARK       I    between atoms: C5_5  and  N3_54 
REMARK    2  A    between atoms: C6_6  and  N3_54 
REMARK    3  A    between atoms: C8_8  and  C10_10 
REMARK       I    between atoms: C10_10  and  N5_56 
REMARK    4  A    between atoms: C11_11  and  C12_12 
REMARK    5  A    between atoms: C11_11  and  N5_56 
REMARK    6  A    between atoms: C12_12  and  C13_13 
REMARK    7  A    between atoms: C13_13  and  C14_14 
REMARK       I    between atoms: C14_14  and  N6_57 
REMARK    8  A    between atoms: C15_15  and  N6_57 
REMARK    9  A    between atoms: C17_17  and  C19_19 
REMARK       I    between atoms: C19_19  and  N8_59 
REMARK   10  A    between atoms: C20_20  and  N8_59 
REMARK   11  A    between atoms: C22_22  and  C24_24 
REMARK       I    between atoms: C24_24  and  N10_61 
REMARK   12  A    between atoms: C25_25  and  C26_26 
REMARK   13  A    between atoms: C25_25  and  N10_61 
REMARK   14  A    between atoms: C26_26  and  C27_27 
REMARK       I    between atoms: C27_27  and  N11_62 
REMARK   15  A    between atoms: C28_28  and  N11_62 
REMARK   16  A    between atoms: C30_30  and  C32_32 
REMARK       I    between atoms: C32_32  and  N13_64 
REMARK   17  A    between atoms: C33_33  and  N13_64 
REMARK   18  A    between atoms: C35_35  and  C37_37 
REMARK       I    between atoms: C37_37  and  N15_66 
REMARK   19  A    between atoms: C38_38  and  C39_39 
REMARK   20  A    between atoms: C38_38  and  N15_66 
REMARK   21  A    between atoms: C39_39  and  C40_40 
REMARK       I    between atoms: C40_40  and  N16_67 
REMARK   22  A    between atoms: C41_41  and  C42_42 
REMARK   23  A    between atoms: C41_41  and  N16_67 
REMARK   24  A    between atoms: C42_42  and  C43_43 
REMARK   25  A    between atoms: C43_43  and  N17_68 
ROOT
HETATM    1  C20 UNL     1      -1.815   2.737   4.708  1.00  0.00     0.053 A 
HETATM    2  C21 UNL     1      -1.482   1.491   5.186  1.00  0.00     0.120 A 
HETATM    3  C22 UNL     1      -0.147   2.971   6.241  1.00  0.00     0.104 A 
HETATM    4  C23 UNL     1      -0.995   3.665   5.387  1.00  0.00     0.066 A 
HETATM    5  C48 UNL     1       0.000   0.551   6.946  1.00  0.00     0.156 C 
HETATM    6  N9  UNL     1      -0.500   1.640   6.135  1.00  0.00    -0.354 N 
ENDROOT
BRANCH   3   7
HETATM    7  C24 UNL     1       0.863   3.552   7.100  1.00  0.00     0.268 C 
HETATM    8  N10 UNL     1       2.035   2.830   7.175  1.00  0.00    -0.355 N 
HETATM    9  H61 UNL     1       2.208   2.153   6.439  1.00  0.00     0.162 HD
HETATM   10  O5  UNL     1       0.729   4.630   7.670  1.00  0.00    -0.266 OA
BRANCH   8  11
HETATM   11  C25 UNL     1       3.207   3.360   7.844  1.00  0.00     0.132 C 
BRANCH  11  12
HETATM   12  C26 UNL     1       3.936   4.410   7.013  1.00  0.00     0.123 C 
BRANCH  12  13
HETATM   13  C27 UNL     1       4.584   3.812   5.777  1.00  0.00     0.223 C 
HETATM   14  N11 UNL     1       5.165   4.787   4.985  1.00  0.00    -0.326 N 
HETATM   15  H62 UNL     1       5.064   5.758   5.253  1.00  0.00     0.169 HD
HETATM   16  O6  UNL     1       4.578   2.604   5.552  1.00  0.00    -0.273 OA
BRANCH  14  17
HETATM   17  C28 UNL     1       5.846   4.547   3.808  1.00  0.00     0.052 A 
HETATM   18  C29 UNL     1       6.375   5.551   3.035  1.00  0.00     0.120 A 
HETATM   19  N12 UNL     1       6.985   4.979   1.946  1.00  0.00    -0.354 N 
HETATM   20  C30 UNL     1       6.861   3.599   1.992  1.00  0.00     0.105 A 
HETATM   21  C47 UNL     1       7.646   5.738   0.903  1.00  0.00     0.156 C 
HETATM   22  C31 UNL     1       6.154   3.328   3.162  1.00  0.00     0.066 A 
BRANCH  20  23
HETATM   23  C32 UNL     1       7.403   2.684   0.987  1.00  0.00     0.273 C 
HETATM   24  N13 UNL     1       6.977   1.375   1.127  1.00  0.00    -0.320 N 
HETATM   25  H63 UNL     1       6.318   1.163   1.861  1.00  0.00     0.169 HD
HETATM   26  O7  UNL     1       8.161   3.074   0.103  1.00  0.00    -0.266 OA
BRANCH  24  27
HETATM   27  C33 UNL     1       7.342   0.308   0.328  1.00  0.00     0.053 A 
HETATM   28  C34 UNL     1       8.191   0.298  -0.752  1.00  0.00     0.120 A 
HETATM   29  N14 UNL     1       8.238  -0.977  -1.257  1.00  0.00    -0.354 N 
HETATM   30  C35 UNL     1       7.484  -1.824  -0.469  1.00  0.00     0.104 A 
HETATM   31  C46 UNL     1       8.914  -1.319  -2.491  1.00  0.00     0.156 C 
HETATM   32  C36 UNL     1       6.880  -1.020   0.489  1.00  0.00     0.066 A 
BRANCH  30  33
HETATM   33  C37 UNL     1       7.299  -3.250  -0.627  1.00  0.00     0.268 C 
HETATM   34  N15 UNL     1       8.442  -3.945  -0.967  1.00  0.00    -0.355 N 
HETATM   35  H64 UNL     1       9.319  -3.473  -0.788  1.00  0.00     0.162 HD
HETATM   36  O8  UNL     1       6.229  -3.818  -0.424  1.00  0.00    -0.266 OA
BRANCH  34  37
HETATM   37  C38 UNL     1       8.459  -5.399  -0.969  1.00  0.00     0.132 C 
BRANCH  37  38
HETATM   38  C39 UNL     1       7.648  -6.004  -2.111  1.00  0.00     0.122 C 
BRANCH  38  39
HETATM   39  C40 UNL     1       6.658  -7.014  -1.580  1.00  0.00     0.219 C 
HETATM   40  N16 UNL     1       5.549  -6.454  -0.991  1.00  0.00    -0.361 N 
HETATM   41  H65 UNL     1       5.563  -5.448  -0.800  1.00  0.00     0.162 HD
HETATM   42  O9  UNL     1       6.855  -8.222  -1.663  1.00  0.00    -0.274 OA
BRANCH  40  43
HETATM   43  C41 UNL     1       4.540  -7.253  -0.330  1.00  0.00     0.124 C 
BRANCH  43  44
HETATM   44  C42 UNL     1       4.952  -7.609   1.098  1.00  0.00     0.050 C 
BRANCH  44  45
HETATM   45  C43 UNL     1       3.853  -8.425   1.790  1.00  0.00     0.273 C 
BRANCH  45  46
HETATM   46  N17 UNL     1       4.113  -8.844   3.176  1.00  0.00     0.080 N 
HETATM   47  C44 UNL     1       5.239  -9.767   3.283  1.00  0.00     0.309 C 
HETATM   48  C45 UNL     1       4.269  -7.717   4.091  1.00  0.00     0.309 C 
ENDBRANCH  45  46
ENDBRANCH  44  45
ENDBRANCH  43  44
ENDBRANCH  40  43
ENDBRANCH  38  39
ENDBRANCH  37  38
ENDBRANCH  34  37
ENDBRANCH  30  33
ENDBRANCH  24  27
ENDBRANCH  20  23
ENDBRANCH  14  17
ENDBRANCH  12  13
ENDBRANCH  11  12
ENDBRANCH   8  11
ENDBRANCH   3   7
BRANCH   1  49
HETATM   49  N8  UNL     1      -2.792   2.929   3.750  1.00  0.00    -0.320 N 
HETATM   50  C19 UNL     1      -3.153   4.147   3.204  1.00  0.00     0.273 C 
HETATM   51  O4  UNL     1      -2.615   5.214   3.487  1.00  0.00    -0.266 OA
HETATM   52  H60 UNL     1      -3.252   2.095   3.417  1.00  0.00     0.169 HD
BRANCH  50  53
HETATM   53  C17 UNL     1      -4.240   4.067   2.228  1.00  0.00     0.105 A 
HETATM   54  C18 UNL     1      -5.067   2.998   1.895  1.00  0.00     0.066 A 
HETATM   55  C15 UNL     1      -5.971   3.409   0.888  1.00  0.00     0.052 A 
HETATM   56  C16 UNL     1      -5.695   4.728   0.622  1.00  0.00     0.120 A 
HETATM   57  N7  UNL     1      -4.658   5.122   1.431  1.00  0.00    -0.354 N 
HETATM   58  C49 UNL     1      -4.092   6.456   1.423  1.00  0.00     0.156 C 
BRANCH  55  59
HETATM   59  N6  UNL     1      -6.969   2.706   0.244  1.00  0.00    -0.326 N 
HETATM   60  C14 UNL     1      -7.266   1.371   0.465  1.00  0.00     0.222 C 
HETATM   61  O3  UNL     1      -6.701   0.628   1.261  1.00  0.00    -0.273 OA
HETATM   62  H59 UNL     1      -7.494   3.215  -0.455  1.00  0.00     0.169 HD
BRANCH  60  63
HETATM   63  C13 UNL     1      -8.443   0.913  -0.382  1.00  0.00     0.105 C 
BRANCH  63  64
HETATM   64  C12 UNL     1      -8.611  -0.606  -0.371  1.00  0.00     0.029 C 
BRANCH  64  65
HETATM   65  C11 UNL     1      -9.896  -1.067  -1.056  1.00  0.00     0.123 C 
BRANCH  65  66
HETATM   66  N5  UNL     1     -10.009  -0.630  -2.432  1.00  0.00    -0.356 N 
HETATM   67  C10 UNL     1      -9.267  -1.208  -3.441  1.00  0.00     0.268 C 
HETATM   68  O2  UNL     1      -8.512  -2.154  -3.253  1.00  0.00    -0.266 OA
HETATM   69  H58 UNL     1     -10.430   0.268  -2.621  1.00  0.00     0.162 HD
BRANCH  67  70
HETATM   70  C8  UNL     1      -9.424  -0.550  -4.718  1.00  0.00     0.104 A 
HETATM   71  C9  UNL     1      -8.410  -0.130  -5.567  1.00  0.00     0.066 A 
HETATM   72  C6  UNL     1      -8.997   0.490  -6.694  1.00  0.00     0.053 A 
HETATM   73  C7  UNL     1     -10.360   0.400  -6.535  1.00  0.00     0.120 A 
HETATM   74  N4  UNL     1     -10.612  -0.259  -5.357  1.00  0.00    -0.354 N 
HETATM   75  C50 UNL     1     -11.933  -0.654  -4.917  1.00  0.00     0.156 C 
BRANCH  72  76
HETATM   76  N3  UNL     1      -8.412   1.083  -7.790  1.00  0.00    -0.319 N 
HETATM   77  C5  UNL     1      -7.056   1.223  -8.014  1.00  0.00     0.290 C 
HETATM   78  O1  UNL     1      -6.165   0.857  -7.254  1.00  0.00    -0.264 OA
HETATM   79  H57 UNL     1      -9.014   1.456  -8.519  1.00  0.00     0.169 HD
BRANCH  77  80
HETATM   80  C4  UNL     1      -6.793   1.883  -9.289  1.00  0.00     0.176 A 
HETATM   81  N1  UNL     1      -5.562   2.157  -9.838  1.00  0.00    -0.342 N 
HETATM   82  C1  UNL     1      -4.279   1.839  -9.260  1.00  0.00     0.157 C 
HETATM   83  C2  UNL     1      -5.764   2.782 -11.038  1.00  0.00     0.109 A 
HETATM   84  C3  UNL     1      -7.128   2.864 -11.175  1.00  0.00     0.107 A 
HETATM   85  N2  UNL     1      -7.760   2.309 -10.093  1.00  0.00    -0.346 N 
ATOM     86  H2  UNL     1      -8.766   2.238  -9.937  1.00  0.00     0.167 HD
ENDBRANCH  77  80
ENDBRANCH  72  76
ENDBRANCH  67  70
ENDBRANCH  65  66
ENDBRANCH  64  65
ENDBRANCH  63  64
ENDBRANCH  60  63
ENDBRANCH  55  59
ENDBRANCH  50  53
ENDBRANCH   1  49
TORSDOF 25
