REMARK  19 active torsions:
REMARK  status: ('A' for Active; 'I' for Inactive)
REMARK    1  A    between atoms: C2_2  and  C4_4 
REMARK    2  A    between atoms: C4_4  and  N1_61 
REMARK    3  A    between atoms: C8_8  and  C11_11 
REMARK    4  A    between atoms: C12_12  and  N4_65 
REMARK    5  A    between atoms: C14_14  and  N3_64 
REMARK    6  A    between atoms: C20_20  and  C21_21 
REMARK       I    between atoms: C20_20  and  N4_65 
REMARK    7  A    between atoms: C22_22  and  O4_77 
REMARK    8  A    between atoms: C30_30  and  C31_31 
REMARK    9  A    between atoms: C30_30  and  N5_66 
REMARK   10  A    between atoms: C34_34  and  O12_85 
REMARK   11  A    between atoms: C35_35  and  C37_37 
REMARK       I    between atoms: C37_37  and  N6_67 
REMARK   12  A    between atoms: C38_38  and  N6_67 
REMARK   13  A    between atoms: C40_40  and  C41_41 
REMARK   14  A    between atoms: C48_48  and  C50_50 
REMARK   15  A    between atoms: C49_49  and  O9_82 
REMARK       I    between atoms: C50_50  and  N9_71 
REMARK   16  A    between atoms: C51_51  and  N9_71 
REMARK   17  A    between atoms: C54_54  and  O11_84 
REMARK   18  A    between atoms: C57_57  and  C58_58 
REMARK   19  A    between atoms: C57_57  and  N8_70 
ROOT
HETATM    1  C5  UNL     1      -1.582   0.395   0.505  1.00  0.00     0.050 A 
HETATM    2  C6  UNL     1      -1.877   1.737   0.231  1.00  0.00     0.026 A 
HETATM    3  C7  UNL     1      -3.205   2.200   0.357  1.00  0.00     0.030 A 
HETATM    4  C8  UNL     1      -4.260   1.366   0.762  1.00  0.00    -0.008 A 
HETATM    5  C9  UNL     1      -3.937   0.028   1.025  1.00  0.00     0.016 A 
HETATM    6  C10 UNL     1      -2.627  -0.450   0.900  1.00  0.00     0.031 A 
HETATM    7  C34 UNL     1      -0.801   2.651  -0.186  1.00  0.00     0.099 A 
HETATM    8  C35 UNL     1       0.469   2.218  -0.319  1.00  0.00     0.134 A 
HETATM    9  C36 UNL     1       0.788   0.786  -0.038  1.00  0.00     0.266 A 
HETATM   10  N1  UNL     1      -0.237  -0.065   0.365  1.00  0.00    -0.312 N 
HETATM   11  O5  UNL     1       1.955   0.402  -0.166  1.00  0.00    -0.267 OA
ENDROOT
BRANCH   8  12
HETATM   12  C37 UNL     1       1.527   3.204  -0.745  1.00  0.00     0.267 C 
HETATM   13  N6  UNL     1       2.792   2.695  -0.846  1.00  0.00    -0.288 N 
HETATM   14  H56 UNL     1       2.973   1.716  -0.643  1.00  0.00     0.172 HD
HETATM   15  O6  UNL     1       1.204   4.371  -0.968  1.00  0.00    -0.267 OA
BRANCH  13  16
HETATM   16  C38 UNL     1       3.865   3.444  -1.213  1.00  0.00     0.231 A 
HETATM   17  N7  UNL     1       3.961   4.713  -1.533  1.00  0.00    -0.329 N 
HETATM   18  C39 UNL     1       5.293   4.887  -1.808  1.00  0.00     0.130 A 
ATOM     19  H7  UNL     1       3.217   5.409  -1.569  1.00  0.00     0.168 HD
HETATM   20  C40 UNL     1       5.974   3.700  -1.643  1.00  0.00     0.105 A 
HETATM   21  O7  UNL     1       5.049   2.763  -1.259  1.00  0.00    -0.277 OA
BRANCH  20  22
HETATM   22  C41 UNL     1       7.354   3.257  -1.782  1.00  0.00     0.000 A 
HETATM   23  C42 UNL     1       7.736   1.946  -1.465  1.00  0.00     0.031 A 
HETATM   24  C43 UNL     1       9.069   1.503  -1.605  1.00  0.00     0.026 A 
HETATM   25  C44 UNL     1      10.061   2.407  -2.024  1.00  0.00     0.050 A 
HETATM   26  C49 UNL     1       9.444   0.111  -1.310  1.00  0.00     0.099 A 
HETATM   27  C45 UNL     1       9.673   3.715  -2.350  1.00  0.00     0.031 A 
HETATM   28  N8  UNL     1      11.424   1.975  -2.072  1.00  0.00    -0.312 N 
HETATM   29  C46 UNL     1       8.341   4.132  -2.236  1.00  0.00     0.016 A 
HETATM   30  C47 UNL     1      11.803   0.685  -1.685  1.00  0.00     0.266 A 
HETATM   31  C48 UNL     1      10.728  -0.275  -1.328  1.00  0.00     0.134 A 
HETATM   32  O8  UNL     1      12.982   0.336  -1.618  1.00  0.00    -0.267 OA
BRANCH  28  33
HETATM   33  C57 UNL     1      12.511   2.877  -2.469  1.00  0.00     0.136 C 
BRANCH  33  34
HETATM   34  C58 UNL     1      13.292   3.484  -1.282  1.00  0.00    -0.004 C 
HETATM   35  C59 UNL     1      14.528   4.222  -1.803  1.00  0.00     0.011 C 
HETATM   36  C60 UNL     1      12.447   4.433  -0.433  1.00  0.00     0.011 C 
ENDBRANCH  33  34
ENDBRANCH  28  33
BRANCH  31  37
HETATM   37  C50 UNL     1      11.075  -1.704  -1.090  1.00  0.00     0.265 C 
HETATM   38  N9  UNL     1      10.680  -2.163   0.143  1.00  0.00    -0.309 N 
HETATM   39  H57 UNL     1      10.118  -1.565   0.734  1.00  0.00     0.170 HD
HETATM   40  O10 UNL     1      11.651  -2.349  -1.960  1.00  0.00    -0.267 OA
BRANCH  38  41
HETATM   41  C51 UNL     1      10.877  -3.426   0.703  1.00  0.00     0.110 A 
HETATM   42  C55 UNL     1      11.611  -4.439   0.100  1.00  0.00     0.085 A 
HETATM   43  C54 UNL     1      11.741  -5.657   0.765  1.00  0.00     0.073 A 
HETATM   44  C53 UNL     1      11.137  -5.820   2.005  1.00  0.00     0.053 A 
HETATM   45  C52 UNL     1      10.430  -4.758   2.533  1.00  0.00     0.092 A 
HETATM   46  N10 UNL     1      10.289  -3.569   1.911  1.00  0.00    -0.352 N 
ATOM     47  H10 UNL     1       9.759  -2.808   2.336  1.00  0.00     0.166 HD
BRANCH  43  48
HETATM   48  O11 UNL     1      12.425  -6.752   0.313  1.00  0.00    -0.356 OA
HETATM   49  C56 UNL     1      13.077  -6.626  -0.947  1.00  0.00     0.210 C 
ENDBRANCH  43  48
ENDBRANCH  38  41
ENDBRANCH  31  37
BRANCH  26  50
HETATM   50  O9  UNL     1       8.423  -0.787  -1.051  1.00  0.00    -0.359 OA
HETATM   51  H59 UNL     1       7.704  -0.628  -1.689  1.00  0.00     0.217 HD
ENDBRANCH  26  50
ENDBRANCH  20  22
ENDBRANCH  13  16
ENDBRANCH   8  12
BRANCH   7  52
HETATM   52  O12 UNL     1      -1.212   3.956  -0.413  1.00  0.00    -0.359 OA
HETATM   53  H60 UNL     1      -0.434   4.491  -0.694  1.00  0.00     0.217 HD
ENDBRANCH   7  52
BRANCH  10  54
HETATM   54  C4  UNL     1       0.108  -1.463   0.653  1.00  0.00     0.136 C 
BRANCH  54  55
HETATM   55  C2  UNL     1       0.279  -1.763   2.157  1.00  0.00    -0.004 C 
HETATM   56  C1  UNL     1       0.427  -3.271   2.369  1.00  0.00     0.011 C 
HETATM   57  C3  UNL     1       1.482  -1.035   2.760  1.00  0.00     0.011 C 
ENDBRANCH  54  55
ENDBRANCH  10  54
BRANCH   4  58
HETATM   58  C11 UNL     1      -5.653   1.850   0.900  1.00  0.00     0.046 A 
HETATM   59  C15 UNL     1      -5.977   3.169   1.205  1.00  0.00     0.059 A 
HETATM   60  C14 UNL     1      -7.316   3.565   1.314  1.00  0.00     0.036 A 
HETATM   61  C13 UNL     1      -8.288   2.584   1.109  1.00  0.00     0.078 A 
HETATM   62  C12 UNL     1      -7.904   1.282   0.819  1.00  0.00     0.110 A 
HETATM   63  N2  UNL     1      -6.614   0.912   0.721  1.00  0.00    -0.342 N 
ATOM     64  H2  UNL     1      -6.365  -0.056   0.516  1.00  0.00     0.167 HD
BRANCH  60  65
HETATM   65  N3  UNL     1      -7.611   4.902   1.622  1.00  0.00    -0.377 N 
HETATM   66  C16 UNL     1      -7.110   5.317   2.958  1.00  0.00     0.149 C 
HETATM   67  C17 UNL     1      -7.792   6.616   3.417  1.00  0.00     0.187 C 
HETATM   68  O1  UNL     1      -9.219   6.497   3.530  1.00  0.00    -0.388 OA
HETATM   69  C18 UNL     1      -9.796   5.616   2.550  1.00  0.00     0.187 C 
HETATM   70  C19 UNL     1      -8.939   5.463   1.285  1.00  0.00     0.149 C 
ENDBRANCH  60  65
BRANCH  62  71
HETATM   71  N4  UNL     1      -8.795   0.227   0.609  1.00  0.00    -0.309 N 
HETATM   72  C20 UNL     1     -10.163   0.233   0.621  1.00  0.00     0.265 C 
HETATM   73  O2  UNL     1     -10.861   1.226   0.836  1.00  0.00    -0.267 OA
HETATM   74  H55 UNL     1      -8.310  -0.650   0.416  1.00  0.00     0.170 HD
BRANCH  72  75
HETATM   75  C21 UNL     1     -10.832  -1.091   0.343  1.00  0.00     0.134 A 
HETATM   76  C22 UNL     1     -12.180  -1.138   0.314  1.00  0.00     0.099 A 
HETATM   77  C23 UNL     1     -12.892  -2.396   0.042  1.00  0.00     0.025 A 
HETATM   78  C24 UNL     1     -14.299  -2.433   0.014  1.00  0.00     0.016 A 
HETATM   79  C28 UNL     1     -12.166  -3.574  -0.193  1.00  0.00     0.050 A 
HETATM   80  C25 UNL     1     -14.984  -3.619  -0.243  1.00  0.00     0.001 A 
HETATM   81  C26 UNL     1     -14.269  -4.785  -0.475  1.00  0.00     0.002 A 
HETATM   82  C27 UNL     1     -12.872  -4.763  -0.450  1.00  0.00     0.031 A 
HETATM   83  N5  UNL     1     -10.739  -3.525  -0.159  1.00  0.00    -0.312 N 
HETATM   84  C29 UNL     1     -10.053  -2.342   0.100  1.00  0.00     0.266 A 
HETATM   85  O3  UNL     1      -8.820  -2.292   0.133  1.00  0.00    -0.267 OA
BRANCH  76  86
HETATM   86  O4  UNL     1     -13.008  -0.046   0.526  1.00  0.00    -0.359 OA
HETATM   87  H58 UNL     1     -12.450   0.744   0.704  1.00  0.00     0.217 HD
ENDBRANCH  76  86
BRANCH  83  88
HETATM   88  C30 UNL     1      -9.944  -4.733  -0.413  1.00  0.00     0.136 C 
BRANCH  88  89
HETATM   89  C31 UNL     1      -9.786  -5.070  -1.911  1.00  0.00    -0.004 C 
HETATM   90  C32 UNL     1      -9.132  -6.444  -2.064  1.00  0.00     0.011 C 
HETATM   91  C33 UNL     1      -8.963  -4.018  -2.657  1.00  0.00     0.011 C 
ENDBRANCH  88  89
ENDBRANCH  83  88
ENDBRANCH  72  75
ENDBRANCH  62  71
ENDBRANCH   4  58
TORSDOF 19
