REMARK  27 active torsions:
REMARK  status: ('A' for Active; 'I' for Inactive)
REMARK    1  A    between atoms: C3_3  and  C4_4 
REMARK    2  A    between atoms: C3_3  and  N1_58 
REMARK    3  A    between atoms: C4_4  and  C5_5 
REMARK    4  A    between atoms: C5_5  and  N2_59 
REMARK    5  A    between atoms: C6_6  and  C7_7 
REMARK       I    between atoms: C6_6  and  N2_59 
REMARK    6  A    between atoms: C7_7  and  C8_8 
REMARK    7  A    between atoms: C8_8  and  N3_60 
REMARK    8  A    between atoms: C9_9  and  C10_10 
REMARK       I    between atoms: C9_9  and  N3_60 
REMARK    9  A    between atoms: C12_12  and  N4_61 
REMARK   10  A    between atoms: C13_13  and  C14_14 
REMARK       I    between atoms: C13_13  and  N4_61 
REMARK   11  A    between atoms: C16_16  and  N5_62 
REMARK   12  A    between atoms: C17_17  and  C18_18 
REMARK       I    between atoms: C17_17  and  N5_62 
REMARK   13  A    between atoms: C19_19  and  N7_65 
REMARK   14  A    between atoms: C20_20  and  C21_21 
REMARK       I    between atoms: C20_20  and  N7_65 
REMARK   15  A    between atoms: C23_23  and  N8_66 
REMARK   16  A    between atoms: C24_24  and  C25_25 
REMARK       I    between atoms: C24_24  and  N8_66 
REMARK   17  A    between atoms: C25_25  and  C26_26 
REMARK   18  A    between atoms: C25_25  and  N9_67 
REMARK   19  A    between atoms: C26_26  and  C27_27 
REMARK   20  A    between atoms: C27_27  and  N10_68 
REMARK   21  A    between atoms: C28_28  and  C29_29 
REMARK       I    between atoms: C28_28  and  N10_68 
REMARK   22  A    between atoms: C30_30  and  N12_71 
REMARK   23  A    between atoms: C31_31  and  C32_32 
REMARK       I    between atoms: C31_31  and  N12_71 
REMARK   24  A    between atoms: C34_34  and  N13_72 
REMARK   25  A    between atoms: C35_35  and  C36_36 
REMARK       I    between atoms: C35_35  and  N13_72 
REMARK   26  A    between atoms: C38_38  and  N14_73 
REMARK   27  A    between atoms: C39_39  and  C40_40 
REMARK       I    between atoms: C39_39  and  N14_73 
ROOT
HETATM    1  C21 UNL     1      -1.478  -3.187   0.305  1.00  0.00     0.105 A 
HETATM    2  C22 UNL     1      -0.200  -3.741   0.319  1.00  0.00     0.066 A 
HETATM    3  C23 UNL     1       0.545  -3.156   1.368  1.00  0.00     0.052 A 
HETATM    4  C50 UNL     1      -0.285  -2.260   1.994  1.00  0.00     0.120 A 
HETATM    5  C51 UNL     1      -2.629  -1.461   1.744  1.00  0.00     0.156 C 
HETATM    6  N20 UNL     1      -1.502  -2.285   1.357  1.00  0.00    -0.354 N 
ENDROOT
BRANCH   3   7
HETATM    7  N8  UNL     1       1.844  -3.379   1.762  1.00  0.00    -0.324 N 
HETATM    8  C24 UNL     1       2.748  -4.219   1.137  1.00  0.00     0.255 C 
HETATM    9  O6  UNL     1       2.534  -4.908   0.143  1.00  0.00    -0.271 OA
HETATM   10  H65 UNL     1       2.223  -2.835   2.534  1.00  0.00     0.169 HD
BRANCH   8  11
HETATM   11  C25 UNL     1       4.101  -4.255   1.892  1.00  0.00     0.310 C 
BRANCH  11  12
HETATM   12  C26 UNL     1       5.255  -4.733   0.997  1.00  0.00     0.065 C 
BRANCH  12  13
HETATM   13  C27 UNL     1       5.560  -3.856  -0.220  1.00  0.00     0.125 C 
BRANCH  13  14
HETATM   14  N10 UNL     1       6.602  -2.886   0.038  1.00  0.00    -0.354 N 
HETATM   15  C28 UNL     1       6.380  -1.560   0.325  1.00  0.00     0.285 C 
HETATM   16  O7  UNL     1       5.255  -1.104   0.514  1.00  0.00    -0.264 OA
HETATM   17  H68 UNL     1       7.581  -3.140  -0.102  1.00  0.00     0.162 HD
BRANCH  15  18
HETATM   18  C29 UNL     1       7.606  -0.787   0.406  1.00  0.00     0.178 A 
HETATM   19  N11 UNL     1       8.802  -1.334   0.252  1.00  0.00    -0.323 N 
HETATM   20  C30 UNL     1       9.703  -0.324   0.388  1.00  0.00     0.125 A 
ATOM     21  H11 UNL     1       9.007  -2.316   0.068  1.00  0.00     0.169 HD
HETATM   22  C48 UNL     1       9.065   0.868   0.635  1.00  0.00     0.140 A 
HETATM   23  N19 UNL     1       7.730   0.561   0.643  1.00  0.00    -0.339 N 
HETATM   24  C49 UNL     1       6.648   1.491   0.855  1.00  0.00     0.157 C 
BRANCH  20  25
HETATM   25  N12 UNL     1      11.063  -0.479   0.298  1.00  0.00    -0.306 N 
HETATM   26  C31 UNL     1      11.701  -1.670   0.015  1.00  0.00     0.274 C 
HETATM   27  O8  UNL     1      11.135  -2.732  -0.223  1.00  0.00    -0.266 OA
HETATM   28  H69 UNL     1      11.613   0.357   0.403  1.00  0.00     0.170 HD
BRANCH  26  29
HETATM   29  C32 UNL     1      13.161  -1.560  -0.001  1.00  0.00     0.105 A 
HETATM   30  C33 UNL     1      13.993  -0.575   0.527  1.00  0.00     0.066 A 
HETATM   31  C34 UNL     1      15.343  -0.918   0.259  1.00  0.00     0.053 A 
HETATM   32  C46 UNL     1      15.315  -2.108  -0.423  1.00  0.00     0.120 A 
HETATM   33  N18 UNL     1      14.008  -2.500  -0.564  1.00  0.00    -0.354 N 
HETATM   34  C47 UNL     1      13.603  -3.719  -1.235  1.00  0.00     0.156 C 
BRANCH  31  35
HETATM   35  N13 UNL     1      16.440  -0.166   0.635  1.00  0.00    -0.320 N 
HETATM   36  C35 UNL     1      17.767  -0.483   0.401  1.00  0.00     0.273 C 
HETATM   37  O9  UNL     1      18.145  -1.503  -0.168  1.00  0.00    -0.266 OA
HETATM   38  H70 UNL     1      16.237   0.677   1.150  1.00  0.00     0.169 HD
BRANCH  36  39
HETATM   39  C36 UNL     1      18.715   0.510   0.909  1.00  0.00     0.105 A 
HETATM   40  C37 UNL     1      18.490   1.790   1.410  1.00  0.00     0.066 A 
HETATM   41  C38 UNL     1      19.729   2.366   1.776  1.00  0.00     0.053 A 
HETATM   42  C44 UNL     1      20.698   1.439   1.487  1.00  0.00     0.120 A 
HETATM   43  N17 UNL     1      20.088   0.328   0.960  1.00  0.00    -0.354 N 
HETATM   44  C45 UNL     1      20.805  -0.859   0.539  1.00  0.00     0.156 C 
BRANCH  41  45
HETATM   45  N14 UNL     1      20.010   3.600   2.317  1.00  0.00    -0.319 N 
HETATM   46  C39 UNL     1      19.090   4.578   2.640  1.00  0.00     0.290 C 
HETATM   47  O10 UNL     1      17.873   4.486   2.496  1.00  0.00    -0.264 OA
HETATM   48  H71 UNL     1      20.981   3.835   2.505  1.00  0.00     0.169 HD
BRANCH  46  49
HETATM   49  C40 UNL     1      19.742   5.762   3.190  1.00  0.00     0.176 A 
HETATM   50  N15 UNL     1      21.057   5.850   3.348  1.00  0.00    -0.346 N 
HETATM   51  C41 UNL     1      21.287   7.091   3.882  1.00  0.00     0.107 A 
ATOM     52  H15 UNL     1      21.753   5.140   3.119  1.00  0.00     0.167 HD
HETATM   53  C42 UNL     1      20.108   7.774   4.054  1.00  0.00     0.109 A 
HETATM   54  N16 UNL     1      19.134   6.922   3.612  1.00  0.00    -0.342 N 
HETATM   55  C43 UNL     1      17.718   7.200   3.594  1.00  0.00     0.157 C 
ENDBRANCH  46  49
ENDBRANCH  41  45
ENDBRANCH  36  39
ENDBRANCH  31  35
ENDBRANCH  26  29
ENDBRANCH  20  25
ENDBRANCH  15  18
ENDBRANCH  13  14
ENDBRANCH  12  13
ENDBRANCH  11  12
BRANCH  11  56
HETATM   56  N9  UNL     1       4.350  -2.961   2.570  1.00  0.00     0.092 N 
HETATM   57  H66 UNL     1       5.273  -3.000   3.005  1.00  0.00     0.313 HD
HETATM   58  H67 UNL     1       4.447  -2.234   1.845  1.00  0.00     0.313 HD
ENDBRANCH  11  56
ENDBRANCH   8  11
ENDBRANCH   3   7
BRANCH   1  59
HETATM   59  C20 UNL     1      -2.611  -3.455  -0.584  1.00  0.00     0.274 C 
HETATM   60  N7  UNL     1      -2.286  -4.235  -1.676  1.00  0.00    -0.306 N 
HETATM   61  H64 UNL     1      -1.332  -4.529  -1.802  1.00  0.00     0.170 HD
HETATM   62  O5  UNL     1      -3.728  -3.001  -0.353  1.00  0.00    -0.266 OA
BRANCH  60  63
HETATM   63  C19 UNL     1      -3.171  -4.627  -2.647  1.00  0.00     0.125 A 
HETATM   64  C52 UNL     1      -2.845  -5.389  -3.743  1.00  0.00     0.140 A 
HETATM   65  N21 UNL     1      -4.017  -5.540  -4.435  1.00  0.00    -0.339 N 
HETATM   66  C18 UNL     1      -5.001  -4.874  -3.745  1.00  0.00     0.178 A 
HETATM   67  C53 UNL     1      -4.184  -6.270  -5.668  1.00  0.00     0.157 C 
HETATM   68  N6  UNL     1      -4.496  -4.316  -2.655  1.00  0.00    -0.323 N 
ATOM     69  H6  UNL     1      -4.999  -3.764  -1.961  1.00  0.00     0.169 HD
BRANCH  66  70
HETATM   70  C17 UNL     1      -6.410  -4.757  -4.097  1.00  0.00     0.290 C 
HETATM   71  N5  UNL     1      -7.091  -4.006  -3.158  1.00  0.00    -0.319 N 
HETATM   72  H63 UNL     1      -6.517  -3.662  -2.389  1.00  0.00     0.169 HD
HETATM   73  O4  UNL     1      -6.892  -5.271  -5.103  1.00  0.00    -0.264 OA
BRANCH  71  74
HETATM   74  C16 UNL     1      -8.431  -3.690  -3.164  1.00  0.00     0.053 A 
HETATM   75  C15 UNL     1      -9.086  -2.917  -2.174  1.00  0.00     0.066 A 
HETATM   76  C14 UNL     1     -10.435  -2.807  -2.504  1.00  0.00     0.105 A 
HETATM   77  N22 UNL     1     -10.582  -3.497  -3.697  1.00  0.00    -0.354 N 
HETATM   78  C54 UNL     1      -9.382  -4.036  -4.088  1.00  0.00     0.120 A 
HETATM   79  C55 UNL     1     -11.815  -3.660  -4.440  1.00  0.00     0.156 C 
BRANCH  76  80
HETATM   80  C13 UNL     1     -11.522  -2.117  -1.810  1.00  0.00     0.273 C 
HETATM   81  N4  UNL     1     -11.205  -1.715  -0.525  1.00  0.00    -0.320 N 
HETATM   82  H62 UNL     1     -10.302  -1.959  -0.152  1.00  0.00     0.169 HD
HETATM   83  O3  UNL     1     -12.616  -1.935  -2.337  1.00  0.00    -0.266 OA
BRANCH  81  84
HETATM   84  C12 UNL     1     -12.047  -1.032   0.332  1.00  0.00     0.053 A 
HETATM   85  C11 UNL     1     -13.366  -0.557   0.143  1.00  0.00     0.066 A 
HETATM   86  C10 UNL     1     -13.792   0.074   1.309  1.00  0.00     0.104 A 
HETATM   87  N23 UNL     1     -12.735  -0.031   2.197  1.00  0.00    -0.354 N 
HETATM   88  C56 UNL     1     -11.682  -0.688   1.611  1.00  0.00     0.120 A 
HETATM   89  C57 UNL     1     -12.715   0.479   3.553  1.00  0.00     0.156 C 
BRANCH  86  90
HETATM   90  C9  UNL     1     -15.063   0.715   1.611  1.00  0.00     0.268 C 
HETATM   91  N3  UNL     1     -15.920   0.853   0.542  1.00  0.00    -0.355 N 
HETATM   92  H61 UNL     1     -15.570   0.681  -0.393  1.00  0.00     0.162 HD
HETATM   93  O2  UNL     1     -15.364   1.128   2.728  1.00  0.00    -0.266 OA
BRANCH  91  94
HETATM   94  C8  UNL     1     -17.179   1.563   0.646  1.00  0.00     0.132 C 
BRANCH  94  95
HETATM   95  C7  UNL     1     -17.013   3.076   0.561  1.00  0.00     0.122 C 
BRANCH  95  96
HETATM   96  C6  UNL     1     -16.642   3.531  -0.836  1.00  0.00     0.219 C 
HETATM   97  N2  UNL     1     -16.429   4.891  -0.913  1.00  0.00    -0.361 N 
HETATM   98  H60 UNL     1     -16.837   5.469  -0.181  1.00  0.00     0.162 HD
HETATM   99  O1  UNL     1     -16.545   2.772  -1.795  1.00  0.00    -0.274 OA
BRANCH  97 100
HETATM  100  C5  UNL     1     -16.239   5.564  -2.179  1.00  0.00     0.124 C 
BRANCH 100 101
HETATM  101  C4  UNL     1     -17.561   6.047  -2.776  1.00  0.00     0.050 C 
BRANCH 101 102
HETATM  102  C3  UNL     1     -18.198   7.204  -1.985  1.00  0.00     0.273 C 
BRANCH 102 103
HETATM  103  N1  UNL     1     -18.564   6.869  -0.592  1.00  0.00     0.080 N 
HETATM  104  C1  UNL     1     -18.855   8.099   0.154  1.00  0.00     0.309 C 
HETATM  105  C2  UNL     1     -19.740   5.990  -0.551  1.00  0.00     0.309 C 
ENDBRANCH 102 103
ENDBRANCH 101 102
ENDBRANCH 100 101
ENDBRANCH  97 100
ENDBRANCH  95  96
ENDBRANCH  94  95
ENDBRANCH  91  94
ENDBRANCH  86  90
ENDBRANCH  81  84
ENDBRANCH  76  80
ENDBRANCH  71  74
ENDBRANCH  66  70
ENDBRANCH  60  63
ENDBRANCH   1  59
TORSDOF 27
