REMARK  19 active torsions:
REMARK  status: ('A' for Active; 'I' for Inactive)
REMARK    1  A    between atoms: C6_6  and  S1_53 
REMARK    2  A    between atoms: C8_8  and  S1_53 
REMARK    3  A    between atoms: C12_12  and  C14_14 
REMARK       I    between atoms: C14_14  and  N1_62 
REMARK    4  A    between atoms: C15_15  and  N1_62 
REMARK    5  A    between atoms: C19_19  and  C21_21 
REMARK    6  A    between atoms: C24_24  and  C27_27 
REMARK    7  A    between atoms: C27_27  and  C28_28 
REMARK    8  A    between atoms: C28_28  and  C29_29 
REMARK    9  A    between atoms: C29_29  and  C30_30 
REMARK   10  A    between atoms: C30_30  and  N2_63 
REMARK   11  A    between atoms: C31_31  and  C32_32 
REMARK   12  A    between atoms: C31_31  and  N2_63 
REMARK   13  A    between atoms: C32_32  and  C33_33 
REMARK   14  A    between atoms: C32_32  and  O6_59 
REMARK   15  A    between atoms: C39_39  and  O5_58 
REMARK   16  A    between atoms: C42_42  and  N6_68 
REMARK   17  A    between atoms: C43_43  and  C45_45 
REMARK       I    between atoms: C45_45  and  N5_67 
REMARK   18  A    between atoms: C46_46  and  N6_68 
REMARK   19  A    between atoms: C48_48  and  O8_61 
ROOT
HETATM    1  C14 UNL     1      -3.267   2.629   2.469  1.00  0.00     0.256 C 
HETATM    2  O3  UNL     1      -3.645   3.613   1.843  1.00  0.00    -0.267 OA
HETATM    3  N1  UNL     1      -2.143   1.869   2.193  1.00  0.00    -0.323 N 
HETATM    4  H43 UNL     1      -1.876   1.163   2.864  1.00  0.00     0.169 HD
ENDROOT
BRANCH   1   5
HETATM    5  C12 UNL     1      -4.060   2.211   3.669  1.00  0.00     0.033 A 
HETATM    6  C11 UNL     1      -4.887   3.169   4.278  1.00  0.00     0.017 A 
HETATM    7  C10 UNL     1      -5.639   2.851   5.413  1.00  0.00     0.003 A 
HETATM    8  C9  UNL     1      -5.577   1.568   5.951  1.00  0.00     0.024 A 
HETATM    9  C8  UNL     1      -4.779   0.603   5.332  1.00  0.00     0.065 A 
HETATM   10  C13 UNL     1      -4.023   0.912   4.192  1.00  0.00     0.040 A 
BRANCH   9  11
HETATM   11  S1  UNL     1      -4.649  -1.021   6.051  1.00  0.00     0.206 S 
HETATM   12  O1  UNL     1      -4.971  -0.888   7.461  1.00  0.00    -0.217 OA
HETATM   13  O2  UNL     1      -3.370  -1.571   5.640  1.00  0.00    -0.217 OA
BRANCH  11  14
HETATM   14  C6  UNL     1      -5.915  -2.013   5.301  1.00  0.00     0.065 A 
HETATM   15  C5  UNL     1      -5.754  -2.435   3.985  1.00  0.00     0.040 A 
HETATM   16  C4  UNL     1      -6.745  -3.210   3.342  1.00  0.00     0.020 A 
HETATM   17  C3  UNL     1      -7.885  -3.614   4.077  1.00  0.00     0.050 A 
HETATM   18  C42 UNL     1      -6.635  -3.618   1.982  1.00  0.00     0.062 A 
HETATM   19  C2  UNL     1      -8.018  -3.195   5.411  1.00  0.00    -0.033 A 
HETATM   20  N4  UNL     1      -8.839  -4.389   3.528  1.00  0.00    -0.364 N 
HETATM   21  C1  UNL     1      -9.224  -3.618   6.211  1.00  0.00     0.050 C 
HETATM   22  C7  UNL     1      -7.040  -2.393   6.022  1.00  0.00     0.033 A 
HETATM   23  C44 UNL     1      -8.693  -4.795   2.245  1.00  0.00     0.107 A 
ATOM     24  H4  UNL     1      -9.658  -4.666   4.070  1.00  0.00     0.165 HD
HETATM   25  C43 UNL     1      -7.640  -4.429   1.430  1.00  0.00     0.074 A 
BRANCH  25  26
HETATM   26  C45 UNL     1      -7.566  -4.908   0.031  1.00  0.00     0.253 C 
HETATM   27  O7  UNL     1      -6.487  -5.042  -0.535  1.00  0.00    -0.268 OA
HETATM   28  N5  UNL     1      -8.739  -5.165  -0.625  1.00  0.00    -0.366 N 
HETATM   29  H46 UNL     1      -9.629  -4.796  -0.318  1.00  0.00     0.159 HD
HETATM   30  H47 UNL     1      -8.652  -5.367  -1.614  1.00  0.00     0.159 HD
ENDBRANCH  25  26
BRANCH  18  31
HETATM   31  N6  UNL     1      -5.575  -3.125   1.160  1.00  0.00    -0.355 N 
HETATM   32  H48 UNL     1      -5.402  -3.770   0.374  1.00  0.00     0.166 HD
BRANCH  31  33
HETATM   33  C46 UNL     1      -5.403  -1.788   0.710  1.00  0.00     0.035 A 
HETATM   34  C47 UNL     1      -6.258  -0.738   1.083  1.00  0.00     0.066 A 
HETATM   35  C48 UNL     1      -6.002   0.574   0.679  1.00  0.00     0.070 A 
HETATM   36  C49 UNL     1      -4.885   0.841  -0.113  1.00  0.00     0.037 A 
HETATM   37  C50 UNL     1      -4.020  -0.186  -0.484  1.00  0.00     0.005 A 
HETATM   38  C51 UNL     1      -4.275  -1.492  -0.068  1.00  0.00     0.029 A 
BRANCH  35  39
HETATM   39  O8  UNL     1      -6.759   1.670   0.988  1.00  0.00    -0.356 OA
HETATM   40  C52 UNL     1      -7.813   1.486   1.924  1.00  0.00     0.210 C 
ENDBRANCH  35  39
ENDBRANCH  31  33
ENDBRANCH  18  31
ENDBRANCH  11  14
ENDBRANCH   9  11
ENDBRANCH   1   5
BRANCH   3  41
HETATM   41  C15 UNL     1      -1.283   1.985   1.079  1.00  0.00     0.035 A 
HETATM   42  C16 UNL     1      -1.461   2.902   0.045  1.00  0.00     0.029 A 
HETATM   43  C17 UNL     1      -0.574   2.931  -1.034  1.00  0.00     0.003 A 
HETATM   44  C18 UNL     1       0.497   2.039  -1.088  1.00  0.00     0.012 A 
HETATM   45  C19 UNL     1       0.703   1.105  -0.064  1.00  0.00    -0.024 A 
HETATM   46  C20 UNL     1      -0.200   1.094   1.015  1.00  0.00     0.042 A 
BRANCH  45  47
HETATM   47  C21 UNL     1       1.828   0.159  -0.118  1.00  0.00    -0.026 A 
HETATM   48  C22 UNL     1       2.757   0.078   0.931  1.00  0.00     0.013 A 
HETATM   49  C23 UNL     1       3.826  -0.822   0.881  1.00  0.00     0.008 A 
HETATM   50  C24 UNL     1       4.002  -1.661  -0.226  1.00  0.00    -0.058 A 
HETATM   51  C25 UNL     1       3.071  -1.597  -1.269  1.00  0.00     0.008 A 
HETATM   52  C26 UNL     1       2.003  -0.695  -1.217  1.00  0.00     0.013 A 
BRANCH  50  53
HETATM   53  C27 UNL     1       5.151  -2.636  -0.268  1.00  0.00     0.038 C 
BRANCH  53  54
HETATM   54  C28 UNL     1       6.094  -2.505  -1.472  1.00  0.00     0.006 C 
BRANCH  54  55
HETATM   55  C29 UNL     1       7.086  -1.336  -1.403  1.00  0.00     0.030 C 
BRANCH  55  56
HETATM   56  C30 UNL     1       6.472   0.025  -1.743  1.00  0.00     0.270 C 
BRANCH  56  57
HETATM   57  N2  UNL     1       7.445   1.122  -1.767  1.00  0.00     0.086 N 
HETATM   58  H44 UNL     1       7.944   1.137  -0.877  1.00  0.00     0.315 HD
BRANCH  57  59
HETATM   59  C31 UNL     1       8.434   1.063  -2.859  1.00  0.00     0.306 C 
BRANCH  59  60
HETATM   60  C32 UNL     1       7.852   1.060  -4.297  1.00  0.00     0.180 C 
BRANCH  60  61
HETATM   61  C33 UNL     1       8.877   1.562  -5.306  1.00  0.00    -0.015 A 
HETATM   62  C34 UNL     1       9.001   2.929  -5.639  1.00  0.00     0.003 A 
HETATM   63  C35 UNL     1       8.182   3.998  -5.042  1.00  0.00     0.020 A 
HETATM   64  C38 UNL     1       9.970   3.315  -6.585  1.00  0.00     0.079 A 
HETATM   65  C36 UNL     1       8.338   5.276  -5.413  1.00  0.00     0.075 A 
HETATM   66  C37 UNL     1       9.339   5.671  -6.430  1.00  0.00     0.245 A 
HETATM   67  O4  UNL     1       9.463   6.843  -6.766  1.00  0.00    -0.268 OA
HETATM   68  N3  UNL     1      10.100   4.665  -6.947  1.00  0.00    -0.321 N 
HETATM   69  H45 UNL     1      10.801   4.906  -7.636  1.00  0.00     0.169 HD
HETATM   70  C39 UNL     1      10.817   2.377  -7.178  1.00  0.00     0.093 A 
HETATM   71  C40 UNL     1      10.722   1.036  -6.837  1.00  0.00     0.039 A 
HETATM   72  C41 UNL     1       9.763   0.636  -5.904  1.00  0.00     0.013 A 
BRANCH  70  73
HETATM   73  O5  UNL     1      11.741   2.807  -8.092  1.00  0.00    -0.358 OA
HETATM   74  H41 UNL     1      12.251   2.041  -8.404  1.00  0.00     0.217 HD
ENDBRANCH  70  73
ENDBRANCH  60  61
BRANCH  60  75
HETATM   75  O6  UNL     1       7.440  -0.267  -4.660  1.00  0.00    -0.389 OA
HETATM   76  H42 UNL     1       7.037  -0.191  -5.542  1.00  0.00     0.210 HD
ENDBRANCH  60  75
ENDBRANCH  59  60
ENDBRANCH  57  59
ENDBRANCH  56  57
ENDBRANCH  55  56
ENDBRANCH  54  55
ENDBRANCH  53  54
ENDBRANCH  50  53
ENDBRANCH  45  47
ENDBRANCH   3  41
TORSDOF 19
