REMARK  28 active torsions:
REMARK  status: ('A' for Active; 'I' for Inactive)
REMARK    1  A    between atoms: C2_2  and  C4_4 
REMARK    2  A    between atoms: C6_6  and  N13_74 
REMARK    3  A    between atoms: C7_7  and  N5_65 
REMARK    4  A    between atoms: C9_9  and  C10_10 
REMARK    5  A    between atoms: C9_9  and  N5_65 
REMARK    6  A    between atoms: C15_15  and  C16_16 
REMARK    7  A    between atoms: C23_23  and  N7_68 
REMARK    8  A    between atoms: C25_25  and  C26_26 
REMARK       I    between atoms: C25_25  and  N7_68 
REMARK    9  A    between atoms: C27_27  and  C28_28 
REMARK   10  A    between atoms: C28_28  and  N8_69 
REMARK   11  A    between atoms: C30_30  and  C31_31 
REMARK   12  A    between atoms: C30_30  and  N8_69 
REMARK   13  A    between atoms: C31_31  and  O2_77 
REMARK   14  A    between atoms: C32_32  and  C33_33 
REMARK   15  A    between atoms: C32_32  and  O2_77 
REMARK   16  A    between atoms: C33_33  and  O3_78 
REMARK   17  A    between atoms: C34_34  and  C35_35 
REMARK   18  A    between atoms: C34_34  and  O3_78 
REMARK   19  A    between atoms: C35_35  and  O4_79 
REMARK   20  A    between atoms: C36_36  and  C37_37 
REMARK   21  A    between atoms: C36_36  and  O4_79 
REMARK   22  A    between atoms: C37_37  and  N9_70 
REMARK   23  A    between atoms: C38_38  and  C39_39 
REMARK       I    between atoms: C38_38  and  N9_70 
REMARK   24  A    between atoms: C39_39  and  N10_71 
REMARK   25  A    between atoms: C40_40  and  N10_71 
REMARK   26  A    between atoms: C48_48  and  N11_72 
REMARK   27  A    between atoms: C52_52  and  O9_84 
REMARK   28  A    between atoms: C55_55  and  N14_75 
ROOT
HETATM    1  C25 UNL     1      -2.232   1.724   1.624  1.00  0.00     0.245 C 
HETATM    2  N7  UNL     1      -3.217   0.781   1.432  1.00  0.00    -0.324 N 
HETATM    3  O1  UNL     1      -1.920   2.282   2.668  1.00  0.00    -0.268 OA
HETATM    4  H64 UNL     1      -3.252   0.341   0.523  1.00  0.00     0.169 HD
ENDROOT
BRANCH   1   5
HETATM    5  C26 UNL     1      -1.439   2.009   0.398  1.00  0.00     0.072 C 
HETATM    6  C27 UNL     1      -1.984   2.176  -0.820  1.00  0.00     0.008 C 
BRANCH   6   7
HETATM    7  C28 UNL     1      -1.250   2.509  -2.093  1.00  0.00     0.299 C 
BRANCH   7   8
HETATM    8  N8  UNL     1       0.175   2.826  -1.917  1.00  0.00     0.089 N 
HETATM    9  C29 UNL     1       0.341   4.235  -1.529  1.00  0.00     0.310 C 
BRANCH   8  10
HETATM   10  C30 UNL     1       0.952   2.562  -3.150  1.00  0.00     0.298 C 
BRANCH  10  11
HETATM   11  C31 UNL     1       1.256   1.067  -3.382  1.00  0.00     0.198 C 
BRANCH  11  12
HETATM   12  O2  UNL     1       2.443   0.612  -2.726  1.00  0.00    -0.387 OA
BRANCH  12  13
HETATM   13  C32 UNL     1       2.323   0.561  -1.299  1.00  0.00     0.193 C 
BRANCH  13  14
HETATM   14  C33 UNL     1       3.530  -0.175  -0.709  1.00  0.00     0.193 C 
BRANCH  14  15
HETATM   15  O3  UNL     1       4.686   0.657  -0.560  1.00  0.00    -0.387 OA
BRANCH  15  16
HETATM   16  C34 UNL     1       5.265   1.060  -1.804  1.00  0.00     0.193 C 
BRANCH  16  17
HETATM   17  C35 UNL     1       6.650   1.667  -1.554  1.00  0.00     0.193 C 
BRANCH  17  18
HETATM   18  O4  UNL     1       7.600   0.695  -1.104  1.00  0.00    -0.387 OA
BRANCH  18  19
HETATM   19  C36 UNL     1       8.194  -0.090  -2.138  1.00  0.00     0.187 C 
BRANCH  19  20
HETATM   20  C37 UNL     1       9.284   0.657  -2.921  1.00  0.00     0.148 C 
BRANCH  20  21
HETATM   21  N9  UNL     1      10.301   1.216  -2.052  1.00  0.00    -0.358 N 
HETATM   22  C38 UNL     1      10.245   2.522  -1.606  1.00  0.00     0.230 C 
HETATM   23  O5  UNL     1       9.475   3.368  -2.054  1.00  0.00    -0.272 OA
HETATM   24  H65 UNL     1      10.851   0.586  -1.474  1.00  0.00     0.162 HD
BRANCH  22  25
HETATM   25  C39 UNL     1      11.226   2.828  -0.464  1.00  0.00     0.195 C 
BRANCH  25  26
HETATM   26  N10 UNL     1      12.322   1.837  -0.431  1.00  0.00    -0.283 NA
HETATM   27  H66 UNL     1      12.730   1.711  -1.367  1.00  0.00     0.128 HD
BRANCH  26  28
HETATM   28  C40 UNL     1      13.325   1.982   0.532  1.00  0.00     0.025 A 
HETATM   29  C41 UNL     1      13.082   2.440   1.838  1.00  0.00     0.024 A 
HETATM   30  C42 UNL     1      14.099   2.479   2.820  1.00  0.00     0.003 A 
HETATM   31  C43 UNL     1      15.389   2.036   2.533  1.00  0.00     0.018 A 
HETATM   32  C44 UNL     1      15.615   1.563   1.258  1.00  0.00     0.050 A 
HETATM   33  C45 UNL     1      14.619   1.531   0.296  1.00  0.00     0.069 A 
HETATM   34  C47 UNL     1      16.829   1.013   0.662  1.00  0.00     0.262 A 
HETATM   35  C46 UNL     1      15.217   0.971  -0.919  1.00  0.00     0.264 A 
HETATM   36  N11 UNL     1      16.535   0.729  -0.643  1.00  0.00    -0.271 N 
HETATM   37  O6  UNL     1      14.609   0.776  -1.956  1.00  0.00    -0.267 OA
HETATM   38  O7  UNL     1      17.874   0.850   1.263  1.00  0.00    -0.267 OA
BRANCH  36  39
HETATM   39  C48 UNL     1      17.470   0.059  -1.542  1.00  0.00     0.145 C 
HETATM   40  C49 UNL     1      17.643   0.789  -2.877  1.00  0.00     0.039 C 
HETATM   41  C50 UNL     1      18.680   0.075  -3.735  1.00  0.00     0.105 C 
HETATM   42  C51 UNL     1      18.446  -1.419  -3.851  1.00  0.00     0.219 C 
HETATM   43  N12 UNL     1      17.938  -2.054  -2.751  1.00  0.00    -0.333 N 
HETATM   44  O8  UNL     1      18.797  -2.064  -4.834  1.00  0.00    -0.274 OA
HETATM   45  C52 UNL     1      17.047  -1.394  -1.844  1.00  0.00     0.243 C 
HETATM   46  H67 UNL     1      17.752  -3.036  -2.916  1.00  0.00     0.165 HD
BRANCH  45  47
HETATM   47  O9  UNL     1      17.051  -2.189  -0.676  1.00  0.00    -0.375 OA
HETATM   48  H70 UNL     1      17.981  -2.254  -0.397  1.00  0.00     0.212 HD
ENDBRANCH  45  47
ENDBRANCH  36  39
ENDBRANCH  26  28
ENDBRANCH  25  26
ENDBRANCH  22  25
ENDBRANCH  20  21
ENDBRANCH  19  20
ENDBRANCH  18  19
ENDBRANCH  17  18
ENDBRANCH  16  17
ENDBRANCH  15  16
ENDBRANCH  14  15
ENDBRANCH  13  14
ENDBRANCH  12  13
ENDBRANCH  11  12
ENDBRANCH  10  11
ENDBRANCH   8  10
ENDBRANCH   7   8
ENDBRANCH   6   7
ENDBRANCH   1   5
BRANCH   2  49
HETATM   49  C23 UNL     1      -4.152   0.313   2.379  1.00  0.00     0.035 A 
HETATM   50  C22 UNL     1      -5.019  -0.702   1.971  1.00  0.00     0.030 A 
HETATM   51  C21 UNL     1      -5.979  -1.213   2.849  1.00  0.00     0.017 A 
HETATM   52  C20 UNL     1      -6.110  -0.711   4.163  1.00  0.00     0.002 A 
HETATM   53  C16 UNL     1      -7.067  -1.155   5.106  1.00  0.00     0.054 A 
HETATM   54  C19 UNL     1      -5.235   0.317   4.570  1.00  0.00    -0.020 A 
HETATM   55  N6  UNL     1      -7.180  -0.641   6.358  1.00  0.00    -0.364 N 
HETATM   56  C17 UNL     1      -6.319   0.333   6.707  1.00  0.00     0.089 A 
ATOM     57  H6  UNL     1      -7.889  -0.980   7.008  1.00  0.00     0.165 HD
HETATM   58  C18 UNL     1      -5.346   0.837   5.863  1.00  0.00     0.029 A 
HETATM   59  C24 UNL     1      -4.266   0.814   3.677  1.00  0.00     0.042 A 
BRANCH  53  60
HETATM   60  C15 UNL     1      -8.047  -2.214   4.813  1.00  0.00    -0.001 A 
HETATM   61  C10 UNL     1      -9.350  -1.927   4.344  1.00  0.00    -0.027 A 
HETATM   62  C11 UNL     1     -10.226  -2.992   4.058  1.00  0.00     0.010 A 
HETATM   63  C12 UNL     1      -9.834  -4.316   4.249  1.00  0.00     0.001 A 
HETATM   64  C13 UNL     1      -8.562  -4.600   4.730  1.00  0.00     0.001 A 
HETATM   65  C14 UNL     1      -7.677  -3.558   5.011  1.00  0.00     0.014 A 
BRANCH  61  66
HETATM   66  C9  UNL     1      -9.826  -0.510   4.105  1.00  0.00     0.177 C 
BRANCH  66  67
HETATM   67  N5  UNL     1      -9.513  -0.091   2.755  1.00  0.00    -0.220 N 
HETATM   68  H63 UNL     1      -8.517  -0.029   2.549  1.00  0.00     0.178 HD
BRANCH  67  69
HETATM   69  C7  UNL     1     -10.280  -0.464   1.668  1.00  0.00     0.716 A 
HETATM   70  N2  UNL     1     -11.546  -0.756   1.731  1.00  0.00    -0.021 N 
HETATM   71  C6  UNL     1     -12.231  -1.124   0.582  1.00  0.00     0.696 A 
ATOM     72  H2  UNL     1     -12.035  -0.714   2.625  1.00  0.00     0.203 HD
HETATM   73  N1  UNL     1     -11.663  -1.200  -0.598  1.00  0.00    -0.173 N 
HETATM   74  C5  UNL     1     -10.344  -0.905  -0.693  1.00  0.00     0.168 A 
ATOM     75  H1  UNL     1     -12.199  -1.474  -1.421  1.00  0.00     0.186 HD
HETATM   76  C4  UNL     1      -9.430  -0.883  -1.728  1.00  0.00     0.009 A 
HETATM   77  N3  UNL     1      -9.652  -0.538   0.421  1.00  0.00    -0.069 N 
HETATM   78  C8  UNL     1      -8.213  -0.497  -1.103  1.00  0.00     0.119 A 
HETATM   79  N4  UNL     1      -8.334  -0.296   0.214  1.00  0.00    -0.289 N 
ATOM     80  H4  UNL     1      -7.618  -0.029   0.890  1.00  0.00     0.187 HD
BRANCH  71  81
HETATM   81  N13 UNL     1     -13.576  -1.427   0.723  1.00  0.00    -0.217 N 
HETATM   82  C53 UNL     1     -14.260  -1.131   1.986  1.00  0.00     0.143 C 
HETATM   83  C54 UNL     1     -15.739  -1.519   1.953  1.00  0.00     0.055 C 
HETATM   84  C55 UNL     1     -15.899  -2.870   1.264  1.00  0.00     0.221 C 
HETATM   85  C56 UNL     1     -15.395  -2.816  -0.184  1.00  0.00     0.055 C 
HETATM   86  C57 UNL     1     -14.422  -1.662  -0.440  1.00  0.00     0.143 C 
BRANCH  84  87
HETATM   87  N14 UNL     1     -17.291  -3.324   1.326  1.00  0.00     0.083 N 
HETATM   88  H68 UNL     1     -17.895  -2.677   0.819  1.00  0.00     0.313 HD
HETATM   89  H69 UNL     1     -17.378  -4.223   0.852  1.00  0.00     0.313 HD
ENDBRANCH  84  87
ENDBRANCH  71  81
BRANCH  76  90
HETATM   90  C2  UNL     1      -9.645  -1.194  -3.178  1.00  0.00     0.016 C 
HETATM   91  C1  UNL     1     -10.641  -0.232  -3.828  1.00  0.00     0.015 C 
HETATM   92  C3  UNL     1     -10.079  -2.645  -3.394  1.00  0.00     0.015 C 
ENDBRANCH  76  90
ENDBRANCH  67  69
ENDBRANCH  66  67
ENDBRANCH  61  66
ENDBRANCH  53  60
ENDBRANCH   2  49
TORSDOF 28
