REMARK  0 active torsions:
REMARK  status: ('A' for Active; 'I' for Inactive)
REMARK       I    between atoms: C2_2  and  N1_54 
REMARK       I    between atoms: C3_3  and  C4_4 
REMARK       I    between atoms: C3_3  and  N1_54 
REMARK       I    between atoms: C4_4  and  C5_5 
REMARK       I    between atoms: C5_5  and  C6_6 
REMARK       I    between atoms: C6_6  and  C7_7 
REMARK       I    between atoms: C7_7  and  C8_8 
REMARK       I    between atoms: C7_7  and  N2_55 
REMARK       I    between atoms: C8_8  and  O3_47 
REMARK       I    between atoms: C9_9  and  C10_10 
REMARK       I    between atoms: C9_9  and  N2_55 
REMARK       I    between atoms: C10_10  and  C11_11 
REMARK       I    between atoms: C11_11  and  C12_12 
REMARK       I    between atoms: C12_12  and  C13_13 
REMARK       I    between atoms: C13_13  and  C14_14 
REMARK       I    between atoms: C14_14  and  N3_56 
REMARK       I    between atoms: C15_15  and  C16_16 
REMARK       I    between atoms: C15_15  and  N3_56 
REMARK       I    between atoms: C16_16  and  C17_17 
REMARK       I    between atoms: C17_17  and  C18_18 
REMARK       I    between atoms: C18_18  and  C19_19 
REMARK       I    between atoms: C19_19  and  C20_20 
REMARK       I    between atoms: C20_20  and  N4_57 
REMARK       I    between atoms: C21_21  and  C22_22 
REMARK       I    between atoms: C21_21  and  N4_57 
REMARK       I    between atoms: C22_22  and  C23_23 
REMARK       I    between atoms: C23_23  and  C24_24 
REMARK       I    between atoms: C24_24  and  C25_25 
REMARK       I    between atoms: C25_25  and  C26_26 
REMARK       I    between atoms: C26_26  and  N5_58 
REMARK       I    between atoms: C27_27  and  C28_28 
REMARK       I    between atoms: C27_27  and  N5_58 
REMARK       I    between atoms: C28_28  and  C29_29 
REMARK       I    between atoms: C29_29  and  C30_30 
REMARK       I    between atoms: C30_30  and  C31_31 
REMARK       I    between atoms: C31_31  and  C32_32 
REMARK       I    between atoms: C32_32  and  N6_59 
REMARK       I    between atoms: C33_33  and  C34_34 
REMARK       I    between atoms: C33_33  and  N6_59 
REMARK       I    between atoms: C34_34  and  C35_35 
REMARK       I    between atoms: C35_35  and  C36_36 
REMARK       I    between atoms: C36_36  and  C37_37 
REMARK       I    between atoms: C37_37  and  C38_38 
REMARK       I    between atoms: C38_38  and  N7_60 
REMARK       I    between atoms: C39_39  and  C40_40 
REMARK       I    between atoms: C39_39  and  N7_60 
REMARK       I    between atoms: C40_40  and  C41_41 
REMARK       I    between atoms: C41_41  and  C42_42 
REMARK       I    between atoms: C42_42  and  C43_43 
REMARK       I    between atoms: C43_43  and  C44_44 
REMARK       I    between atoms: C44_44  and  N8_61 
ROOT
HETATM    1  C1  UNL     1     -16.949   1.925  -4.987  1.00  0.00     0.117 C 
HETATM    2  C2  UNL     1     -15.590   2.391  -5.439  1.00  0.00     0.213 C 
HETATM    3  C3  UNL     1     -13.661   1.802  -6.897  1.00  0.00     0.122 C 
HETATM    4  C4  UNL     1     -12.685   0.630  -6.759  1.00  0.00     0.020 C 
HETATM    5  C5  UNL     1     -12.241   0.364  -5.315  1.00  0.00     0.004 C 
HETATM    6  C6  UNL     1     -11.241   1.409  -4.787  1.00  0.00     0.036 C 
HETATM    7  C7  UNL     1     -11.469   1.798  -3.317  1.00  0.00     0.182 C 
HETATM    8  C8  UNL     1     -12.821   2.498  -3.173  1.00  0.00     0.163 C 
HETATM    9  C9  UNL     1     -10.262   0.044  -2.037  1.00  0.00     0.218 C 
HETATM   10  C10 UNL     1     -10.473  -1.102  -1.065  1.00  0.00     0.103 C 
HETATM   11  C11 UNL     1      -9.176  -1.628  -0.450  1.00  0.00     0.009 C 
HETATM   12  C12 UNL     1      -8.483  -0.664   0.521  1.00  0.00     0.002 C 
HETATM   13  C13 UNL     1      -9.308  -0.236   1.742  1.00  0.00     0.020 C 
HETATM   14  C14 UNL     1      -9.792  -1.386   2.625  1.00  0.00     0.122 C 
HETATM   15  C15 UNL     1      -7.988  -1.774   4.269  1.00  0.00     0.217 C 
HETATM   16  C16 UNL     1      -6.831  -2.703   4.588  1.00  0.00     0.103 C 
HETATM   17  C17 UNL     1      -5.944  -2.208   5.730  1.00  0.00     0.009 C 
HETATM   18  C18 UNL     1      -5.078  -1.011   5.324  1.00  0.00     0.002 C 
HETATM   19  C19 UNL     1      -4.165  -0.575   6.474  1.00  0.00     0.020 C 
HETATM   20  C20 UNL     1      -3.368   0.687   6.145  1.00  0.00     0.122 C 
HETATM   21  C21 UNL     1      -1.235  -0.106   5.184  1.00  0.00     0.217 C 
HETATM   22  C22 UNL     1      -0.446  -0.243   3.899  1.00  0.00     0.103 C 
HETATM   23  C23 UNL     1      -0.025   1.096   3.296  1.00  0.00     0.009 C 
HETATM   24  C24 UNL     1       0.821   1.986   4.214  1.00  0.00     0.002 C 
HETATM   25  C25 UNL     1       2.098   1.354   4.772  1.00  0.00     0.020 C 
HETATM   26  C26 UNL     1       3.065   0.873   3.693  1.00  0.00     0.122 C 
HETATM   27  C27 UNL     1       5.353   1.217   4.555  1.00  0.00     0.217 C 
HETATM   28  C28 UNL     1       6.491   0.510   5.270  1.00  0.00     0.103 C 
HETATM   29  C29 UNL     1       7.771   1.341   5.359  1.00  0.00     0.009 C 
HETATM   30  C30 UNL     1       8.486   1.573   4.021  1.00  0.00     0.002 C 
HETATM   31  C31 UNL     1       8.923   0.312   3.269  1.00  0.00     0.020 C 
HETATM   32  C32 UNL     1       9.893  -0.562   4.062  1.00  0.00     0.122 C 
HETATM   33  C33 UNL     1      11.379  -1.598   2.382  1.00  0.00     0.217 C 
HETATM   34  C34 UNL     1      11.642  -2.892   1.633  1.00  0.00     0.103 C 
HETATM   35  C35 UNL     1      12.510  -2.727   0.383  1.00  0.00     0.009 C 
HETATM   36  C36 UNL     1      11.711  -2.424  -0.891  1.00  0.00     0.002 C 
HETATM   37  C37 UNL     1      11.028  -1.054  -0.949  1.00  0.00     0.020 C 
HETATM   38  C38 UNL     1      11.988   0.137  -1.004  1.00  0.00     0.122 C 
HETATM   39  C39 UNL     1      12.409   0.473  -3.422  1.00  0.00     0.217 C 
HETATM   40  C40 UNL     1      13.492   0.356  -4.481  1.00  0.00     0.103 C 
HETATM   41  C41 UNL     1      12.974   0.551  -5.906  1.00  0.00     0.009 C 
HETATM   42  C42 UNL     1      12.198  -0.670  -6.412  1.00  0.00     0.002 C 
HETATM   43  C43 UNL     1      11.553  -0.456  -7.785  1.00  0.00     0.030 C 
HETATM   44  C44 UNL     1      12.568  -0.231  -8.905  1.00  0.00     0.267 C 
HETATM   45  O1  UNL     1     -15.119   3.463  -5.067  1.00  0.00    -0.274 OA
HETATM   46  O2  UNL     1     -13.794   2.037  -2.589  1.00  0.00    -0.648 OA
HETATM   47  O3  UNL     1     -12.869   3.666  -3.843  1.00  0.00    -0.775 OA
HETATM   48  O4  UNL     1      -9.166   0.384  -2.466  1.00  0.00    -0.274 OA
HETATM   49  O5  UNL     1      -8.272  -0.782   4.930  1.00  0.00    -0.274 OA
HETATM   50  O6  UNL     1      -0.803  -0.518   6.256  1.00  0.00    -0.274 OA
HETATM   51  O7  UNL     1       5.361   2.410   4.275  1.00  0.00    -0.274 OA
HETATM   52  O8  UNL     1      12.043  -0.580   2.231  1.00  0.00    -0.274 OA
HETATM   53  O9  UNL     1      11.271   0.865  -3.653  1.00  0.00    -0.274 OA
HETATM   54  N1  UNL     1     -14.943   1.512  -6.278  1.00  0.00    -0.361 N 
HETATM   55  N2  UNL     1     -11.436   0.644  -2.421  1.00  0.00    -0.347 N 
HETATM   56  N3  UNL     1      -8.700  -2.175   3.157  1.00  0.00    -0.361 N 
HETATM   57  N4  UNL     1      -2.458   0.504   5.033  1.00  0.00    -0.361 N 
HETATM   58  N5  UNL     1       4.295   0.377   4.275  1.00  0.00    -0.361 N 
HETATM   59  N6  UNL     1      10.340  -1.700   3.283  1.00  0.00    -0.361 N 
HETATM   60  N7  UNL     1      12.851   0.110  -2.169  1.00  0.00    -0.361 N 
HETATM   61  N8  UNL     1      11.889  -0.155 -10.194  1.00  0.00     0.078 N 
HETATM   62  H73 UNL     1     -13.831   3.845  -4.012  1.00  0.00     0.167 HD
HETATM   63  H74 UNL     1     -15.460   0.717  -6.632  1.00  0.00     0.162 HD
HETATM   64  H75 UNL     1     -12.315   0.377  -1.986  1.00  0.00     0.163 HD
HETATM   65  H76 UNL     1      -8.348  -2.945   2.602  1.00  0.00     0.162 HD
HETATM   66  H77 UNL     1      -2.791   0.725   4.104  1.00  0.00     0.162 HD
HETATM   67  H78 UNL     1       4.286  -0.548   4.686  1.00  0.00     0.162 HD
HETATM   68  H79 UNL     1       9.775  -2.538   3.290  1.00  0.00     0.162 HD
HETATM   69  H80 UNL     1      13.796  -0.230  -2.052  1.00  0.00     0.162 HD
HETATM   70  H81 UNL     1      12.566   0.076 -10.920  1.00  0.00     0.312 HD
HETATM   71  H82 UNL     1      11.214   0.609 -10.180  1.00  0.00     0.312 HD
ENDROOT
TORSDOF 44
