REMARK  0 active torsions:
REMARK  status: ('A' for Active; 'I' for Inactive)
REMARK       I    between atoms: C2_2  and  C3_3 
REMARK       I    between atoms: C3_3  and  C5_5 
REMARK       I    between atoms: C5_5  and  C6_6 
REMARK       I    between atoms: C5_5  and  N3_81 
REMARK       I    between atoms: C6_6  and  C7_7 
REMARK       I    between atoms: C6_6  and  O6_70 
REMARK       I    between atoms: C7_7  and  C8_8 
REMARK       I    between atoms: C8_8  and  N1_79 
REMARK       I    between atoms: C12_12  and  C13_13 
REMARK       I    between atoms: C13_13  and  C14_14 
REMARK       I    between atoms: C13_13  and  O5_69 
REMARK       I    between atoms: C14_14  and  C16_16 
REMARK       I    between atoms: C16_16  and  N2_80 
REMARK       I    between atoms: C17_17  and  C18_18 
REMARK       I    between atoms: C17_17  and  C25_25 
REMARK       I    between atoms: C17_17  and  N2_80 
REMARK       I    between atoms: C18_18  and  C19_19 
REMARK       I    between atoms: C25_25  and  O4_68 
REMARK       I    between atoms: C30_30  and  C31_31 
REMARK       I    between atoms: C30_30  and  N3_81 
REMARK       I    between atoms: C31_31  and  C32_32 
REMARK       I    between atoms: C31_31  and  N4_82 
REMARK       I    between atoms: C35_35  and  C36_36 
REMARK       I    between atoms: C35_35  and  N4_82 
REMARK       I    between atoms: C36_36  and  C37_37 
REMARK       I    between atoms: C36_36  and  N5_83 
REMARK       I    between atoms: C41_41  and  C42_42 
REMARK       I    between atoms: C41_41  and  N5_83 
REMARK       I    between atoms: C42_42  and  N6_84 
REMARK       I    between atoms: C44_44  and  C45_45 
REMARK       I    between atoms: C44_44  and  N6_84 
REMARK       I    between atoms: C45_45  and  C46_46 
REMARK       I    between atoms: C45_45  and  N9_87 
REMARK       I    between atoms: C46_46  and  C47_47 
REMARK       I    between atoms: C47_47  and  C48_48 
REMARK       I    between atoms: C48_48  and  N7_85 
REMARK       I    between atoms: C49_49  and  N7_85 
REMARK       I    between atoms: C49_49  and  N8_86 
REMARK       I    between atoms: C50_50  and  C51_51 
REMARK       I    between atoms: C50_50  and  N9_87 
REMARK       I    between atoms: C51_51  and  C52_52 
REMARK       I    between atoms: C51_51  and  N10_88 
REMARK       I    between atoms: C55_55  and  C56_56 
REMARK       I    between atoms: C55_55  and  N10_88 
REMARK       I    between atoms: C56_56  and  C57_57 
REMARK       I    between atoms: C57_57  and  C58_58 
REMARK       I    between atoms: C58_58  and  C59_59 
REMARK       I    between atoms: C59_59  and  C60_60 
REMARK       I    between atoms: C60_60  and  N11_89 
ROOT
HETATM    1  C1  UNL     1      -8.424  -3.930  -4.486  1.00  0.00     0.005 C 
HETATM    2  C2  UNL     1      -6.992  -4.037  -3.973  1.00  0.00     0.002 C 
HETATM    3  C3  UNL     1      -6.194  -2.718  -4.034  1.00  0.00     0.006 C 
HETATM    4  C4  UNL     1      -6.370  -1.964  -5.365  1.00  0.00     0.012 C 
HETATM    5  C5  UNL     1      -4.672  -2.766  -3.622  1.00  0.00     0.119 C 
HETATM    6  C6  UNL     1      -4.270  -3.489  -2.280  1.00  0.00     0.152 C 
HETATM    7  C7  UNL     1      -4.455  -2.674  -0.988  1.00  0.00     0.137 C 
HETATM    8  C8  UNL     1      -5.713  -1.839  -0.915  1.00  0.00     0.222 C 
HETATM    9  C9  UNL     1      -6.952  -3.718   0.228  1.00  0.00     0.126 C 
HETATM   10  C10 UNL     1      -8.407  -3.841   0.656  1.00  0.00     0.022 C 
HETATM   11  C11 UNL     1      -9.096  -2.792  -0.206  1.00  0.00     0.029 C 
HETATM   12  C12 UNL     1      -8.091  -1.629  -0.204  1.00  0.00     0.117 C 
HETATM   13  C13 UNL     1      -8.227  -0.701   1.052  1.00  0.00     0.156 C 
HETATM   14  C14 UNL     1      -7.305   0.539   0.990  1.00  0.00     0.105 C 
HETATM   15  C15 UNL     1      -7.703   1.574  -0.066  1.00  0.00     0.022 C 
HETATM   16  C16 UNL     1      -7.192   1.180   2.369  1.00  0.00     0.224 C 
HETATM   17  C17 UNL     1      -8.338   2.530   4.114  1.00  0.00     0.188 C 
HETATM   18  C18 UNL     1      -7.649   3.905   4.132  1.00  0.00     0.074 C 
HETATM   19  C19 UNL     1      -8.270   4.936   3.216  1.00  0.00    -0.056 A 
HETATM   20  C20 UNL     1      -7.852   5.041   1.883  1.00  0.00     0.007 A 
HETATM   21  C21 UNL     1      -8.437   5.975   1.027  1.00  0.00     0.001 A 
HETATM   22  C22 UNL     1      -9.443   6.817   1.497  1.00  0.00     0.000 A 
HETATM   23  C23 UNL     1      -9.861   6.728   2.823  1.00  0.00     0.001 A 
HETATM   24  C24 UNL     1      -9.277   5.794   3.680  1.00  0.00     0.007 A 
HETATM   25  C25 UNL     1      -9.794   2.596   4.587  1.00  0.00     0.281 C 
HETATM   26  C26 UNL     1     -11.202   3.188   6.363  1.00  0.00     0.213 C 
HETATM   27  C27 UNL     1     -10.261  -0.741   2.318  1.00  0.00     0.202 C 
HETATM   28  C28 UNL     1      -4.038  -5.755  -1.566  1.00  0.00     0.202 C 
HETATM   29  C29 UNL     1      -4.004  -4.479  -5.379  1.00  0.00     0.153 C 
HETATM   30  C30 UNL     1      -2.425  -2.725  -4.832  1.00  0.00     0.243 C 
HETATM   31  C31 UNL     1      -2.021  -1.420  -4.092  1.00  0.00     0.180 C 
HETATM   32  C32 UNL     1      -2.435  -0.167  -4.895  1.00  0.00     0.009 C 
HETATM   33  C33 UNL     1      -1.690  -0.012  -6.224  1.00  0.00     0.012 C 
HETATM   34  C34 UNL     1      -2.258   1.098  -4.049  1.00  0.00     0.012 C 
HETATM   35  C35 UNL     1      -0.106  -2.105  -2.705  1.00  0.00     0.252 C 
HETATM   36  C36 UNL     1       1.437  -2.347  -2.715  1.00  0.00     0.317 C 
HETATM   37  C37 UNL     1       1.627  -3.785  -3.301  1.00  0.00     0.020 C 
HETATM   38  C38 UNL     1       2.970  -3.993  -4.007  1.00  0.00     0.012 C 
HETATM   39  C39 UNL     1       1.358  -4.907  -2.292  1.00  0.00     0.012 C 
HETATM   40  C40 UNL     1       3.458  -2.289  -1.319  1.00  0.00     0.311 C 
HETATM   41  C41 UNL     1       1.759  -0.604  -1.000  1.00  0.00     0.297 C 
HETATM   42  C42 UNL     1       1.522  -0.355   0.520  1.00  0.00     0.108 C 
HETATM   43  C43 UNL     1       0.390  -1.213   1.082  1.00  0.00     0.034 C 
HETATM   44  C44 UNL     1       3.729   0.406   1.351  1.00  0.00     0.240 C 
HETATM   45  C45 UNL     1       4.982  -0.023   2.144  1.00  0.00     0.176 C 
HETATM   46  C46 UNL     1       4.666  -0.097   3.645  1.00  0.00     0.036 C 
HETATM   47  C47 UNL     1       5.705  -0.848   4.487  1.00  0.00     0.022 C 
HETATM   48  C48 UNL     1       5.893  -2.325   4.134  1.00  0.00     0.124 C 
HETATM   49  C49 UNL     1       3.755  -3.387   3.531  1.00  0.00     0.291 C 
HETATM   50  C50 UNL     1       7.350   0.630   1.728  1.00  0.00     0.241 C 
HETATM   51  C51 UNL     1       8.268   1.778   1.254  1.00  0.00     0.180 C 
HETATM   52  C52 UNL     1       8.261   1.991  -0.278  1.00  0.00     0.009 C 
HETATM   53  C53 UNL     1       8.591   0.716  -1.063  1.00  0.00     0.012 C 
HETATM   54  C54 UNL     1       6.947   2.588  -0.785  1.00  0.00     0.012 C 
HETATM   55  C55 UNL     1      10.564   2.420   1.969  1.00  0.00     0.218 C 
HETATM   56  C56 UNL     1      11.875   1.843   2.471  1.00  0.00     0.103 C 
HETATM   57  C57 UNL     1      12.989   2.885   2.576  1.00  0.00     0.009 C 
HETATM   58  C58 UNL     1      13.541   3.283   1.203  1.00  0.00     0.002 C 
HETATM   59  C59 UNL     1      14.671   4.311   1.286  1.00  0.00     0.020 C 
HETATM   60  C60 UNL     1      14.192   5.696   1.726  1.00  0.00     0.135 C 
HETATM   61  C61 UNL     1      16.132   6.850   2.766  1.00  0.00     0.250 A 
HETATM   62  C62 UNL     1      17.114   7.850   2.335  1.00  0.00     0.080 A 
HETATM   63  C63 UNL     1      16.838   8.171   1.070  1.00  0.00     0.080 A 
HETATM   64  C64 UNL     1      15.671   7.385   0.655  1.00  0.00     0.250 A 
HETATM   65  O1  UNL     1      -5.733  -0.730  -1.453  1.00  0.00    -0.273 OA
HETATM   66  O2  UNL     1      -6.188   1.040   3.066  1.00  0.00    -0.273 OA
HETATM   67  O3  UNL     1     -10.754   2.193   3.938  1.00  0.00    -0.263 OA
HETATM   68  O4  UNL     1      -9.872   3.113   5.847  1.00  0.00    -0.325 OA
HETATM   69  O5  UNL     1      -9.594  -0.253   1.157  1.00  0.00    -0.388 OA
HETATM   70  O6  UNL     1      -4.882  -4.781  -2.173  1.00  0.00    -0.388 OA
HETATM   71  O7  UNL     1      -1.581  -3.287  -5.544  1.00  0.00    -0.271 OA
HETATM   72  O8  UNL     1      -0.851  -2.435  -1.784  1.00  0.00    -0.271 OA
HETATM   73  O9  UNL     1       3.652   1.504   0.796  1.00  0.00    -0.271 OA
HETATM   74  O10 UNL     1       3.679  -2.905   2.410  1.00  0.00    -0.254 OA
HETATM   75  O11 UNL     1       7.787  -0.498   1.960  1.00  0.00    -0.271 OA
HETATM   76  O12 UNL     1      10.363   3.618   1.801  1.00  0.00    -0.274 OA
HETATM   77  O13 UNL     1      16.146   6.319   3.862  1.00  0.00    -0.268 OA
HETATM   78  O14 UNL     1      15.201   7.417  -0.467  1.00  0.00    -0.268 OA
HETATM   79  N1  UNL     1      -6.806  -2.347  -0.248  1.00  0.00    -0.345 N 
HETATM   80  N2  UNL     1      -8.282   1.887   2.799  1.00  0.00    -0.347 N 
HETATM   81  N3  UNL     1      -3.740  -3.203  -4.722  1.00  0.00    -0.347 N 
HETATM   82  N4  UNL     1      -0.578  -1.488  -3.855  1.00  0.00    -0.346 N 
HETATM   83  N5  UNL     1       2.018  -2.025  -1.374  1.00  0.00     0.100 N 
HETATM   84  N6  UNL     1       2.720  -0.528   1.328  1.00  0.00    -0.353 N 
HETATM   85  N7  UNL     1       4.726  -3.131   4.451  1.00  0.00    -0.348 N 
HETATM   86  N8  UNL     1       2.821  -4.251   3.998  1.00  0.00    -0.254 NA
HETATM   87  N9  UNL     1       6.026   0.961   1.862  1.00  0.00    -0.346 N 
HETATM   88  N10 UNL     1       9.612   1.460   1.736  1.00  0.00    -0.347 N 
HETATM   89  N11 UNL     1      15.282   6.653   1.728  1.00  0.00    -0.281 N 
HETATM   90  H98 UNL     1      -9.138   1.870   2.247  1.00  0.00     0.163 HD
HETATM   91  H99 UNL     1      -0.026  -1.654  -4.690  1.00  0.00     0.163 HD
HETATM   92  HA0 UNL     1       2.963  -1.486   1.598  1.00  0.00     0.163 HD
HETATM   93  HA1 UNL     1       4.858  -3.867   5.130  1.00  0.00     0.163 HD
HETATM   94  HA2 UNL     1       2.562  -4.140   4.968  1.00  0.00     0.128 HD
HETATM   95  HA3 UNL     1       2.031  -4.354   3.372  1.00  0.00     0.128 HD
HETATM   96  HA4 UNL     1       5.693   1.870   1.552  1.00  0.00     0.163 HD
HETATM   97  HA5 UNL     1       9.808   0.480   1.918  1.00  0.00     0.163 HD
ENDROOT
TORSDOF 40
