REMARK  0 active torsions:
REMARK  status: ('A' for Active; 'I' for Inactive)
REMARK       I    between atoms: C2_2  and  O1_69 
REMARK       I    between atoms: C3_3  and  C14_14 
REMARK       I    between atoms: C5_5  and  N1_83 
REMARK       I    between atoms: C8_8  and  C9_9 
REMARK       I    between atoms: C8_8  and  N1_83 
REMARK       I    between atoms: C9_9  and  C10_10 
REMARK       I    between atoms: C9_9  and  N5_88 
REMARK       I    between atoms: C10_10  and  C11_11 
REMARK       I    between atoms: C11_11  and  C12_12 
REMARK       I    between atoms: C12_12  and  N2_84 
REMARK       I    between atoms: C13_13  and  N2_84 
REMARK       I    between atoms: C13_13  and  N3_85 
REMARK       I    between atoms: C13_13  and  N4_87 
REMARK       I    between atoms: C14_14  and  N6_89 
REMARK       I    between atoms: C15_15  and  C16_16 
REMARK       I    between atoms: C15_15  and  C20_20 
REMARK       I    between atoms: C15_15  and  N6_89 
REMARK       I    between atoms: C16_16  and  C17_17 
REMARK       I    between atoms: C17_17  and  C18_18 
REMARK       I    between atoms: C18_18  and  N7_90 
REMARK       I    between atoms: C19_19  and  N7_90 
REMARK       I    between atoms: C19_19  and  N8_91 
REMARK       I    between atoms: C19_19  and  N9_93 
REMARK       I    between atoms: C20_20  and  N10_94 
REMARK       I    between atoms: C21_21  and  N10_94 
REMARK       I    between atoms: C23_23  and  C28_28 
REMARK       I    between atoms: C24_24  and  O5_73 
REMARK       I    between atoms: C28_28  and  N11_95 
REMARK       I    between atoms: C29_29  and  C30_30 
REMARK       I    between atoms: C29_29  and  C34_34 
REMARK       I    between atoms: C29_29  and  N11_95 
REMARK       I    between atoms: C30_30  and  C31_31 
REMARK       I    between atoms: C31_31  and  C32_32 
REMARK       I    between atoms: C32_32  and  N12_96 
REMARK       I    between atoms: C33_33  and  N12_96 
REMARK       I    between atoms: C33_33  and  N13_97 
REMARK       I    between atoms: C33_33  and  N14_99 
REMARK       I    between atoms: C34_34  and  N15_100 
REMARK       I    between atoms: C35_35  and  N15_100 
REMARK       I    between atoms: C37_37  and  C42_42 
REMARK       I    between atoms: C38_38  and  O8_76 
REMARK       I    between atoms: C42_42  and  N16_101 
REMARK       I    between atoms: C43_43  and  C44_44 
REMARK       I    between atoms: C43_43  and  C49_49 
REMARK       I    between atoms: C43_43  and  N16_101 
REMARK       I    between atoms: C44_44  and  C45_45 
REMARK       I    between atoms: C45_45  and  C46_46 
REMARK       I    between atoms: C46_46  and  C47_47 
REMARK       I    between atoms: C47_47  and  N17_102 
REMARK       I    between atoms: C48_48  and  N17_102 
REMARK       I    between atoms: C48_48  and  N19_105 
REMARK       I    between atoms: C49_49  and  N20_106 
REMARK       I    between atoms: C50_50  and  N20_106 
REMARK       I    between atoms: C52_52  and  C57_57 
REMARK       I    between atoms: C53_53  and  O11_79 
REMARK       I    between atoms: C57_57  and  N21_107 
REMARK       I    between atoms: C58_58  and  C59_59 
REMARK       I    between atoms: C58_58  and  C68_68 
REMARK       I    between atoms: C58_58  and  N21_107 
REMARK       I    between atoms: C59_59  and  C60_60 
REMARK       I    between atoms: C68_68  and  O14_82 
ROOT
HETATM    1  C1  UNL     1      10.961   0.769   3.047  1.00  0.00     0.210 C 
HETATM    2  C2  UNL     1      11.835   0.379   0.854  1.00  0.00     0.084 A 
HETATM    3  C3  UNL     1      11.716  -0.274  -0.390  1.00  0.00     0.067 A 
HETATM    4  C4  UNL     1      12.503   0.144  -1.483  1.00  0.00     0.049 A 
HETATM    5  C5  UNL     1      13.416   1.189  -1.350  1.00  0.00     0.035 A 
HETATM    6  C6  UNL     1      13.536   1.821  -0.111  1.00  0.00     0.032 A 
HETATM    7  C7  UNL     1      12.758   1.421   0.981  1.00  0.00     0.040 A 
HETATM    8  C8  UNL     1      14.373   1.150  -3.670  1.00  0.00     0.255 C 
HETATM    9  C9  UNL     1      15.361   1.964  -4.540  1.00  0.00     0.309 C 
HETATM   10  C10 UNL     1      14.669   3.219  -5.088  1.00  0.00     0.047 C 
HETATM   11  C11 UNL     1      15.623   4.277  -5.662  1.00  0.00     0.022 C 
HETATM   12  C12 UNL     1      16.629   4.867  -4.668  1.00  0.00     0.122 C 
HETATM   13  C13 UNL     1      15.438   5.007  -2.485  1.00  0.00     0.143 C 
HETATM   14  C14 UNL     1      10.767  -1.403  -0.654  1.00  0.00     0.255 C 
HETATM   15  C15 UNL     1       9.259  -3.137   0.294  1.00  0.00     0.177 C 
HETATM   16  C16 UNL     1       9.299  -4.088   1.497  1.00  0.00     0.036 C 
HETATM   17  C17 UNL     1      10.600  -4.901   1.551  1.00  0.00     0.022 C 
HETATM   18  C18 UNL     1      10.635  -5.865   2.737  1.00  0.00     0.122 C 
HETATM   19  C19 UNL     1       9.755  -8.034   1.906  1.00  0.00     0.143 C 
HETATM   20  C20 UNL     1       7.865  -2.474   0.153  1.00  0.00     0.245 C 
HETATM   21  C21 UNL     1       6.595  -1.148  -1.567  1.00  0.00     0.035 A 
HETATM   22  C22 UNL     1       5.369  -1.058  -0.903  1.00  0.00     0.049 A 
HETATM   23  C23 UNL     1       4.294  -0.341  -1.463  1.00  0.00     0.067 A 
HETATM   24  C24 UNL     1       4.458   0.258  -2.720  1.00  0.00     0.084 A 
HETATM   25  C25 UNL     1       5.688   0.189  -3.379  1.00  0.00     0.040 A 
HETATM   26  C26 UNL     1       6.746  -0.517  -2.807  1.00  0.00     0.032 A 
HETATM   27  C27 UNL     1       2.835   0.193  -4.352  1.00  0.00     0.210 C 
HETATM   28  C28 UNL     1       3.027  -0.282  -0.672  1.00  0.00     0.255 C 
HETATM   29  C29 UNL     1       0.791   0.747  -0.437  1.00  0.00     0.177 C 
HETATM   30  C30 UNL     1       0.379   2.155   0.013  1.00  0.00     0.036 C 
HETATM   31  C31 UNL     1       0.924   2.557   1.390  1.00  0.00     0.022 C 
HETATM   32  C32 UNL     1       0.130   1.970   2.560  1.00  0.00     0.122 C 
HETATM   33  C33 UNL     1      -0.364  -0.453   2.570  1.00  0.00     0.143 C 
HETATM   34  C34 UNL     1      -0.205   0.232  -1.500  1.00  0.00     0.245 C 
HETATM   35  C35 UNL     1      -2.552  -0.654  -1.618  1.00  0.00     0.035 A 
HETATM   36  C36 UNL     1      -3.655  -1.013  -0.840  1.00  0.00     0.049 A 
HETATM   37  C37 UNL     1      -4.830  -1.529  -1.422  1.00  0.00     0.067 A 
HETATM   38  C38 UNL     1      -4.903  -1.690  -2.818  1.00  0.00     0.084 A 
HETATM   39  C39 UNL     1      -3.799  -1.316  -3.594  1.00  0.00     0.040 A 
HETATM   40  C40 UNL     1      -2.637  -0.806  -2.999  1.00  0.00     0.032 A 
HETATM   41  C41 UNL     1      -6.071  -2.516  -4.737  1.00  0.00     0.210 C 
HETATM   42  C42 UNL     1      -5.928  -1.892  -0.470  1.00  0.00     0.255 C 
HETATM   43  C43 UNL     1      -8.286  -2.693  -0.236  1.00  0.00     0.177 C 
HETATM   44  C44 UNL     1      -7.946  -4.158   0.090  1.00  0.00     0.035 C 
HETATM   45  C45 UNL     1      -9.029  -5.065   0.695  1.00  0.00     0.004 C 
HETATM   46  C46 UNL     1     -10.198  -5.488  -0.201  1.00  0.00     0.020 C 
HETATM   47  C47 UNL     1     -11.241  -4.444  -0.599  1.00  0.00     0.122 C 
HETATM   48  C48 UNL     1     -12.780  -2.825   0.420  1.00  0.00     0.143 C 
HETATM   49  C49 UNL     1      -8.808  -1.857   0.967  1.00  0.00     0.245 C 
HETATM   50  C50 UNL     1      -9.116   0.564   1.553  1.00  0.00     0.035 A 
HETATM   51  C51 UNL     1     -10.120   0.412   2.504  1.00  0.00     0.049 A 
HETATM   52  C52 UNL     1     -10.714   1.534   3.108  1.00  0.00     0.067 A 
HETATM   53  C53 UNL     1     -10.263   2.829   2.811  1.00  0.00     0.084 A 
HETATM   54  C54 UNL     1      -9.234   2.975   1.876  1.00  0.00     0.040 A 
HETATM   55  C55 UNL     1      -8.673   1.854   1.249  1.00  0.00     0.032 A 
HETATM   56  C56 UNL     1     -10.264   5.154   3.341  1.00  0.00     0.210 C 
HETATM   57  C57 UNL     1     -11.850   1.257   4.024  1.00  0.00     0.255 C 
HETATM   58  C58 UNL     1     -14.269   1.561   4.366  1.00  0.00     0.187 C 
HETATM   59  C59 UNL     1     -15.277   2.707   4.524  1.00  0.00     0.077 C 
HETATM   60  C60 UNL     1     -15.605   3.431   3.249  1.00  0.00    -0.028 A 
HETATM   61  C61 UNL     1     -16.535   3.044   2.304  1.00  0.00     0.096 A 
HETATM   62  C62 UNL     1     -15.613   4.953   1.551  1.00  0.00     0.042 A 
HETATM   63  C63 UNL     1     -15.274   6.087   0.803  1.00  0.00     0.030 A 
HETATM   64  C64 UNL     1     -14.305   6.946   1.330  1.00  0.00     0.002 A 
HETATM   65  C65 UNL     1     -13.699   6.676   2.554  1.00  0.00     0.001 A 
HETATM   66  C66 UNL     1     -14.046   5.534   3.285  1.00  0.00     0.014 A 
HETATM   67  C67 UNL     1     -15.024   4.654   2.779  1.00  0.00    -0.002 A 
HETATM   68  C68 UNL     1     -14.846   0.438   3.497  1.00  0.00     0.163 C 
HETATM   69  O1  UNL     1      11.037  -0.051   1.884  1.00  0.00    -0.355 OA
HETATM   70  O2  UNL     1      13.800   0.162  -4.124  1.00  0.00    -0.271 OA
HETATM   71  O3  UNL     1      10.419  -1.683  -1.799  1.00  0.00    -0.268 OA
HETATM   72  O4  UNL     1       7.034  -2.507   1.057  1.00  0.00    -0.271 OA
HETATM   73  O5  UNL     1       3.448   0.971  -3.316  1.00  0.00    -0.355 OA
HETATM   74  O6  UNL     1       2.810  -1.109   0.209  1.00  0.00    -0.268 OA
HETATM   75  O7  UNL     1       0.075   0.236  -2.699  1.00  0.00    -0.271 OA
HETATM   76  O8  UNL     1      -6.059  -2.206  -3.346  1.00  0.00    -0.355 OA
HETATM   77  O9  UNL     1      -5.696  -2.009   0.728  1.00  0.00    -0.268 OA
HETATM   78  O10 UNL     1      -9.521  -2.363   1.832  1.00  0.00    -0.271 OA
HETATM   79  O11 UNL     1     -10.866   3.871   3.462  1.00  0.00    -0.355 OA
HETATM   80  O12 UNL     1     -11.790   0.335   4.830  1.00  0.00    -0.268 OA
HETATM   81  O13 UNL     1     -14.468   0.088   2.388  1.00  0.00    -0.648 OA
HETATM   82  O14 UNL     1     -15.881  -0.204   4.083  1.00  0.00    -0.775 OA
HETATM   83  N1  UNL     1      14.239   1.665  -2.390  1.00  0.00    -0.325 N 
HETATM   84  N2  UNL     1      15.959   5.573  -3.589  1.00  0.00    -0.367 N 
HETATM   85  N3  UNL     1      15.873   3.962  -1.877  1.00  0.00    -0.376 N 
ATOM     86  H3  UNL     1      15.408   3.466  -1.116  1.00  0.00     0.158 HD
HETATM   87  N4  UNL     1      14.337   5.637  -2.040  1.00  0.00    -0.274 NA
HETATM   88  N5  UNL     1      15.874   1.137  -5.653  1.00  0.00     0.092 N 
HETATM   89  N6  UNL     1      10.271  -2.089   0.429  1.00  0.00    -0.344 N 
HETATM   90  N7  UNL     1       9.619  -6.891   2.610  1.00  0.00    -0.367 N 
HETATM   91  N8  UNL     1      10.674  -8.367   1.080  1.00  0.00    -0.376 N 
ATOM     92  H8  UNL     1      10.717  -9.251   0.574  1.00  0.00     0.158 HD
HETATM   93  N9  UNL     1       8.740  -8.885   2.145  1.00  0.00    -0.274 NA
HETATM   94  N10 UNL     1       7.713  -1.842  -1.073  1.00  0.00    -0.325 N 
HETATM   95  N11 UNL     1       2.151   0.742  -0.966  1.00  0.00    -0.344 N 
HETATM   96  N12 UNL     1       0.476   0.582   2.775  1.00  0.00    -0.367 N 
HETATM   97  N13 UNL     1      -1.494  -0.386   1.962  1.00  0.00    -0.376 N 
ATOM     98  H13 UNL     1      -1.886   0.441   1.511  1.00  0.00     0.158 HD
HETATM   99  N14 UNL     1       0.165  -1.608   3.018  1.00  0.00    -0.274 NA
HETATM  100  N15 UNL     1      -1.417  -0.160  -0.945  1.00  0.00    -0.325 N 
HETATM  101  N16 UNL     1      -7.198  -2.040  -0.985  1.00  0.00    -0.344 N 
HETATM  102  N17 UNL     1     -11.760  -3.711   0.541  1.00  0.00    -0.367 N 
HETATM  103  N18 UNL     1     -13.792  -2.906  -0.363  1.00  0.00    -0.376 N 
ATOM    104  H18 UNL     1     -14.523  -2.202  -0.464  1.00  0.00     0.158 HD
HETATM  105  N19 UNL     1     -12.623  -1.767   1.233  1.00  0.00    -0.274 NA
HETATM  106  N20 UNL     1      -8.555  -0.503   0.828  1.00  0.00    -0.325 N 
HETATM  107  N21 UNL     1     -12.988   2.008   3.819  1.00  0.00    -0.342 N 
HETATM  108  N22 UNL     1     -16.521   3.956   1.284  1.00  0.00    -0.365 N 
HETATM  109  H63 UNL     1     -16.104  -0.912   3.441  1.00  0.00     0.167 HD
HETATM  110  H64 UNL     1      14.836   2.465  -2.149  1.00  0.00     0.169 HD
HETATM  111  H65 UNL     1      15.533   6.450  -3.867  1.00  0.00     0.162 HD
HETATM  112  H66 UNL     1      16.776   3.720  -2.301  1.00  0.00     0.158 HD
HETATM  113  H67 UNL     1      13.665   5.880  -2.755  1.00  0.00     0.127 HD
HETATM  114  H68 UNL     1      13.895   5.122  -1.286  1.00  0.00     0.127 HD
HETATM  115  H69 UNL     1      15.057   0.777  -6.159  1.00  0.00     0.313 HD
HETATM  116  H70 UNL     1      16.279   0.288  -5.250  1.00  0.00     0.313 HD
HETATM  117  H71 UNL     1      10.376  -1.645   1.337  1.00  0.00     0.163 HD
HETATM  118  H72 UNL     1       9.084  -7.032   3.461  1.00  0.00     0.162 HD
HETATM  119  H73 UNL     1      11.357  -7.614   1.005  1.00  0.00     0.158 HD
HETATM  120  H74 UNL     1       8.809  -9.666   1.499  1.00  0.00     0.127 HD
HETATM  121  H75 UNL     1       7.836  -8.440   2.052  1.00  0.00     0.127 HD
HETATM  122  H76 UNL     1       8.551  -1.832  -1.660  1.00  0.00     0.169 HD
HETATM  123  H77 UNL     1       2.298   1.233  -1.844  1.00  0.00     0.163 HD
HETATM  124  H78 UNL     1       1.173   0.432   3.494  1.00  0.00     0.162 HD
HETATM  125  H79 UNL     1      -1.931  -1.313   2.011  1.00  0.00     0.158 HD
HETATM  126  H80 UNL     1       1.158  -1.675   2.802  1.00  0.00     0.127 HD
HETATM  127  H81 UNL     1      -0.297  -2.446   2.689  1.00  0.00     0.127 HD
HETATM  128  H82 UNL     1      -1.481  -0.116   0.081  1.00  0.00     0.169 HD
HETATM  129  H83 UNL     1      -7.252  -2.098  -1.998  1.00  0.00     0.163 HD
HETATM  130  H84 UNL     1     -11.018  -3.314   1.123  1.00  0.00     0.162 HD
HETATM  131  H85 UNL     1     -13.745  -3.790  -0.867  1.00  0.00     0.158 HD
HETATM  132  H86 UNL     1     -13.455  -1.175   1.279  1.00  0.00     0.127 HD
HETATM  133  H87 UNL     1     -12.309  -1.991   2.169  1.00  0.00     0.127 HD
HETATM  134  H88 UNL     1      -7.858  -0.278   0.128  1.00  0.00     0.169 HD
HETATM  135  H89 UNL     1     -13.015   2.576   2.978  1.00  0.00     0.163 HD
HETATM  136  H90 UNL     1     -17.095   3.910   0.453  1.00  0.00     0.165 HD
ENDROOT
TORSDOF 42
