REMARK  0 active torsions:
REMARK  status: ('A' for Active; 'I' for Inactive)
REMARK       I    between atoms: C2_2  and  C3_3 
REMARK       I    between atoms: C2_2  and  O11_53 
REMARK       I    between atoms: C3_3  and  C4_4 
REMARK       I    between atoms: C3_3  and  C36_36 
REMARK       I    between atoms: C4_4  and  C5_5 
REMARK       I    between atoms: C5_5  and  C6_6 
REMARK       I    between atoms: C6_6  and  C7_7 
REMARK       I    between atoms: C6_6  and  N1_57 
REMARK       I    between atoms: C7_7  and  O2_44 
REMARK       I    between atoms: C8_8  and  C9_9 
REMARK       I    between atoms: C8_8  and  N1_57 
REMARK       I    between atoms: C9_9  and  C10_10 
REMARK       I    between atoms: C9_9  and  C14_14 
REMARK       I    between atoms: C10_10  and  C11_11 
REMARK       I    between atoms: C14_14  and  C15_15 
REMARK       I    between atoms: C15_15  and  C16_16 
REMARK       I    between atoms: C16_16  and  C17_17 
REMARK       I    between atoms: C16_16  and  N4_61 
REMARK       I    between atoms: C17_17  and  C18_18 
REMARK       I    between atoms: C21_21  and  C22_22 
REMARK       I    between atoms: C21_21  and  N4_61 
REMARK       I    between atoms: C26_26  and  C27_27 
REMARK       I    between atoms: C26_26  and  N5_62 
REMARK       I    between atoms: C27_27  and  C28_28 
REMARK       I    between atoms: C28_28  and  O7_49 
REMARK       I    between atoms: C29_29  and  C30_30 
REMARK       I    between atoms: C29_29  and  O7_49 
REMARK       I    between atoms: C30_30  and  O8_50 
REMARK       I    between atoms: C31_31  and  C32_32 
REMARK       I    between atoms: C31_31  and  O8_50 
REMARK       I    between atoms: C32_32  and  N6_63 
REMARK       I    between atoms: C33_33  and  C34_34 
REMARK       I    between atoms: C33_33  and  N6_63 
REMARK       I    between atoms: C34_34  and  C35_35 
REMARK       I    between atoms: C34_34  and  N7_64 
REMARK       I    between atoms: C35_35  and  S1_66 
REMARK       I    between atoms: C36_36  and  N8_65 
REMARK       I    between atoms: C37_37  and  C38_38 
REMARK       I    between atoms: C37_37  and  O14_56 
REMARK       I    between atoms: C38_38  and  C39_39 
REMARK       I    between atoms: O11_53  and  P1_68 
REMARK       I    between atoms: O13_55  and  P1_68 
REMARK       I    between atoms: O14_56  and  P1_68 
ROOT
HETATM    1  C1  UNL     1      -5.098   1.834  -1.081  1.00  0.00     0.041 C 
HETATM    2  C2  UNL     1      -5.145   0.357  -1.482  1.00  0.00     0.142 C 
HETATM    3  C3  UNL     1      -5.588  -0.538  -0.295  1.00  0.00     0.108 C 
HETATM    4  C4  UNL     1      -4.624  -0.517   0.899  1.00  0.00     0.097 C 
HETATM    5  C5  UNL     1      -3.374  -1.369   0.762  1.00  0.00     0.152 C 
HETATM    6  C6  UNL     1      -2.062  -0.674   0.400  1.00  0.00     0.177 C 
HETATM    7  C7  UNL     1      -1.355  -1.463  -0.708  1.00  0.00     0.197 C 
HETATM    8  C8  UNL     1      -1.343   0.444   2.489  1.00  0.00     0.223 C 
HETATM    9  C9  UNL     1      -0.323   0.404   3.630  1.00  0.00     0.090 C 
HETATM   10  C10 UNL     1      -0.580   1.507   4.673  1.00  0.00     0.073 C 
HETATM   11  C11 UNL     1      -1.782   1.219   5.509  1.00  0.00     0.026 A 
HETATM   12  C12 UNL     1      -1.948   0.646   6.750  1.00  0.00     0.114 A 
HETATM   13  C13 UNL     1      -3.915   1.135   6.077  1.00  0.00     0.180 A 
HETATM   14  C14 UNL     1       1.110   0.475   3.069  1.00  0.00     0.095 C 
HETATM   15  C15 UNL     1       1.322   1.601   2.063  1.00  0.00     0.150 C 
HETATM   16  C16 UNL     1       2.075   1.248   0.761  1.00  0.00     0.154 C 
HETATM   17  C17 UNL     1       3.472   0.612   0.899  1.00  0.00     0.037 C 
HETATM   18  C18 UNL     1       4.695   1.321   1.510  1.00  0.00    -0.020 C 
HETATM   19  C19 UNL     1       4.416   2.173   2.741  1.00  0.00     0.009 C 
HETATM   20  C20 UNL     1       5.547   2.041   0.464  1.00  0.00     0.009 C 
HETATM   21  C21 UNL     1       2.293   3.520  -0.316  1.00  0.00     0.241 C 
HETATM   22  C22 UNL     1       1.720   4.389  -1.466  1.00  0.00     0.179 C 
HETATM   23  C23 UNL     1       1.021   5.620  -0.881  1.00  0.00     0.037 C 
HETATM   24  C24 UNL     1      -0.406   5.129  -0.663  1.00  0.00     0.022 C 
HETATM   25  C25 UNL     1      -0.653   4.252  -1.879  1.00  0.00     0.127 C 
HETATM   26  C26 UNL     1       0.809   2.922  -3.353  1.00  0.00     0.222 C 
HETATM   27  C27 UNL     1       2.220   2.553  -3.768  1.00  0.00     0.129 C 
HETATM   28  C28 UNL     1       2.222   1.220  -4.514  1.00  0.00     0.177 C 
HETATM   29  C29 UNL     1       3.790  -0.082  -3.247  1.00  0.00     0.193 C 
HETATM   30  C30 UNL     1       3.112  -1.449  -3.133  1.00  0.00     0.193 C 
HETATM   31  C31 UNL     1       2.345  -3.021  -1.531  1.00  0.00     0.187 C 
HETATM   32  C32 UNL     1       1.963  -3.048  -0.054  1.00  0.00     0.148 C 
HETATM   33  C33 UNL     1       2.952  -3.130   2.186  1.00  0.00     0.251 C 
HETATM   34  C34 UNL     1       4.284  -3.131   2.968  1.00  0.00     0.317 C 
HETATM   35  C35 UNL     1       4.136  -2.231   4.205  1.00  0.00     0.116 C 
HETATM   36  C36 UNL     1      -5.960  -1.933  -0.805  1.00  0.00     0.202 C 
HETATM   37  C37 UNL     1      -3.820  -1.693  -4.638  1.00  0.00     0.185 C 
HETATM   38  C38 UNL     1      -3.261  -3.067  -5.004  1.00  0.00     0.073 C 
HETATM   39  C39 UNL     1      -2.878  -3.872  -3.790  1.00  0.00    -0.016 A 
HETATM   40  C40 UNL     1      -3.702  -4.375  -2.803  1.00  0.00     0.015 A 
HETATM   41  C41 UNL     1      -2.978  -5.076  -1.796  1.00  0.00     0.008 A 
HETATM   42  C42 UNL     1      -1.628  -5.109  -2.061  1.00  0.00     0.050 A 
HETATM   43  O1  UNL     1      -3.427  -2.577   1.020  1.00  0.00    -0.296 OA
HETATM   44  O2  UNL     1      -0.325  -0.670  -1.307  1.00  0.00    -0.398 OA
HETATM   45  O3  UNL     1      -2.208   1.306   2.363  1.00  0.00    -0.273 OA
HETATM   46  O4  UNL     1       0.866   2.725   2.279  1.00  0.00    -0.296 OA
HETATM   47  O5  UNL     1       3.090   3.985   0.490  1.00  0.00    -0.271 OA
HETATM   48  O6  UNL     1      -0.175   2.514  -3.978  1.00  0.00    -0.273 OA
HETATM   49  O7  UNL     1       3.506   0.585  -4.479  1.00  0.00    -0.389 OA
HETATM   50  O8  UNL     1       3.147  -1.858  -1.764  1.00  0.00    -0.387 OA
HETATM   51  O9  UNL     1       1.850  -3.085   2.730  1.00  0.00    -0.271 OA
HETATM   52  O10 UNL     1      -6.247  -2.169  -1.976  1.00  0.00    -0.280 OA
HETATM   53  O11 UNL     1      -3.858  -0.065  -1.907  1.00  0.00    -0.291 OA
HETATM   54  O12 UNL     1      -4.063   1.417  -4.093  1.00  0.00    -0.631 OA
HETATM   55  O13 UNL     1      -1.845   1.017  -2.809  1.00  0.00    -0.307 OA
HETATM   56  O14 UNL     1      -2.798  -0.890  -4.068  1.00  0.00    -0.297 OA
HETATM   57  N1  UNL     1      -1.209  -0.591   1.589  1.00  0.00    -0.347 N 
HETATM   58  N2  UNL     1      -3.276   0.591   7.088  1.00  0.00    -0.360 N 
ATOM     59  H2  UNL     1      -3.681   0.209   7.942  1.00  0.00     0.166 HD
HETATM   60  N3  UNL     1      -3.054   1.535   5.099  1.00  0.00    -0.355 N 
HETATM   61  N4  UNL     1       1.854   2.215  -0.312  1.00  0.00    -0.348 N 
HETATM   62  N5  UNL     1       0.657   3.730  -2.246  1.00  0.00    -0.339 N 
HETATM   63  N6  UNL     1       3.110  -3.208   0.816  1.00  0.00    -0.357 N 
HETATM   64  N7  UNL     1       5.401  -2.705   2.080  1.00  0.00     0.092 N 
HETATM   65  N8  UNL     1      -6.097  -2.922   0.123  1.00  0.00    -0.272 NA
HETATM   66  S1  UNL     1       5.668  -2.171   5.198  1.00  0.00    -0.180 SA
HETATM   67  S2  UNL     1      -1.239  -4.290  -3.510  1.00  0.00    -0.106 SA
HETATM   68  P1  UNL     1      -3.257   0.441  -3.308  1.00  0.00     0.393 P 
HETATM   69  H57 UNL     1      -0.790  -0.014  -1.874  1.00  0.00     0.209 HD
HETATM   70  H58 UNL     1      -1.431   1.592  -3.503  1.00  0.00     0.222 HD
HETATM   71  H59 UNL     1      -0.758  -1.447   1.901  1.00  0.00     0.163 HD
HETATM   72  H60 UNL     1      -3.297   1.951   4.206  1.00  0.00     0.166 HD
HETATM   73  H61 UNL     1       1.006   2.070  -0.848  1.00  0.00     0.163 HD
HETATM   74  H62 UNL     1       3.987  -2.795   0.499  1.00  0.00     0.162 HD
HETATM   75  H63 UNL     1       5.714  -3.525   1.555  1.00  0.00     0.313 HD
HETATM   76  H64 UNL     1       6.195  -2.468   2.684  1.00  0.00     0.313 HD
HETATM   77  H65 UNL     1      -6.294  -3.831  -0.279  1.00  0.00     0.127 HD
HETATM   78  H66 UNL     1      -5.417  -2.974   0.880  1.00  0.00     0.127 HD
HETATM   79  H67 UNL     1       5.204  -1.337   6.141  1.00  0.00     0.101 HD
ENDROOT
TORSDOF 38
