REMARK  20 active torsions:
REMARK  status: ('A' for Active; 'I' for Inactive)
REMARK    1  A    between atoms: C2_2  and  C3_3 
REMARK    2  A    between atoms: C3_3  and  C5_5 
REMARK    3  A    between atoms: C19_19  and  C49_49 
REMARK    4  A    between atoms: C26_26  and  C28_28 
REMARK    5  A    between atoms: C28_28  and  C29_29 
REMARK       I    between atoms: C29_29  and  N8_80 
REMARK    6  A    between atoms: C30_30  and  C31_31 
REMARK    7  A    between atoms: C30_30  and  N8_80 
REMARK    8  A    between atoms: C34_34  and  N9_81 
REMARK    9  A    between atoms: C37_37  and  C38_38 
REMARK       I    between atoms: C37_37  and  N9_81 
REMARK   10  A    between atoms: C38_38  and  N10_82 
REMARK   11  A    between atoms: C40_40  and  C41_41 
REMARK       I    between atoms: C40_40  and  N10_82 
REMARK   12  A    between atoms: C41_41  and  N11_83 
REMARK   13  A    between atoms: C42_42  and  C43_43 
REMARK       I    between atoms: C42_42  and  N11_83 
REMARK   14  A    between atoms: C43_43  and  C44_44 
REMARK   15  A    between atoms: C44_44  and  N12_84 
REMARK   16  A    between atoms: C47_47  and  S2_87 
REMARK   17  A    between atoms: C49_49  and  C50_50 
REMARK   18  A    between atoms: C50_50  and  C51_51 
REMARK   19  A    between atoms: C50_50  and  O15_72 
REMARK   20  A    between atoms: C51_51  and  O14_71 
ROOT
HETATM    1  C5  UNL     1      -8.229   2.413  -0.318  1.00  0.00     0.180 C 
HETATM    2  C6  UNL     1      -7.457   3.674  -0.784  1.00  0.00     0.241 C 
HETATM    3  C7  UNL     1      -5.319   4.522  -1.687  1.00  0.00     0.225 C 
HETATM    4  C8  UNL     1      -4.140   4.699  -0.727  1.00  0.00     0.236 C 
HETATM    5  C9  UNL     1      -1.705   4.396  -0.513  1.00  0.00     0.186 C 
HETATM    6  C10 UNL     1      -1.515   4.000   0.968  1.00  0.00     0.116 C 
HETATM    7  C11 UNL     1      -2.058   1.389   1.868  1.00  0.00     0.077 A 
HETATM    8  C12 UNL     1      -2.621   0.235   1.353  1.00  0.00    -0.010 A 
HETATM    9  C13 UNL     1      -2.261  -0.367   0.031  1.00  0.00     0.076 C 
HETATM   10  C14 UNL     1      -3.346  -1.047  -0.795  1.00  0.00     0.175 C 
HETATM   11  C15 UNL     1      -4.609  -0.194  -1.037  1.00  0.00     0.220 C 
HETATM   12  C16 UNL     1      -6.693  -0.476  -2.307  1.00  0.00     0.197 C 
HETATM   13  C17 UNL     1      -7.682   0.622  -1.912  1.00  0.00     0.231 C 
HETATM   14  C18 UNL     1      -3.298  -2.211  -3.020  1.00  0.00     0.222 C 
HETATM   15  C19 UNL     1      -2.819  -1.986  -4.461  1.00  0.00     0.082 C 
HETATM   16  C20 UNL     1      -1.269  -1.981  -4.559  1.00  0.00     0.039 C 
HETATM   17  C21 UNL     1      -0.732  -0.831  -5.446  1.00  0.00     0.088 C 
HETATM   18  C22 UNL     1       0.319  -1.344  -6.443  1.00  0.00     0.027 C 
HETATM   19  C23 UNL     1       1.156  -0.107  -6.729  1.00  0.00     0.022 C 
HETATM   20  C24 UNL     1       1.258   0.536  -5.355  1.00  0.00     0.126 C 
HETATM   21  C25 UNL     1      -0.619   0.998  -3.739  1.00  0.00     0.243 C 
HETATM   22  C26 UNL     1       0.195   2.088  -2.984  1.00  0.00     0.185 C 
HETATM   23  C27 UNL     1      -0.547   3.937  -1.428  1.00  0.00     0.241 C 
HETATM   24  C52 UNL     1      -3.491  -0.279   2.374  1.00  0.00    -0.000 A 
HETATM   25  C53 UNL     1      -4.298  -1.430   2.510  1.00  0.00     0.014 A 
HETATM   26  C54 UNL     1      -5.026  -1.636   3.689  1.00  0.00     0.001 A 
HETATM   27  C55 UNL     1      -4.955  -0.725   4.737  1.00  0.00     0.002 A 
HETATM   28  C56 UNL     1      -4.156   0.416   4.640  1.00  0.00     0.030 A 
HETATM   29  C57 UNL     1      -3.440   0.611   3.452  1.00  0.00     0.043 A 
HETATM   30  O1  UNL     1      -7.948   4.799  -0.705  1.00  0.00    -0.271 OA
HETATM   31  O2  UNL     1      -4.198   5.377   0.296  1.00  0.00    -0.272 OA
HETATM   32  O3  UNL     1      -4.623   1.033  -1.117  1.00  0.00    -0.278 OA
HETATM   33  O4  UNL     1      -8.541   1.000  -2.708  1.00  0.00    -0.272 OA
HETATM   34  O5  UNL     1      -4.091  -3.082  -2.674  1.00  0.00    -0.273 OA
HETATM   35  O6  UNL     1      -1.814   0.833  -3.454  1.00  0.00    -0.271 OA
HETATM   36  O7  UNL     1       0.515   4.548  -1.510  1.00  0.00    -0.271 OA
HETATM   37  N1  UNL     1      -6.183   3.450  -1.258  1.00  0.00    -0.351 N 
HETATM   38  N2  UNL     1      -2.998   4.000  -1.087  1.00  0.00    -0.346 N 
HETATM   39  N3  UNL     1      -5.729  -0.966  -1.332  1.00  0.00    -0.252 NA
HETATM   40  N4  UNL     1      -7.530   1.170  -0.658  1.00  0.00    -0.346 N 
HETATM   41  N5  UNL     1      -2.830  -1.263  -2.151  1.00  0.00    -0.348 N 
HETATM   42  N6  UNL     1      -0.017   0.238  -4.718  1.00  0.00    -0.346 N 
HETATM   43  N7  UNL     1      -0.763   2.742  -2.074  1.00  0.00    -0.346 N 
HETATM   44  N13 UNL     1      -2.588   1.631   3.099  1.00  0.00    -0.350 N 
HETATM   45  S1  UNL     1      -0.754   2.376   1.299  1.00  0.00    -0.109 SA
HETATM   46  H64 UNL     1      -5.782   2.516  -1.193  1.00  0.00     0.163 HD
HETATM   47  H65 UNL     1      -2.994   3.601  -2.020  1.00  0.00     0.163 HD
HETATM   48  H66 UNL     1      -5.496  -1.947  -1.485  1.00  0.00     0.131 HD
HETATM   49  H67 UNL     1      -6.686   0.926  -0.153  1.00  0.00     0.163 HD
HETATM   50  H68 UNL     1      -2.404  -0.444  -2.592  1.00  0.00     0.163 HD
HETATM   51  H69 UNL     1      -1.578   2.190  -1.819  1.00  0.00     0.163 HD
HETATM   52  H74 UNL     1      -2.336   2.405   3.696  1.00  0.00     0.166 HD
ENDROOT
BRANCH  22  53
HETATM   53  C28 UNL     1       1.442   1.604  -2.241  1.00  0.00     0.137 C 
BRANCH  53  54
HETATM   54  C29 UNL     1       1.215   0.389  -1.368  1.00  0.00     0.220 C 
HETATM   55  O8  UNL     1       0.467  -0.531  -1.676  1.00  0.00    -0.274 OA
HETATM   56  N8  UNL     1       1.988   0.372  -0.231  1.00  0.00    -0.357 N 
HETATM   57  H70 UNL     1       2.389   1.242   0.098  1.00  0.00     0.162 HD
BRANCH  56  58
HETATM   58  C30 UNL     1       1.837  -0.686   0.741  1.00  0.00     0.161 C 
BRANCH  58  59
HETATM   59  C31 UNL     1       2.770  -0.484   1.902  1.00  0.00    -0.040 A 
HETATM   60  C32 UNL     1       2.310   0.067   3.103  1.00  0.00     0.011 A 
HETATM   61  C33 UNL     1       3.190   0.279   4.169  1.00  0.00     0.030 A 
HETATM   62  C34 UNL     1       4.546  -0.052   4.055  1.00  0.00     0.034 A 
HETATM   63  C35 UNL     1       5.006  -0.591   2.854  1.00  0.00     0.030 A 
HETATM   64  C36 UNL     1       4.127  -0.804   1.786  1.00  0.00     0.011 A 
BRANCH  62  65
HETATM   65  N9  UNL     1       5.368   0.203   5.173  1.00  0.00    -0.325 N 
HETATM   66  C37 UNL     1       6.712  -0.108   5.317  1.00  0.00     0.244 C 
HETATM   67  O9  UNL     1       7.404  -0.709   4.497  1.00  0.00    -0.271 OA
HETATM   68  H71 UNL     1       4.906   0.611   5.976  1.00  0.00     0.169 HD
BRANCH  66  69
HETATM   69  C38 UNL     1       7.313   0.416   6.647  1.00  0.00     0.172 C 
HETATM   70  C39 UNL     1       7.472   1.930   6.591  1.00  0.00     0.042 C 
BRANCH  69  71
HETATM   71  N10 UNL     1       8.607  -0.218   6.863  1.00  0.00    -0.347 N 
HETATM   72  C40 UNL     1       8.653  -1.489   7.408  1.00  0.00     0.236 C 
HETATM   73  O10 UNL     1       7.702  -2.018   7.977  1.00  0.00    -0.272 OA
HETATM   74  H72 UNL     1       9.296  -0.062   6.122  1.00  0.00     0.163 HD
BRANCH  72  75
HETATM   75  C41 UNL     1       9.961  -2.230   7.128  1.00  0.00     0.225 C 
BRANCH  75  76
HETATM   76  N11 UNL     1       9.898  -2.779   5.783  1.00  0.00    -0.352 N 
HETATM   77  C42 UNL     1      10.179  -1.977   4.695  1.00  0.00     0.219 C 
HETATM   78  O11 UNL     1      10.627  -0.840   4.815  1.00  0.00    -0.274 OA
HETATM   79  H73 UNL     1       9.251  -3.545   5.640  1.00  0.00     0.162 HD
BRANCH  77  80
HETATM   80  C43 UNL     1       9.879  -2.635   3.368  1.00  0.00     0.123 C 
BRANCH  80  81
HETATM   81  C44 UNL     1      10.051  -1.652   2.216  1.00  0.00     0.144 C 
BRANCH  81  82
HETATM   82  N12 UNL     1       9.853  -2.297   0.925  1.00  0.00    -0.287 N 
HETATM   83  C45 UNL     1       8.660  -2.343   0.267  1.00  0.00     0.228 A 
HETATM   84  C46 UNL     1       8.815  -3.143  -0.993  1.00  0.00     0.128 A 
HETATM   85  O12 UNL     1       7.600  -1.858   0.633  1.00  0.00    -0.273 OA
HETATM   86  C47 UNL     1      10.288  -3.512  -1.027  1.00  0.00     0.145 A 
HETATM   87  C48 UNL     1      10.830  -3.006   0.286  1.00  0.00     0.240 A 
HETATM   88  O13 UNL     1      11.965  -3.209   0.695  1.00  0.00    -0.272 OA
BRANCH  86  89
HETATM   89  S2  UNL     1      11.175  -2.719  -2.404  1.00  0.00    -0.167 SA
HETATM   90  H75 UNL     1      12.412  -3.000  -1.959  1.00  0.00     0.102 HD
ENDBRANCH  86  89
ENDBRANCH  81  82
ENDBRANCH  80  81
ENDBRANCH  77  80
ENDBRANCH  75  76
ENDBRANCH  72  75
ENDBRANCH  69  71
ENDBRANCH  66  69
ENDBRANCH  62  65
ENDBRANCH  58  59
ENDBRANCH  56  58
ENDBRANCH  53  54
ENDBRANCH  22  53
BRANCH  15  91
HETATM   91  C49 UNL     1      -3.419  -3.032  -5.424  1.00  0.00     0.048 C 
BRANCH  91  92
HETATM   92  C50 UNL     1      -4.921  -2.845  -5.659  1.00  0.00     0.142 C 
BRANCH  92  93
HETATM   93  C51 UNL     1      -5.484  -3.931  -6.583  1.00  0.00     0.195 C 
BRANCH  93  94
HETATM   94  O14 UNL     1      -6.875  -3.681  -6.797  1.00  0.00    -0.398 OA
HETATM   95  H62 UNL     1      -7.340  -3.906  -5.971  1.00  0.00     0.209 HD
ENDBRANCH  93  94
ENDBRANCH  92  93
BRANCH  92  96
HETATM   96  O15 UNL     1      -5.141  -1.567  -6.265  1.00  0.00    -0.393 OA
HETATM   97  H63 UNL     1      -6.018  -1.626  -6.698  1.00  0.00     0.210 HD
ENDBRANCH  92  96
ENDBRANCH  91  92
ENDBRANCH  15  91
BRANCH   1  98
HETATM   98  C3  UNL     1      -8.648   2.519   1.169  1.00  0.00     0.013 C 
HETATM   99  C4  UNL     1      -9.309   1.228   1.666  1.00  0.00     0.012 C 
BRANCH  98 100
HETATM  100  C2  UNL     1      -7.567   3.016   2.149  1.00  0.00     0.002 C 
HETATM  101  C1  UNL     1      -6.305   2.180   2.235  1.00  0.00     0.005 C 
ENDBRANCH  98 100
ENDBRANCH   1  98
TORSDOF 20
