REMARK  0 active torsions:
REMARK  status: ('A' for Active; 'I' for Inactive)
REMARK       I    between atoms: C2_2  and  C3_3 
REMARK       I    between atoms: C3_3  and  C5_5 
REMARK       I    between atoms: C5_5  and  C6_6 
REMARK       I    between atoms: C5_5  and  N7_73 
REMARK       I    between atoms: C6_6  and  N1_66 
REMARK       I    between atoms: C7_7  and  C8_8 
REMARK       I    between atoms: C7_7  and  C9_9 
REMARK       I    between atoms: C7_7  and  N1_66 
REMARK       I    between atoms: C8_8  and  S1_85 
REMARK       I    between atoms: C9_9  and  N2_67 
REMARK       I    between atoms: C10_10  and  C11_11 
REMARK       I    between atoms: C10_10  and  C18_18 
REMARK       I    between atoms: C10_10  and  N2_67 
REMARK       I    between atoms: C11_11  and  C12_12 
REMARK       I    between atoms: C18_18  and  N3_68 
REMARK       I    between atoms: C19_19  and  C20_20 
REMARK       I    between atoms: C19_19  and  C24_24 
REMARK       I    between atoms: C19_19  and  N3_68 
REMARK       I    between atoms: C20_20  and  C21_21 
REMARK       I    between atoms: C21_21  and  C22_22 
REMARK       I    between atoms: C22_22  and  N4_69 
REMARK       I    between atoms: C23_23  and  N5_71 
REMARK       I    between atoms: C23_23  and  N6_72 
REMARK       I    between atoms: C25_25  and  C26_26 
REMARK       I    between atoms: C25_25  and  N7_73 
REMARK       I    between atoms: C26_26  and  C27_27 
REMARK       I    between atoms: C26_26  and  N11_78 
REMARK       I    between atoms: C27_27  and  C28_28 
REMARK       I    between atoms: C28_28  and  C29_29 
REMARK       I    between atoms: C29_29  and  N8_74 
REMARK       I    between atoms: C30_30  and  N9_76 
REMARK       I    between atoms: C30_30  and  N10_77 
REMARK       I    between atoms: C31_31  and  C32_32 
REMARK       I    between atoms: C31_31  and  N11_78 
REMARK       I    between atoms: C32_32  and  N12_79 
REMARK       I    between atoms: C33_33  and  C34_34 
REMARK       I    between atoms: C33_33  and  N12_79 
REMARK       I    between atoms: C34_34  and  N13_80 
REMARK       I    between atoms: C35_35  and  C36_36 
REMARK       I    between atoms: C35_35  and  N13_80 
REMARK       I    between atoms: C36_36  and  C37_37 
REMARK       I    between atoms: C36_36  and  N14_81 
REMARK       I    between atoms: C37_37  and  C38_38 
REMARK       I    between atoms: C44_44  and  C45_45 
REMARK       I    between atoms: C44_44  and  N14_81 
REMARK       I    between atoms: C45_45  and  C46_46 
REMARK       I    between atoms: C45_45  and  N15_82 
REMARK       I    between atoms: C46_46  and  S2_86 
REMARK       I    between atoms: C47_47  and  C48_48 
REMARK       I    between atoms: C47_47  and  N15_82 
REMARK       I    between atoms: C48_48  and  C49_49 
REMARK       I    between atoms: C48_48  and  N16_83 
REMARK       I    between atoms: C49_49  and  O11_63 
REMARK       I    between atoms: C50_50  and  C51_51 
REMARK       I    between atoms: C50_50  and  N16_83 
REMARK       I    between atoms: C51_51  and  C52_52 
REMARK       I    between atoms: C51_51  and  N17_84 
REMARK       I    between atoms: C52_52  and  O13_65 
ROOT
HETATM    1  C1  UNL     1      -2.914   3.736  -5.362  1.00  0.00     0.005 C 
HETATM    2  C2  UNL     1      -1.695   2.822  -5.383  1.00  0.00     0.002 C 
HETATM    3  C3  UNL     1      -1.049   2.613  -3.994  1.00  0.00     0.013 C 
HETATM    4  C4  UNL     1      -0.516   3.945  -3.441  1.00  0.00     0.012 C 
HETATM    5  C5  UNL     1       0.100   1.575  -4.066  1.00  0.00     0.180 C 
HETATM    6  C6  UNL     1       0.740   1.262  -2.696  1.00  0.00     0.241 C 
HETATM    7  C7  UNL     1       0.365   0.420  -0.411  1.00  0.00     0.185 C 
HETATM    8  C8  UNL     1       0.204   1.718   0.400  1.00  0.00     0.105 C 
HETATM    9  C9  UNL     1      -0.276  -0.754   0.354  1.00  0.00     0.241 C 
HETATM   10  C10 UNL     1      -2.131  -2.394   0.461  1.00  0.00     0.180 C 
HETATM   11  C11 UNL     1      -2.494  -2.235   1.960  1.00  0.00     0.073 C 
HETATM   12  C12 UNL     1      -3.088  -0.909   2.391  1.00  0.00    -0.056 A 
HETATM   13  C13 UNL     1      -2.342  -0.042   3.204  1.00  0.00     0.007 A 
HETATM   14  C14 UNL     1      -2.866   1.188   3.608  1.00  0.00     0.001 A 
HETATM   15  C15 UNL     1      -4.140   1.570   3.196  1.00  0.00     0.000 A 
HETATM   16  C16 UNL     1      -4.897   0.714   2.400  1.00  0.00     0.001 A 
HETATM   17  C17 UNL     1      -4.383  -0.527   2.019  1.00  0.00     0.007 A 
HETATM   18  C18 UNL     1      -3.408  -2.779  -0.314  1.00  0.00     0.241 C 
HETATM   19  C19 UNL     1      -5.367  -1.813  -1.486  1.00  0.00     0.146 C 
HETATM   20  C20 UNL     1      -5.885  -0.397  -1.758  1.00  0.00     0.034 C 
HETATM   21  C21 UNL     1      -7.397  -0.252  -1.979  1.00  0.00     0.022 C 
HETATM   22  C22 UNL     1      -8.291  -1.065  -1.044  1.00  0.00     0.121 C 
HETATM   23  C23 UNL     1      -8.525  -1.480   1.253  1.00  0.00     0.121 C 
HETATM   24  C24 UNL     1      -5.464  -2.737  -2.696  1.00  0.00     0.256 C 
HETATM   25  C25 UNL     1      -1.306  -0.490  -4.362  1.00  0.00     0.241 C 
HETATM   26  C26 UNL     1      -1.297  -1.868  -5.067  1.00  0.00     0.176 C 
HETATM   27  C27 UNL     1      -2.569  -2.694  -4.852  1.00  0.00     0.036 C 
HETATM   28  C28 UNL     1      -3.631  -2.474  -5.937  1.00  0.00     0.022 C 
HETATM   29  C29 UNL     1      -4.212  -1.063  -5.981  1.00  0.00     0.121 C 
HETATM   30  C30 UNL     1      -6.356  -1.091  -6.999  1.00  0.00     0.121 C 
HETATM   31  C31 UNL     1       0.112  -2.953  -3.324  1.00  0.00     0.236 C 
HETATM   32  C32 UNL     1       1.525  -3.480  -3.054  1.00  0.00     0.225 C 
HETATM   33  C33 UNL     1       2.836  -1.431  -3.457  1.00  0.00     0.235 C 
HETATM   34  C34 UNL     1       4.066  -0.632  -2.990  1.00  0.00     0.225 C 
HETATM   35  C35 UNL     1       4.771  -1.412  -0.743  1.00  0.00     0.241 C 
HETATM   36  C36 UNL     1       4.963  -1.072   0.751  1.00  0.00     0.180 C 
HETATM   37  C37 UNL     1       3.735  -1.533   1.553  1.00  0.00     0.073 C 
HETATM   38  C38 UNL     1       3.958  -1.499   3.049  1.00  0.00    -0.056 A 
HETATM   39  C39 UNL     1       4.810  -2.424   3.668  1.00  0.00     0.007 A 
HETATM   40  C40 UNL     1       5.003  -2.393   5.050  1.00  0.00     0.001 A 
HETATM   41  C41 UNL     1       4.347  -1.441   5.827  1.00  0.00     0.000 A 
HETATM   42  C42 UNL     1       3.499  -0.517   5.221  1.00  0.00     0.001 A 
HETATM   43  C43 UNL     1       3.304  -0.546   3.840  1.00  0.00     0.007 A 
HETATM   44  C44 UNL     1       4.560   1.402   0.961  1.00  0.00     0.241 C 
HETATM   45  C45 UNL     1       5.168   2.725   1.465  1.00  0.00     0.185 C 
HETATM   46  C46 UNL     1       5.824   3.420   0.266  1.00  0.00     0.105 C 
HETATM   47  C47 UNL     1       5.710   2.414   3.867  1.00  0.00     0.243 C 
HETATM   48  C48 UNL     1       6.818   2.167   4.902  1.00  0.00     0.200 C 
HETATM   49  C49 UNL     1       7.459   0.784   4.719  1.00  0.00     0.199 C 
HETATM   50  C50 UNL     1       7.026   2.340   7.376  1.00  0.00     0.253 C 
HETATM   51  C51 UNL     1       6.233   2.604   8.672  1.00  0.00     0.332 C 
HETATM   52  C52 UNL     1       7.181   2.678   9.878  1.00  0.00     0.209 C 
HETATM   53  O1  UNL     1       1.894   1.602  -2.434  1.00  0.00    -0.271 OA
HETATM   54  O2  UNL     1       0.200  -1.149   1.418  1.00  0.00    -0.271 OA
HETATM   55  O3  UNL     1      -3.958  -3.871  -0.186  1.00  0.00    -0.271 OA
HETATM   56  O4  UNL     1      -6.318  -2.655  -3.579  1.00  0.00    -0.305 OA
HETATM   57  O5  UNL     1      -2.173  -0.129  -3.569  1.00  0.00    -0.271 OA
HETATM   58  O6  UNL     1      -0.724  -2.794  -2.439  1.00  0.00    -0.272 OA
HETATM   59  O7  UNL     1       2.331  -1.272  -4.571  1.00  0.00    -0.272 OA
HETATM   60  O8  UNL     1       4.975  -2.552  -1.169  1.00  0.00    -0.271 OA
HETATM   61  O9  UNL     1       3.483   1.358   0.373  1.00  0.00    -0.271 OA
HETATM   62  O10 UNL     1       4.536   2.576   4.197  1.00  0.00    -0.271 OA
HETATM   63  O11 UNL     1       8.858   0.845   4.997  1.00  0.00    -0.398 OA
HETATM   64  O12 UNL     1       8.236   2.127   7.341  1.00  0.00    -0.271 OA
HETATM   65  O13 UNL     1       8.068   3.791   9.773  1.00  0.00    -0.398 OA
HETATM   66  N1  UNL     1      -0.058   0.582  -1.800  1.00  0.00    -0.345 N 
HETATM   67  N2  UNL     1      -1.453  -1.248  -0.171  1.00  0.00    -0.346 N 
HETATM   68  N3  UNL     1      -3.969  -1.758  -1.055  1.00  0.00    -0.348 N 
HETATM   69  N4  UNL     1      -7.923  -0.804   0.347  1.00  0.00    -0.372 N 
ATOM     70  H4  UNL     1      -7.214  -0.110   0.586  1.00  0.00     0.161 HD
HETATM   71  N5  UNL     1      -8.212  -1.312   2.555  1.00  0.00    -0.279 NA
HETATM   72  N6  UNL     1      -9.490  -2.418   1.136  1.00  0.00    -0.279 NA
HETATM   73  N7  UNL     1      -0.220   0.296  -4.704  1.00  0.00    -0.346 N 
HETATM   74  N8  UNL     1      -5.095  -0.950  -7.138  1.00  0.00    -0.372 N 
ATOM     75  H8  UNL     1      -4.703  -0.758  -8.060  1.00  0.00     0.161 HD
HETATM   76  N9  UNL     1      -7.159  -0.942  -8.076  1.00  0.00    -0.279 NA
HETATM   77  N10 UNL     1      -7.108  -1.364  -5.912  1.00  0.00    -0.279 NA
HETATM   78  N11 UNL     1      -0.085  -2.571  -4.639  1.00  0.00    -0.346 N 
HETATM   79  N12 UNL     1       2.420  -2.431  -2.600  1.00  0.00    -0.351 N 
HETATM   80  N13 UNL     1       4.212  -0.461  -1.552  1.00  0.00    -0.351 N 
HETATM   81  N14 UNL     1       5.392   0.306   1.043  1.00  0.00    -0.346 N 
HETATM   82  N15 UNL     1       6.128   2.468   2.553  1.00  0.00    -0.345 N 
HETATM   83  N16 UNL     1       6.249   2.335   6.239  1.00  0.00    -0.344 N 
HETATM   84  N17 UNL     1       5.226   1.532   8.848  1.00  0.00     0.094 N 
HETATM   85  S1  UNL     1      -1.463   2.467   0.269  1.00  0.00    -0.180 SA
HETATM   86  S2  UNL     1       6.435   5.088   0.681  1.00  0.00    -0.180 SA
HETATM   87  H58 UNL     1       8.942   1.193   5.914  1.00  0.00     0.209 HD
HETATM   88  H59 UNL     1       8.726   3.555   9.090  1.00  0.00     0.209 HD
HETATM   89  H60 UNL     1      -1.054   0.549  -2.012  1.00  0.00     0.163 HD
HETATM   90  H61 UNL     1      -1.411  -1.331  -1.189  1.00  0.00     0.163 HD
HETATM   91  H62 UNL     1      -3.545  -0.842  -0.935  1.00  0.00     0.163 HD
HETATM   92  H63 UNL     1      -8.088  -2.195   3.038  1.00  0.00     0.126 HD
HETATM   93  H64 UNL     1      -7.377  -0.744   2.652  1.00  0.00     0.126 HD
HETATM   94  H65 UNL     1     -10.167  -2.364   1.889  1.00  0.00     0.126 HD
HETATM   95  H66 UNL     1      -9.956  -2.432   0.238  1.00  0.00     0.126 HD
HETATM   96  H67 UNL     1       0.594  -0.215  -5.040  1.00  0.00     0.163 HD
HETATM   97  H68 UNL     1      -6.617  -0.564  -8.847  1.00  0.00     0.126 HD
HETATM   98  H69 UNL     1      -7.949  -0.342  -7.871  1.00  0.00     0.126 HD
HETATM   99  H70 UNL     1      -7.886  -1.975  -6.128  1.00  0.00     0.126 HD
HETATM  100  H71 UNL     1      -6.604  -1.760  -5.115  1.00  0.00     0.126 HD
HETATM  101  H72 UNL     1       0.774  -2.356  -5.144  1.00  0.00     0.163 HD
HETATM  102  H73 UNL     1       3.127  -2.715  -1.924  1.00  0.00     0.163 HD
HETATM  103  H74 UNL     1       3.750   0.346  -1.125  1.00  0.00     0.163 HD
HETATM  104  H75 UNL     1       6.101   0.381   1.760  1.00  0.00     0.163 HD
HETATM  105  H76 UNL     1       7.117   2.404   2.333  1.00  0.00     0.163 HD
HETATM  106  H77 UNL     1       5.289   2.669   6.283  1.00  0.00     0.163 HD
HETATM  107  H78 UNL     1       5.706   0.641   8.975  1.00  0.00     0.314 HD
HETATM  108  H79 UNL     1       4.675   1.435   7.996  1.00  0.00     0.314 HD
HETATM  109  H80 UNL     1      -2.130   1.482   0.891  1.00  0.00     0.101 HD
HETATM  110  H81 UNL     1       7.156   4.742   1.756  1.00  0.00     0.101 HD
ENDROOT
TORSDOF 44
