REMARK  17 active torsions:
REMARK  status: ('A' for Active; 'I' for Inactive)
REMARK    1  A    between atoms: C3_3  and  N7_41 
REMARK    2  A    between atoms: C6_6  and  N1_32 
REMARK    3  A    between atoms: C7_7  and  N1_32 
REMARK    4  A    between atoms: C12_12  and  C13_13 
REMARK    5  A    between atoms: C12_12  and  N4_37 
REMARK    6  A    between atoms: C15_15  and  N6_40 
REMARK    7  A    between atoms: C16_16  and  O2_53 
REMARK    8  A    between atoms: C17_17  and  O1_52 
REMARK    9  A    between atoms: C18_18  and  C19_19 
REMARK       I    between atoms: C18_18  and  N6_40 
REMARK   10  A    between atoms: C19_19  and  O4_55 
REMARK   11  A    between atoms: C20_20  and  N7_41 
REMARK   12  A    between atoms: C25_25  and  N10_46 
REMARK   13  A    between atoms: C27_27  and  N12_49 
REMARK   14  A    between atoms: C28_28  and  O6_57 
REMARK   15  A    between atoms: C29_29  and  O5_56 
REMARK   16  A    between atoms: C30_30  and  C31_31 
REMARK       I    between atoms: C30_30  and  N12_49 
REMARK   17  A    between atoms: C31_31  and  O8_59 
ROOT
HETATM    1  C1  UNL     1      -0.216  -4.027   1.252  1.00  0.00     0.021 C 
HETATM    2  C2  UNL     1       1.043  -3.183   1.475  1.00  0.00     0.021 C 
HETATM    3  C3  UNL     1       1.754  -2.766   0.173  1.00  0.00     0.062 C 
HETATM    4  C4  UNL     1       1.471  -3.786  -0.936  1.00  0.00     0.021 C 
HETATM    5  C5  UNL     1      -0.021  -3.894  -1.263  1.00  0.00     0.021 C 
HETATM    6  C6  UNL     1      -0.948  -3.685  -0.051  1.00  0.00     0.062 C 
ENDROOT
BRANCH   6   7
HETATM    7  N1  UNL     1      -1.404  -2.297   0.008  1.00  0.00    -0.272 NA
HETATM    8  H31 UNL     1      -1.446  -1.871   0.934  1.00  0.00     0.129 HD
BRANCH   7   9
HETATM    9  C7  UNL     1      -2.561  -1.974  -0.708  1.00  0.00     0.113 A 
HETATM   10  C8  UNL     1      -3.398  -0.915  -0.300  1.00  0.00     0.117 A 
HETATM   11  C9  UNL     1      -4.511  -0.650  -1.081  1.00  0.00     0.141 A 
HETATM   12  N5  UNL     1      -3.344  -0.054   0.777  1.00  0.00    -0.346 N 
HETATM   13  N2  UNL     1      -4.894  -1.294  -2.193  1.00  0.00    -0.317 N 
HETATM   14  N4  UNL     1      -5.131   0.403  -0.466  1.00  0.00    -0.327 N 
HETATM   15  C10 UNL     1      -4.023  -2.280  -2.484  1.00  0.00     0.181 A 
ATOM     16  H2  UNL     1      -5.725  -1.070  -2.740  1.00  0.00     0.170 HD
HETATM   17  N3  UNL     1      -2.912  -2.660  -1.824  1.00  0.00    -0.321 N 
HETATM   18 CL1  UNL     1      -4.401  -3.202  -3.876  1.00  0.00    -0.045 Cl
ATOM     19  H3  UNL     1      -2.349  -3.444  -2.155  1.00  0.00     0.169 HD
HETATM   20  C11 UNL     1      -4.389   0.734   0.635  1.00  0.00     0.185 A 
ATOM     21  H5  UNL     1      -2.646  -0.033   1.521  1.00  0.00     0.167 HD
BRANCH  14  22
HETATM   22  C12 UNL     1      -6.334   1.071  -0.917  1.00  0.00     0.138 C 
BRANCH  22  23
HETATM   23  C13 UNL     1      -7.601   0.202  -0.838  1.00  0.00     0.037 C 
HETATM   24  C14 UNL     1      -8.828   1.007  -1.323  1.00  0.00     0.036 C 
HETATM   25  C15 UNL     1      -9.683   1.321  -0.080  1.00  0.00     0.116 C 
HETATM   26  C16 UNL     1      -8.781   0.965   1.111  1.00  0.00     0.170 C 
HETATM   27  C17 UNL     1      -7.964  -0.216   0.590  1.00  0.00     0.154 C 
BRANCH  25  28
HETATM   28  N6  UNL     1     -10.131   2.702  -0.013  1.00  0.00    -0.352 N 
HETATM   29  C18 UNL     1     -10.987   3.229  -0.962  1.00  0.00     0.241 C 
HETATM   30  O3  UNL     1     -11.250   2.686  -2.029  1.00  0.00    -0.271 OA
HETATM   31  H32 UNL     1     -10.242   3.112   0.913  1.00  0.00     0.163 HD
BRANCH  29  32
HETATM   32  C19 UNL     1     -11.552   4.591  -0.560  1.00  0.00     0.266 C 
BRANCH  32  33
HETATM   33  O4  UNL     1     -11.723   4.702   0.850  1.00  0.00    -0.392 OA
HETATM   34  H37 UNL     1     -12.490   4.146   1.080  1.00  0.00     0.210 HD
ENDBRANCH  32  33
ENDBRANCH  29  32
ENDBRANCH  25  28
BRANCH  26  35
HETATM   35  O2  UNL     1      -9.544   0.610   2.258  1.00  0.00    -0.391 OA
HETATM   36  H36 UNL     1      -9.837  -0.311   2.096  1.00  0.00     0.210 HD
ENDBRANCH  26  35
BRANCH  27  37
HETATM   37  O1  UNL     1      -8.812  -1.370   0.565  1.00  0.00    -0.392 OA
HETATM   38  H35 UNL     1      -8.287  -2.112   0.209  1.00  0.00     0.210 HD
ENDBRANCH  27  37
ENDBRANCH  22  23
ENDBRANCH  14  22
ENDBRANCH   7   9
ENDBRANCH   6   7
BRANCH   3  39
HETATM   39  N7  UNL     1       3.200  -2.697   0.387  1.00  0.00    -0.272 NA
HETATM   40  H33 UNL     1       3.774  -2.953  -0.417  1.00  0.00     0.129 HD
BRANCH  39  41
HETATM   41  C20 UNL     1       3.697  -1.507   0.931  1.00  0.00     0.113 A 
HETATM   42  C21 UNL     1       4.990  -1.043   0.605  1.00  0.00     0.117 A 
HETATM   43  C22 UNL     1       5.411   0.135   1.202  1.00  0.00     0.141 A 
HETATM   44  N11 UNL     1       5.961  -1.538  -0.241  1.00  0.00    -0.346 N 
HETATM   45  N8  UNL     1       4.718   0.899   2.060  1.00  0.00    -0.317 N 
HETATM   46  N10 UNL     1       6.676   0.343   0.720  1.00  0.00    -0.320 N 
HETATM   47  C23 UNL     1       3.508   0.359   2.297  1.00  0.00     0.181 A 
ATOM     48  H8  UNL     1       5.060   1.766   2.474  1.00  0.00     0.170 HD
HETATM   49  N9  UNL     1       2.962  -0.766   1.797  1.00  0.00    -0.321 N 
HETATM   50 CL2  UNL     1       2.512   1.239   3.376  1.00  0.00    -0.045 Cl
ATOM     51  H9  UNL     1       2.020  -1.053   2.063  1.00  0.00     0.169 HD
HETATM   52  C24 UNL     1       6.955  -0.681  -0.148  1.00  0.00     0.185 A 
ATOM     53  H11 UNL     1       5.918  -2.382  -0.812  1.00  0.00     0.167 HD
BRANCH  46  54
HETATM   54  C25 UNL     1       7.546   1.453   1.066  1.00  0.00     0.125 C 
HETATM   55  C26 UNL     1       8.002   2.275  -0.157  1.00  0.00     0.056 C 
HETATM   56  C27 UNL     1       9.542   2.277  -0.128  1.00  0.00     0.118 C 
HETATM   57  C28 UNL     1       9.870   2.047   1.352  1.00  0.00     0.171 C 
HETATM   58  C29 UNL     1       8.835   1.002   1.774  1.00  0.00     0.172 C 
BRANCH  56  59
HETATM   59  N12 UNL     1      10.118   1.246  -0.989  1.00  0.00    -0.352 N 
HETATM   60  C30 UNL     1      10.070   1.388  -2.365  1.00  0.00     0.241 C 
HETATM   61  O7  UNL     1       9.447   2.283  -2.931  1.00  0.00    -0.271 OA
HETATM   62  H34 UNL     1      10.899   0.703  -0.632  1.00  0.00     0.163 HD
BRANCH  60  63
HETATM   63  C31 UNL     1      10.841   0.324  -3.147  1.00  0.00     0.266 C 
BRANCH  63  64
HETATM   64  O8  UNL     1      11.174   0.768  -4.452  1.00  0.00    -0.392 OA
HETATM   65  H40 UNL     1      10.425   1.324  -4.748  1.00  0.00     0.210 HD
ENDBRANCH  63  64
ENDBRANCH  60  63
ENDBRANCH  56  59
BRANCH  57  66
HETATM   66  O6  UNL     1       9.659   3.239   2.117  1.00  0.00    -0.391 OA
HETATM   67  H39 UNL     1      10.351   3.879   1.866  1.00  0.00     0.210 HD
ENDBRANCH  57  66
BRANCH  58  68
HETATM   68  O5  UNL     1       8.698   0.969   3.190  1.00  0.00    -0.391 OA
HETATM   69  H38 UNL     1       8.739   1.901   3.489  1.00  0.00     0.210 HD
ENDBRANCH  58  68
ENDBRANCH  46  54
ENDBRANCH  39  41
ENDBRANCH   3  39
TORSDOF 17
