REMARK  14 active torsions:
REMARK  status: ('A' for Active; 'I' for Inactive)
REMARK    1  A    between atoms: C3_3  and  C35_35 
REMARK    2  A    between atoms: C5_5  and  N2_47 
REMARK    3  A    between atoms: C6_6  and  C7_7 
REMARK       I    between atoms: C6_6  and  N2_47 
REMARK    4  A    between atoms: C9_9  and  N4_49 
REMARK       I    between atoms: C11_11  and  N4_49 
REMARK       I    between atoms: C11_11  and  N5_50 
REMARK    5  A    between atoms: C12_12  and  N5_50 
REMARK    6  A    between atoms: C14_14  and  C17_17 
REMARK       I    between atoms: C17_17  and  N7_52 
REMARK    7  A    between atoms: C18_18  and  N7_52 
REMARK    8  A    between atoms: C20_20  and  C23_23 
REMARK       I    between atoms: C23_23  and  N9_54 
REMARK    9  A    between atoms: C24_24  and  N9_54 
REMARK   10  A    between atoms: C28_28  and  S2_74 
REMARK   11  A    between atoms: C29_29  and  S1_73 
REMARK       I    between atoms: C35_35  and  N10_55 
REMARK   12  A    between atoms: C36_36  and  N10_55 
REMARK   13  A    between atoms: C40_40  and  S4_76 
REMARK   14  A    between atoms: C41_41  and  S3_75 
ROOT
HETATM    1  C11 UNL     1       0.265   0.500  -0.679  1.00  0.00     0.327 C 
HETATM    2  N4  UNL     1      -0.813   1.051  -1.365  1.00  0.00    -0.294 N 
HETATM    3  N5  UNL     1       1.377   0.469  -1.518  1.00  0.00    -0.294 N 
HETATM    4  O2  UNL     1       0.237   0.107   0.480  1.00  0.00    -0.247 OA
HETATM    5  H32 UNL     1      -0.562   1.771  -2.028  1.00  0.00     0.172 HD
HETATM    6  H33 UNL     1       1.204   0.622  -2.498  1.00  0.00     0.172 HD
ENDROOT
BRANCH   2   7
HETATM    7  C9  UNL     1      -2.117   1.113  -0.898  1.00  0.00     0.111 A 
HETATM    8  C10 UNL     1      -3.045   2.063  -1.282  1.00  0.00     0.067 A 
HETATM    9  C7  UNL     1      -4.274   1.825  -0.599  1.00  0.00     0.051 A 
HETATM   10  C8  UNL     1      -4.051   0.700   0.175  1.00  0.00     0.109 A 
HETATM   11  N3  UNL     1      -2.763   0.249  -0.042  1.00  0.00    -0.346 N 
HETATM   12  C34 UNL     1      -2.295  -1.015   0.487  1.00  0.00     0.157 C 
BRANCH   9  13
HETATM   13  C6  UNL     1      -5.489   2.643  -0.715  1.00  0.00     0.258 C 
HETATM   14  N2  UNL     1      -6.608   2.073  -0.137  1.00  0.00    -0.309 N 
HETATM   15  H31 UNL     1      -6.544   1.088   0.080  1.00  0.00     0.170 HD
HETATM   16  O1  UNL     1      -5.454   3.702  -1.331  1.00  0.00    -0.267 OA
BRANCH  14  17
HETATM   17  C5  UNL     1      -7.883   2.617  -0.097  1.00  0.00     0.110 A 
HETATM   18  C4  UNL     1      -9.046   1.880   0.072  1.00  0.00     0.067 A 
HETATM   19  C3  UNL     1     -10.171   2.756   0.016  1.00  0.00     0.051 A 
HETATM   20  C2  UNL     1      -9.632   4.021  -0.130  1.00  0.00     0.109 A 
HETATM   21  N1  UNL     1      -8.259   3.941  -0.155  1.00  0.00    -0.346 N 
HETATM   22  C1  UNL     1      -7.433   5.126  -0.081  1.00  0.00     0.157 C 
BRANCH  19  23
HETATM   23  C35 UNL     1     -11.617   2.491   0.108  1.00  0.00     0.257 C 
HETATM   24  N10 UNL     1     -11.939   1.150   0.037  1.00  0.00    -0.323 N 
HETATM   25  H36 UNL     1     -11.178   0.511  -0.122  1.00  0.00     0.169 HD
HETATM   26  O11 UNL     1     -12.407   3.420   0.222  1.00  0.00    -0.267 OA
BRANCH  24  27
HETATM   27  C36 UNL     1     -13.217   0.554   0.112  1.00  0.00     0.035 A 
HETATM   28  C37 UNL     1     -14.411   1.251   0.318  1.00  0.00     0.042 A 
HETATM   29  C38 UNL     1     -15.649   0.573   0.386  1.00  0.00    -0.022 A 
HETATM   30  C39 UNL     1     -16.865   1.249   0.588  1.00  0.00     0.040 A 
HETATM   31  C43 UNL     1     -15.679  -0.824   0.244  1.00  0.00    -0.024 A 
HETATM   32  C40 UNL     1     -18.110   0.572   0.659  1.00  0.00     0.105 A 
HETATM   33  C41 UNL     1     -18.130  -0.816   0.532  1.00  0.00     0.105 A 
HETATM   34  C42 UNL     1     -16.908  -1.496   0.318  1.00  0.00     0.040 A 
HETATM   35  C44 UNL     1     -14.482  -1.520   0.038  1.00  0.00     0.014 A 
HETATM   36  C45 UNL     1     -13.265  -0.838  -0.026  1.00  0.00     0.030 A 
BRANCH  32  37
HETATM   37  S4  UNL     1     -19.568   1.638   0.804  1.00  0.00     0.139 S 
HETATM   38  O15 UNL     1     -19.805   1.689   2.243  1.00  0.00    -0.591 OA
HETATM   39  O16 UNL     1     -20.588   1.045  -0.046  1.00  0.00    -0.591 OA
HETATM   40  O17 UNL     1     -19.078   2.917   0.266  1.00  0.00    -0.591 OA
ENDBRANCH  32  37
BRANCH  33  41
HETATM   41  S3  UNL     1     -19.580  -1.887   0.718  1.00  0.00     0.139 S 
HETATM   42  O12 UNL     1     -18.974  -3.160   1.145  1.00  0.00    -0.591 OA
HETATM   43  O13 UNL     1     -20.123  -1.956  -0.635  1.00  0.00    -0.591 OA
HETATM   44  O14 UNL     1     -20.396  -1.296   1.765  1.00  0.00    -0.591 OA
ENDBRANCH  33  41
ENDBRANCH  24  27
ENDBRANCH  19  23
ENDBRANCH  14  17
ENDBRANCH   9  13
ENDBRANCH   2   7
BRANCH   3  45
HETATM   45  C12 UNL     1       2.636   0.051  -1.119  1.00  0.00     0.111 A 
HETATM   46  C13 UNL     1       3.135  -0.281   0.125  1.00  0.00     0.067 A 
HETATM   47  C14 UNL     1       4.513  -0.643  -0.003  1.00  0.00     0.051 A 
HETATM   48  C15 UNL     1       4.804  -0.523  -1.353  1.00  0.00     0.109 A 
HETATM   49  N6  UNL     1       3.675  -0.093  -2.010  1.00  0.00    -0.346 N 
HETATM   50  C16 UNL     1       3.619   0.149  -3.436  1.00  0.00     0.157 C 
BRANCH  47  51
HETATM   51  C17 UNL     1       5.398  -1.071   1.093  1.00  0.00     0.258 C 
HETATM   52  N7  UNL     1       6.720  -1.221   0.718  1.00  0.00    -0.309 N 
HETATM   53  H34 UNL     1       6.975  -0.826  -0.176  1.00  0.00     0.170 HD
HETATM   54  O3  UNL     1       4.946  -1.229   2.220  1.00  0.00    -0.267 OA
BRANCH  52  55
HETATM   55  C18 UNL     1       7.784  -1.649   1.497  1.00  0.00     0.110 A 
HETATM   56  C19 UNL     1       9.115  -1.467   1.148  1.00  0.00     0.067 A 
HETATM   57  C20 UNL     1       9.950  -1.998   2.174  1.00  0.00     0.051 A 
HETATM   58  C21 UNL     1       9.077  -2.506   3.117  1.00  0.00     0.109 A 
HETATM   59  N8  UNL     1       7.780  -2.344   2.686  1.00  0.00    -0.346 N 
HETATM   60  C22 UNL     1       6.673  -2.968   3.377  1.00  0.00     0.157 C 
BRANCH  57  61
HETATM   61  C23 UNL     1      11.416  -2.049   2.302  1.00  0.00     0.257 C 
HETATM   62  N9  UNL     1      12.087  -1.650   1.162  1.00  0.00    -0.323 N 
HETATM   63  H35 UNL     1      11.525  -1.402   0.363  1.00  0.00     0.169 HD
HETATM   64  O4  UNL     1      11.933  -2.436   3.344  1.00  0.00    -0.267 OA
BRANCH  62  65
HETATM   65  C24 UNL     1      13.480  -1.593   0.944  1.00  0.00     0.035 A 
HETATM   66  C25 UNL     1      13.904  -1.195  -0.332  1.00  0.00     0.042 A 
HETATM   67  C26 UNL     1      15.269  -1.112  -0.659  1.00  0.00    -0.022 A 
HETATM   68  C27 UNL     1      15.697  -0.724  -1.938  1.00  0.00     0.040 A 
HETATM   69  C31 UNL     1      16.231  -1.432   0.310  1.00  0.00    -0.024 A 
HETATM   70  C28 UNL     1      17.067  -0.645  -2.286  1.00  0.00     0.105 A 
HETATM   71  C29 UNL     1      18.024  -0.949  -1.319  1.00  0.00     0.105 A 
HETATM   72  C30 UNL     1      17.590  -1.344  -0.030  1.00  0.00     0.040 A 
HETATM   73  C32 UNL     1      15.803  -1.824   1.589  1.00  0.00     0.014 A 
HETATM   74  C33 UNL     1      14.440  -1.904   1.904  1.00  0.00     0.030 A 
BRANCH  70  75
HETATM   75  S2  UNL     1      17.393  -0.249  -4.024  1.00  0.00     0.139 S 
HETATM   76  O8  UNL     1      17.556   1.202  -4.011  1.00  0.00    -0.591 OA
HETATM   77  O9  UNL     1      16.142  -0.667  -4.678  1.00  0.00    -0.591 OA
HETATM   78  O10 UNL     1      18.521  -1.072  -4.426  1.00  0.00    -0.591 OA
ENDBRANCH  70  75
BRANCH  71  79
HETATM   79  S1  UNL     1      19.817  -0.787  -1.515  1.00  0.00     0.139 S 
HETATM   80  O5  UNL     1      20.214  -2.086  -2.052  1.00  0.00    -0.591 OA
HETATM   81  O6  UNL     1      20.267  -0.589  -0.128  1.00  0.00    -0.591 OA
HETATM   82  O7  UNL     1      20.030   0.396  -2.332  1.00  0.00    -0.591 OA
ENDBRANCH  71  79
ENDBRANCH  62  65
ENDBRANCH  57  61
ENDBRANCH  52  55
ENDBRANCH  47  51
ENDBRANCH   3  45
TORSDOF 14
