REMARK  14 active torsions:
REMARK  status: ('A' for Active; 'I' for Inactive)
REMARK    1  A    between atoms: C3_3  and  N9_40 
REMARK    2  A    between atoms: C5_5  and  C6_6 
REMARK       I    between atoms: C6_6  and  N2_32 
REMARK    3  A    between atoms: C7_7  and  N2_32 
REMARK    4  A    between atoms: C9_9  and  C11_11 
REMARK       I    between atoms: C11_11  and  N4_34 
REMARK    5  A    between atoms: C12_12  and  N4_34 
REMARK    6  A    between atoms: C14_14  and  C16_16 
REMARK       I    between atoms: C16_16  and  N6_36 
REMARK    7  A    between atoms: C17_17  and  C18_18 
REMARK    8  A    between atoms: C17_17  and  N6_36 
REMARK    9  A    between atoms: C18_18  and  C19_19 
REMARK   10  A    between atoms: C19_19  and  N8_39 
REMARK   11  A    between atoms: C22_22  and  C23_23 
REMARK       I    between atoms: C22_22  and  N9_40 
REMARK   12  A    between atoms: C26_26  and  N10_41 
REMARK       I    between atoms: C29_29  and  N10_41 
REMARK       I    between atoms: C29_29  and  N11_42 
REMARK   13  A    between atoms: N11_42  and  N12_43 
REMARK   14  A    between atoms: N12_43  and  O6_50 
ROOT
HETATM    1  C6  UNL     1      -1.528  -0.592  -3.175  1.00  0.00     0.273 C 
HETATM    2  N2  UNL     1      -0.855  -0.668  -1.969  1.00  0.00    -0.320 N 
HETATM    3  O1  UNL     1      -1.033  -0.860  -4.266  1.00  0.00    -0.266 OA
HETATM    4  H27 UNL     1      -1.321  -0.333  -1.140  1.00  0.00     0.169 HD
ENDROOT
BRANCH   2   5
HETATM    5  C7  UNL     1       0.442  -1.111  -1.787  1.00  0.00     0.053 A 
HETATM    6  C8  UNL     1       1.310  -1.621  -2.721  1.00  0.00     0.120 A 
HETATM    7  N3  UNL     1       2.477  -1.966  -2.088  1.00  0.00    -0.354 N 
HETATM    8  C9  UNL     1       2.409  -1.615  -0.755  1.00  0.00     0.105 A 
HETATM    9  C21 UNL     1       3.560  -2.676  -2.735  1.00  0.00     0.156 C 
HETATM   10  C10 UNL     1       1.124  -1.132  -0.547  1.00  0.00     0.066 A 
BRANCH   8  11
HETATM   11  C11 UNL     1       3.446  -1.777   0.249  1.00  0.00     0.273 C 
HETATM   12  N4  UNL     1       4.668  -1.274  -0.159  1.00  0.00    -0.320 N 
HETATM   13  H28 UNL     1       4.690  -0.745  -1.020  1.00  0.00     0.169 HD
HETATM   14  O2  UNL     1       3.205  -2.267   1.346  1.00  0.00    -0.266 OA
BRANCH  12  15
HETATM   15  C12 UNL     1       5.846  -1.323   0.560  1.00  0.00     0.053 A 
HETATM   16  C13 UNL     1       6.080  -1.935   1.764  1.00  0.00     0.120 A 
HETATM   17  N5  UNL     1       7.390  -1.724   2.112  1.00  0.00    -0.354 N 
HETATM   18  C14 UNL     1       8.037  -0.990   1.132  1.00  0.00     0.104 A 
HETATM   19  C20 UNL     1       7.985  -2.224   3.335  1.00  0.00     0.156 C 
HETATM   20  C15 UNL     1       7.071  -0.732   0.162  1.00  0.00     0.066 A 
BRANCH  18  21
HETATM   21  C16 UNL     1       9.435  -0.594   1.190  1.00  0.00     0.268 C 
HETATM   22  N6  UNL     1       9.937  -0.035   0.034  1.00  0.00    -0.355 N 
HETATM   23  H29 UNL     1       9.362  -0.021  -0.794  1.00  0.00     0.162 HD
HETATM   24  O3  UNL     1      10.142  -0.739   2.186  1.00  0.00    -0.266 OA
BRANCH  22  25
HETATM   25  C17 UNL     1      11.335   0.340  -0.109  1.00  0.00     0.130 C 
BRANCH  25  26
HETATM   26  C18 UNL     1      11.707   1.574   0.709  1.00  0.00     0.089 C 
BRANCH  26  27
HETATM   27  C19 UNL     1      12.769   1.227   1.730  1.00  0.00     0.049 C 
HETATM   28  N7  UNL     1      14.008   1.431   1.436  1.00  0.00    -0.393 N 
HETATM   29  H30 UNL     1      14.591   1.173   2.236  1.00  0.00     0.157 HD
ATOM     30  H7  UNL     1      14.352   1.792   0.546  1.00  0.00     0.157 HD
BRANCH  27  31
HETATM   31  N8  UNL     1      12.393   0.683   2.920  1.00  0.00    -0.293 NA
HETATM   32  H31 UNL     1      11.487   0.196   2.891  1.00  0.00     0.125 HD
HETATM   33  H32 UNL     1      13.086   0.116   3.389  1.00  0.00     0.125 HD
ENDBRANCH  27  31
ENDBRANCH  26  27
ENDBRANCH  25  26
ENDBRANCH  22  25
ENDBRANCH  18  21
ENDBRANCH  12  15
ENDBRANCH   8  11
ENDBRANCH   2   5
BRANCH   1  34
HETATM   34  C5  UNL     1      -2.909  -0.129  -3.046  1.00  0.00     0.105 A 
HETATM   35  C4  UNL     1      -3.744  -0.101  -1.932  1.00  0.00     0.066 A 
HETATM   36  C3  UNL     1      -5.001   0.433  -2.311  1.00  0.00     0.053 A 
HETATM   37  C2  UNL     1      -4.919   0.714  -3.651  1.00  0.00     0.120 A 
HETATM   38  N1  UNL     1      -3.669   0.365  -4.093  1.00  0.00    -0.354 N 
HETATM   39  C1  UNL     1      -3.228   0.525  -5.464  1.00  0.00     0.156 C 
BRANCH  36  40
HETATM   40  N9  UNL     1      -6.081   0.608  -1.466  1.00  0.00    -0.322 N 
HETATM   41  C22 UNL     1      -7.287   1.186  -1.818  1.00  0.00     0.256 C 
HETATM   42  O4  UNL     1      -7.581   1.690  -2.895  1.00  0.00    -0.267 OA
HETATM   43  H33 UNL     1      -5.934   0.341  -0.502  1.00  0.00     0.169 HD
BRANCH  41  44
HETATM   44  C23 UNL     1      -8.302   1.206  -0.729  1.00  0.00     0.032 A 
HETATM   45  C24 UNL     1      -9.118   2.331  -0.591  1.00  0.00     0.019 A 
HETATM   46  C25 UNL     1     -10.083   2.383   0.422  1.00  0.00     0.030 A 
HETATM   47  C26 UNL     1     -10.248   1.309   1.300  1.00  0.00     0.036 A 
HETATM   48  C27 UNL     1      -9.449   0.169   1.135  1.00  0.00     0.030 A 
HETATM   49  C28 UNL     1      -8.477   0.115   0.129  1.00  0.00     0.019 A 
BRANCH  47  50
HETATM   50  N10 UNL     1     -11.216   1.279   2.327  1.00  0.00    -0.307 N 
HETATM   51  C29 UNL     1     -11.925   2.366   2.841  1.00  0.00     0.342 C 
HETATM   52  N11 UNL     1     -12.981   1.987   3.691  1.00  0.00    -0.228 N 
HETATM   53  O5  UNL     1     -11.638   3.529   2.567  1.00  0.00    -0.245 OA
HETATM   54  C30 UNL     1     -13.506   0.635   3.793  1.00  0.00     0.185 C 
HETATM   55  H34 UNL     1     -11.229   0.441   2.888  1.00  0.00     0.170 HD
BRANCH  52  56
HETATM   56  N12 UNL     1     -13.718   2.995   4.524  1.00  0.00    -0.204 N 
ATOM     57  H12 UNL     1     -14.562   2.762   5.048  1.00  0.00     0.216 HD
BRANCH  56  58
HETATM   58  O6  UNL     1     -13.226   4.125   4.527  1.00  0.00    -0.274 OA
ATOM     59  H6  UNL     1     -13.692   4.763   5.054  1.00  0.00     0.246 HD
ENDBRANCH  56  58
ENDBRANCH  52  56
ENDBRANCH  47  50
ENDBRANCH  41  44
ENDBRANCH  36  40
ENDBRANCH   1  34
TORSDOF 14
