REMARK  16 active torsions:
REMARK  status: ('A' for Active; 'I' for Inactive)
REMARK    1  A    between atoms: C3_3  and  C35_35 
REMARK    2  A    between atoms: C5_5  and  N2_47 
REMARK    3  A    between atoms: C6_6  and  C7_7 
REMARK       I    between atoms: C6_6  and  N2_47 
REMARK    4  A    between atoms: C9_9  and  N4_49 
REMARK       I    between atoms: C11_11  and  N4_49 
REMARK       I    between atoms: C11_11  and  N5_50 
REMARK    5  A    between atoms: C12_12  and  N5_50 
REMARK    6  A    between atoms: C14_14  and  C17_17 
REMARK       I    between atoms: C17_17  and  N7_52 
REMARK    7  A    between atoms: C18_18  and  N7_52 
REMARK    8  A    between atoms: C20_20  and  C23_23 
REMARK       I    between atoms: C23_23  and  N9_54 
REMARK    9  A    between atoms: C24_24  and  N9_54 
REMARK   10  A    between atoms: C25_25  and  S3_81 
REMARK   11  A    between atoms: C29_29  and  S2_80 
REMARK   12  A    between atoms: C31_31  and  S1_79 
REMARK       I    between atoms: C35_35  and  N10_55 
REMARK   13  A    between atoms: C36_36  and  N10_55 
REMARK   14  A    between atoms: C37_37  and  S6_84 
REMARK   15  A    between atoms: C41_41  and  S5_83 
REMARK   16  A    between atoms: C43_43  and  S4_82 
ROOT
HETATM    1  C11 UNL     1      -0.172   0.502  -0.455  1.00  0.00     0.327 C 
HETATM    2  N4  UNL     1      -1.397  -0.158  -0.464  1.00  0.00    -0.294 N 
HETATM    3  N5  UNL     1       0.827  -0.392  -0.826  1.00  0.00    -0.294 N 
HETATM    4  O2  UNL     1      -0.004   1.679  -0.170  1.00  0.00    -0.247 OA
HETATM    5  H30 UNL     1      -1.344  -1.140  -0.229  1.00  0.00     0.172 HD
HETATM    6  H31 UNL     1       0.513  -1.120  -1.455  1.00  0.00     0.172 HD
ENDROOT
BRANCH   2   7
HETATM    7  C9  UNL     1      -2.645   0.431  -0.323  1.00  0.00     0.111 A 
HETATM    8  C10 UNL     1      -3.783  -0.220   0.130  1.00  0.00     0.067 A 
HETATM    9  C7  UNL     1      -4.880   0.694   0.128  1.00  0.00     0.051 A 
HETATM   10  C8  UNL     1      -4.363   1.875  -0.373  1.00  0.00     0.109 A 
HETATM   11  N3  UNL     1      -3.030   1.707  -0.671  1.00  0.00    -0.346 N 
HETATM   12  C34 UNL     1      -2.279   2.714  -1.388  1.00  0.00     0.157 C 
BRANCH   9  13
HETATM   13  C6  UNL     1      -6.290   0.506   0.515  1.00  0.00     0.258 C 
HETATM   14  N2  UNL     1      -6.485  -0.606   1.314  1.00  0.00    -0.309 N 
HETATM   15  H29 UNL     1      -5.664  -1.067   1.667  1.00  0.00     0.170 HD
HETATM   16  O1  UNL     1      -7.142   1.317   0.177  1.00  0.00    -0.267 OA
BRANCH  14  17
HETATM   17  C5  UNL     1      -7.722  -1.051   1.755  1.00  0.00     0.110 A 
HETATM   18  C4  UNL     1      -9.018  -0.701   1.407  1.00  0.00     0.067 A 
HETATM   19  C3  UNL     1      -9.931  -1.484   2.186  1.00  0.00     0.051 A 
HETATM   20  C2  UNL     1      -9.136  -2.281   2.994  1.00  0.00     0.109 A 
HETATM   21  N1  UNL     1      -7.824  -2.038   2.712  1.00  0.00    -0.346 N 
HETATM   22  C1  UNL     1      -6.729  -2.711   3.371  1.00  0.00     0.157 C 
BRANCH  19  23
HETATM   23  C35 UNL     1     -11.404  -1.528   2.238  1.00  0.00     0.257 C 
HETATM   24  N10 UNL     1     -12.038  -0.994   1.140  1.00  0.00    -0.321 N 
HETATM   25  H34 UNL     1     -11.440  -0.734   0.346  1.00  0.00     0.169 HD
HETATM   26  O14 UNL     1     -11.946  -2.067   3.197  1.00  0.00    -0.267 OA
BRANCH  24  27
HETATM   27  C36 UNL     1     -13.430  -0.904   0.864  1.00  0.00     0.060 A 
HETATM   28  C37 UNL     1     -13.868  -0.554  -0.421  1.00  0.00     0.108 A 
HETATM   29  C38 UNL     1     -15.238  -0.452  -0.712  1.00  0.00     0.041 A 
HETATM   30  C39 UNL     1     -16.215  -0.686   0.266  1.00  0.00    -0.021 A 
HETATM   31  C40 UNL     1     -17.572  -0.569  -0.087  1.00  0.00     0.038 A 
HETATM   32  C44 UNL     1     -15.832  -1.034   1.588  1.00  0.00     0.001 A 
HETATM   33  C41 UNL     1     -18.582  -0.783   0.853  1.00  0.00     0.083 A 
HETATM   34  C42 UNL     1     -18.256  -1.130   2.161  1.00  0.00     0.053 A 
HETATM   35  C43 UNL     1     -16.899  -1.247   2.529  1.00  0.00     0.093 A 
HETATM   36  C45 UNL     1     -14.422  -1.138   1.843  1.00  0.00     0.045 A 
BRANCH  28  37
HETATM   37  S6  UNL     1     -12.745  -0.233  -1.817  1.00  0.00     0.140 S 
HETATM   38  O21 UNL     1     -11.405  -0.324  -1.232  1.00  0.00    -0.591 OA
HETATM   39  O22 UNL     1     -13.070  -1.306  -2.753  1.00  0.00    -0.591 OA
HETATM   40  O23 UNL     1     -13.128   1.109  -2.248  1.00  0.00    -0.591 OA
ENDBRANCH  28  37
BRANCH  33  41
HETATM   41  S5  UNL     1     -20.320  -0.652   0.341  1.00  0.00     0.137 S 
HETATM   42  O18 UNL     1     -20.653   0.733   0.665  1.00  0.00    -0.591 OA
HETATM   43  O19 UNL     1     -20.287  -0.951  -1.091  1.00  0.00    -0.591 OA
HETATM   44  O20 UNL     1     -21.008  -1.662   1.143  1.00  0.00    -0.591 OA
ENDBRANCH  33  41
BRANCH  35  45
HETATM   45  S4  UNL     1     -16.550  -1.669   4.276  1.00  0.00     0.138 S 
HETATM   46  O15 UNL     1     -15.709  -0.564   4.730  1.00  0.00    -0.591 OA
HETATM   47  O16 UNL     1     -17.864  -1.708   4.920  1.00  0.00    -0.591 OA
HETATM   48  O17 UNL     1     -15.900  -2.974   4.179  1.00  0.00    -0.591 OA
ENDBRANCH  35  45
ENDBRANCH  24  27
ENDBRANCH  19  23
ENDBRANCH  14  17
ENDBRANCH   9  13
ENDBRANCH   2   7
BRANCH   3  49
HETATM   49  C12 UNL     1       2.185  -0.117  -0.882  1.00  0.00     0.111 A 
HETATM   50  C13 UNL     1       3.080  -0.754  -1.721  1.00  0.00     0.067 A 
HETATM   51  C14 UNL     1       4.384  -0.203  -1.535  1.00  0.00     0.051 A 
HETATM   52  C15 UNL     1       4.238   0.745  -0.538  1.00  0.00     0.109 A 
HETATM   53  N6  UNL     1       2.920   0.762  -0.118  1.00  0.00    -0.346 N 
HETATM   54  C16 UNL     1       2.498   1.518   1.042  1.00  0.00     0.157 C 
BRANCH  51  55
HETATM   55  C17 UNL     1       5.588  -0.588  -2.288  1.00  0.00     0.258 C 
HETATM   56  N7  UNL     1       6.758  -0.016  -1.829  1.00  0.00    -0.309 N 
HETATM   57  H32 UNL     1       6.734   0.408  -0.910  1.00  0.00     0.170 HD
HETATM   58  O3  UNL     1       5.484  -1.381  -3.218  1.00  0.00    -0.267 OA
BRANCH  56  59
HETATM   59  C18 UNL     1       8.031  -0.163  -2.364  1.00  0.00     0.110 A 
HETATM   60  C19 UNL     1       9.202   0.121  -1.674  1.00  0.00     0.067 A 
HETATM   61  C20 UNL     1      10.326  -0.169  -2.502  1.00  0.00     0.051 A 
HETATM   62  C21 UNL     1       9.780  -0.602  -3.699  1.00  0.00     0.109 A 
HETATM   63  N8  UNL     1       8.408  -0.544  -3.631  1.00  0.00    -0.346 N 
HETATM   64  C22 UNL     1       7.592  -0.720  -4.811  1.00  0.00     0.157 C 
BRANCH  61  65
HETATM   65  C23 UNL     1      11.780  -0.066  -2.263  1.00  0.00     0.257 C 
HETATM   66  N9  UNL     1      12.120   0.444  -1.030  1.00  0.00    -0.321 N 
HETATM   67  H33 UNL     1      11.348   0.690  -0.404  1.00  0.00     0.169 HD
HETATM   68  O4  UNL     1      12.556  -0.420  -3.143  1.00  0.00    -0.267 OA
BRANCH  66  69
HETATM   69  C24 UNL     1      13.398   0.706  -0.468  1.00  0.00     0.060 A 
HETATM   70  C25 UNL     1      13.490   1.232   0.831  1.00  0.00     0.108 A 
HETATM   71  C26 UNL     1      14.740   1.503   1.410  1.00  0.00     0.041 A 
HETATM   72  C27 UNL     1      15.935   1.265   0.718  1.00  0.00    -0.021 A 
HETATM   73  C28 UNL     1      17.157   1.559   1.351  1.00  0.00     0.038 A 
HETATM   74  C32 UNL     1      15.904   0.736  -0.600  1.00  0.00     0.001 A 
HETATM   75  C29 UNL     1      18.374   1.347   0.700  1.00  0.00     0.083 A 
HETATM   76  C30 UNL     1      18.395   0.821  -0.588  1.00  0.00     0.053 A 
HETATM   77  C31 UNL     1      17.177   0.525  -1.235  1.00  0.00     0.093 A 
HETATM   78  C33 UNL     1      14.607   0.468  -1.157  1.00  0.00     0.045 A 
BRANCH  70  79
HETATM   79  S3  UNL     1      12.046   1.612   1.875  1.00  0.00     0.140 S 
HETATM   80  O11 UNL     1      12.199   3.039   2.149  1.00  0.00    -0.591 OA
HETATM   81  O12 UNL     1      10.889   1.283   1.038  1.00  0.00    -0.591 OA
HETATM   82  O13 UNL     1      12.225   0.730   3.024  1.00  0.00    -0.591 OA
ENDBRANCH  70  79
BRANCH  75  83
HETATM   83  S2  UNL     1      19.924   1.719   1.571  1.00  0.00     0.137 S 
HETATM   84  O8  UNL     1      20.206   3.093   1.161  1.00  0.00    -0.591 OA
HETATM   85  O9  UNL     1      19.577   1.563   2.984  1.00  0.00    -0.591 OA
HETATM   86  O10 UNL     1      20.865   0.716   1.075  1.00  0.00    -0.591 OA
ENDBRANCH  75  83
BRANCH  77  87
HETATM   87  S1  UNL     1      17.284  -0.138  -2.937  1.00  0.00     0.138 S 
HETATM   88  O5  UNL     1      16.549   0.847  -3.727  1.00  0.00    -0.591 OA
HETATM   89  O6  UNL     1      18.717  -0.179  -3.233  1.00  0.00    -0.591 OA
HETATM   90  O7  UNL     1      16.668  -1.458  -2.820  1.00  0.00    -0.591 OA
ENDBRANCH  77  87
ENDBRANCH  66  69
ENDBRANCH  61  65
ENDBRANCH  56  59
ENDBRANCH  51  55
ENDBRANCH   3  49
TORSDOF 16
