REMARK  0 active torsions:
REMARK  status: ('A' for Active; 'I' for Inactive)
REMARK       I    between atoms: C1_1  and  C2_2 
REMARK       I    between atoms: C1_1  and  C4_4 
REMARK       I    between atoms: C2_2  and  C3_3 
REMARK       I    between atoms: C3_3  and  N1_43 
REMARK       I    between atoms: C4_4  and  C5_5 
REMARK       I    between atoms: C5_5  and  C6_6 
REMARK       I    between atoms: C5_5  and  N14_56 
REMARK       I    between atoms: C6_6  and  N2_44 
REMARK       I    between atoms: C7_7  and  C8_8 
REMARK       I    between atoms: C7_7  and  N2_44 
REMARK       I    between atoms: C8_8  and  C9_9 
REMARK       I    between atoms: C9_9  and  C10_10 
REMARK       I    between atoms: C10_10  and  C11_11 
REMARK       I    between atoms: C11_11  and  C12_12 
REMARK       I    between atoms: C11_11  and  N11_53 
REMARK       I    between atoms: C12_12  and  N3_45 
REMARK       I    between atoms: C13_13  and  C14_14 
REMARK       I    between atoms: C13_13  and  N3_45 
REMARK       I    between atoms: C14_14  and  C15_15 
REMARK       I    between atoms: C15_15  and  C16_16 
REMARK       I    between atoms: C16_16  and  C17_17 
REMARK       I    between atoms: C17_17  and  C18_18 
REMARK       I    between atoms: C17_17  and  N4_46 
REMARK       I    between atoms: C19_19  and  C20_20 
REMARK       I    between atoms: C19_19  and  N4_46 
REMARK       I    between atoms: C20_20  and  C21_21 
REMARK       I    between atoms: C20_20  and  N8_50 
REMARK       I    between atoms: C21_21  and  C22_22 
REMARK       I    between atoms: C22_22  and  C23_23 
REMARK       I    between atoms: C23_23  and  C24_24 
REMARK       I    between atoms: C24_24  and  N5_47 
REMARK       I    between atoms: C25_25  and  C26_26 
REMARK       I    between atoms: C25_25  and  N5_47 
REMARK       I    between atoms: C26_26  and  C27_27 
REMARK       I    between atoms: C26_26  and  N7_49 
REMARK       I    between atoms: C27_27  and  C28_28 
REMARK       I    between atoms: C28_28  and  C29_29 
REMARK       I    between atoms: C29_29  and  C30_30 
REMARK       I    between atoms: C30_30  and  N6_48 
REMARK       I    between atoms: C31_31  and  C32_32 
REMARK       I    between atoms: C31_31  and  N8_50 
REMARK       I    between atoms: C32_32  and  C33_33 
REMARK       I    between atoms: C32_32  and  N10_52 
REMARK       I    between atoms: C33_33  and  C34_34 
REMARK       I    between atoms: C34_34  and  C35_35 
REMARK       I    between atoms: C35_35  and  C36_36 
REMARK       I    between atoms: C36_36  and  N9_51 
REMARK       I    between atoms: C37_37  and  C38_38 
REMARK       I    between atoms: C37_37  and  N11_53 
REMARK       I    between atoms: C38_38  and  C39_39 
REMARK       I    between atoms: C38_38  and  N13_55 
REMARK       I    between atoms: C39_39  and  C40_40 
REMARK       I    between atoms: C40_40  and  C41_41 
REMARK       I    between atoms: C41_41  and  C42_42 
REMARK       I    between atoms: C42_42  and  N12_54 
ROOT
HETATM    1  C1  UNL     1      -7.245   3.218   3.882  1.00  0.00     0.004 C 
HETATM    2  C2  UNL     1      -6.689   4.190   4.928  1.00  0.00     0.030 C 
HETATM    3  C3  UNL     1      -5.402   3.734   5.626  1.00  0.00     0.267 C 
HETATM    4  C4  UNL     1      -6.350   3.074   2.642  1.00  0.00     0.045 C 
HETATM    5  C5  UNL     1      -6.593   1.744   1.913  1.00  0.00     0.308 C 
HETATM    6  C6  UNL     1      -5.804   0.599   2.612  1.00  0.00     0.250 C 
HETATM    7  C7  UNL     1      -4.376  -1.361   2.192  1.00  0.00     0.122 C 
HETATM    8  C8  UNL     1      -3.865  -2.224   1.043  1.00  0.00     0.020 C 
HETATM    9  C9  UNL     1      -4.957  -3.079   0.399  1.00  0.00     0.004 C 
HETATM   10  C10 UNL     1      -4.568  -3.672  -0.964  1.00  0.00     0.035 C 
HETATM   11  C11 UNL     1      -3.322  -4.577  -0.939  1.00  0.00     0.176 C 
HETATM   12  C12 UNL     1      -2.046  -3.764  -1.252  1.00  0.00     0.240 C 
HETATM   13  C13 UNL     1      -0.853  -2.536  -3.054  1.00  0.00     0.122 C 
HETATM   14  C14 UNL     1      -1.353  -1.130  -3.395  1.00  0.00     0.020 C 
HETATM   15  C15 UNL     1      -1.967  -0.346  -2.228  1.00  0.00     0.004 C 
HETATM   16  C16 UNL     1      -0.997   0.004  -1.091  1.00  0.00     0.032 C 
HETATM   17  C17 UNL     1      -0.014   1.127  -1.441  1.00  0.00     0.146 C 
HETATM   18  C18 UNL     1      -0.640   2.510  -1.256  1.00  0.00     0.256 C 
HETATM   19  C19 UNL     1       2.367   1.651  -0.959  1.00  0.00     0.241 C 
HETATM   20  C20 UNL     1       3.530   1.405   0.031  1.00  0.00     0.176 C 
HETATM   21  C21 UNL     1       4.856   1.932  -0.537  1.00  0.00     0.035 C 
HETATM   22  C22 UNL     1       6.118   1.362   0.127  1.00  0.00     0.004 C 
HETATM   23  C23 UNL     1       6.270   1.717   1.609  1.00  0.00     0.020 C 
HETATM   24  C24 UNL     1       7.681   1.446   2.140  1.00  0.00     0.122 C 
HETATM   25  C25 UNL     1       8.770   3.645   1.872  1.00  0.00     0.250 C 
HETATM   26  C26 UNL     1       9.699   4.472   0.951  1.00  0.00     0.308 C 
HETATM   27  C27 UNL     1       9.062   4.588  -0.444  1.00  0.00     0.045 C 
HETATM   28  C28 UNL     1       9.875   5.433  -1.426  1.00  0.00     0.004 C 
HETATM   29  C29 UNL     1       9.418   5.318  -2.887  1.00  0.00     0.030 C 
HETATM   30  C30 UNL     1       7.973   5.745  -3.158  1.00  0.00     0.267 C 
HETATM   31  C31 UNL     1       2.466   1.407   2.277  1.00  0.00     0.251 C 
HETATM   32  C32 UNL     1       2.337   2.184   3.607  1.00  0.00     0.308 C 
HETATM   33  C33 UNL     1       1.423   3.418   3.503  1.00  0.00     0.045 C 
HETATM   34  C34 UNL     1      -0.085   3.202   3.707  1.00  0.00     0.004 C 
HETATM   35  C35 UNL     1      -0.754   2.356   2.623  1.00  0.00     0.030 C 
HETATM   36  C36 UNL     1      -2.262   2.188   2.831  1.00  0.00     0.267 C 
HETATM   37  C37 UNL     1      -4.255  -6.714  -1.785  1.00  0.00     0.251 C 
HETATM   38  C38 UNL     1      -4.059  -7.861  -2.804  1.00  0.00     0.308 C 
HETATM   39  C39 UNL     1      -4.028  -7.345  -4.252  1.00  0.00     0.045 C 
HETATM   40  C40 UNL     1      -4.413  -8.384  -5.313  1.00  0.00     0.004 C 
HETATM   41  C41 UNL     1      -3.497  -9.602  -5.457  1.00  0.00     0.030 C 
HETATM   42  C42 UNL     1      -2.065  -9.240  -5.852  1.00  0.00     0.267 C 
HETATM   43  N1  UNL     1      -5.557   2.449   6.292  1.00  0.00     0.078 N 
HETATM   44  N2  UNL     1      -5.252  -0.306   1.725  1.00  0.00    -0.359 N 
HETATM   45  N3  UNL     1      -1.915  -3.402  -2.582  1.00  0.00    -0.359 N 
HETATM   46  N4  UNL     1       1.177   1.054  -0.600  1.00  0.00    -0.349 N 
HETATM   47  N5  UNL     1       8.668   2.312   1.529  1.00  0.00    -0.359 N 
HETATM   48  N6  UNL     1       7.012   4.707  -2.796  1.00  0.00     0.078 N 
HETATM   49  N7  UNL     1       9.927   5.803   1.550  1.00  0.00     0.092 N 
HETATM   50  N8  UNL     1       3.208   2.042   1.308  1.00  0.00    -0.346 N 
HETATM   51  N9  UNL     1      -2.546   1.409   4.029  1.00  0.00     0.078 N 
HETATM   52  N10 UNL     1       1.959   1.273   4.702  1.00  0.00     0.092 N 
HETATM   53  N11 UNL     1      -3.407  -5.636  -1.956  1.00  0.00    -0.346 N 
HETATM   54  N12 UNL     1      -1.282 -10.451  -6.071  1.00  0.00     0.078 N 
HETATM   55  N13 UNL     1      -2.833  -8.602  -2.453  1.00  0.00     0.092 N 
HETATM   56  N14 UNL     1      -6.168   1.846   0.491  1.00  0.00     0.092 N 
HETATM   57  O1  UNL     1      -5.689   0.503   3.831  1.00  0.00    -0.271 OA
HETATM   58  O2  UNL     1      -1.254  -3.415  -0.383  1.00  0.00    -0.271 OA
HETATM   59  O3  UNL     1      -1.811   2.783  -1.510  1.00  0.00    -0.305 OA
HETATM   60  O4  UNL     1       2.473   2.322  -1.983  1.00  0.00    -0.271 OA
HETATM   61  O5  UNL     1       8.163   4.140   2.821  1.00  0.00    -0.271 OA
HETATM   62  O6  UNL     1       1.969   0.299   2.084  1.00  0.00    -0.271 OA
HETATM   63  O7  UNL     1      -5.059  -6.790  -0.861  1.00  0.00    -0.271 OA
HETATM   64  H65 UNL     1      -4.687   2.193   6.757  1.00  0.00     0.312 HD
HETATM   65  H66 UNL     1      -5.709   1.710   5.593  1.00  0.00     0.312 HD
HETATM   66  H67 UNL     1      -5.034   0.140   0.836  1.00  0.00     0.162 HD
HETATM   67  H68 UNL     1      -2.685  -3.609  -3.209  1.00  0.00     0.162 HD
HETATM   68  H69 UNL     1       1.140   0.549   0.290  1.00  0.00     0.163 HD
HETATM   69  H70 UNL     1       9.130   1.988   0.689  1.00  0.00     0.162 HD
HETATM   70  H71 UNL     1       7.158   3.892  -3.391  1.00  0.00     0.312 HD
HETATM   71  H72 UNL     1       6.070   5.038  -3.009  1.00  0.00     0.312 HD
HETATM   72  H73 UNL     1      10.250   5.658   2.510  1.00  0.00     0.313 HD
HETATM   73  H74 UNL     1       9.010   6.239   1.678  1.00  0.00     0.313 HD
HETATM   74  H75 UNL     1       3.465   3.015   1.437  1.00  0.00     0.163 HD
HETATM   75  H76 UNL     1      -3.548   1.192   4.073  1.00  0.00     0.312 HD
HETATM   76  H77 UNL     1      -2.352   1.962   4.862  1.00  0.00     0.312 HD
HETATM   77  H78 UNL     1       1.062   0.839   4.463  1.00  0.00     0.313 HD
HETATM   78  H79 UNL     1       2.609   0.485   4.706  1.00  0.00     0.313 HD
HETATM   79  H80 UNL     1      -2.581  -5.795  -2.520  1.00  0.00     0.163 HD
HETATM   80  H81 UNL     1      -1.283 -11.009  -5.216  1.00  0.00     0.312 HD
HETATM   81  H82 UNL     1      -0.310 -10.200  -6.245  1.00  0.00     0.312 HD
HETATM   82  H83 UNL     1      -2.976  -9.026  -1.533  1.00  0.00     0.313 HD
HETATM   83  H84 UNL     1      -2.049  -7.964  -2.337  1.00  0.00     0.313 HD
HETATM   84  H85 UNL     1      -6.515   2.726   0.105  1.00  0.00     0.313 HD
HETATM   85  H86 UNL     1      -6.660   1.119  -0.032  1.00  0.00     0.313 HD
ENDROOT
TORSDOF 49
