REMARK  21 active torsions:
REMARK  status: ('A' for Active; 'I' for Inactive)
REMARK    1  A    between atoms: C2_2  and  C4_4 
REMARK    2  A    between atoms: C6_6  and  C20_20 
REMARK    3  A    between atoms: C8_8  and  C18_18 
REMARK    4  A    between atoms: C12_12  and  C14_14 
REMARK    5  A    between atoms: C14_14  and  C15_15 
REMARK    6  A    between atoms: C15_15  and  C16_16 
REMARK    7  A    between atoms: C16_16  and  C17_17 
REMARK    8  A    between atoms: C17_17  and  N6_57 
REMARK    9  A    between atoms: C18_18  and  C19_19 
REMARK   10  A    between atoms: C19_19  and  O7_49 
REMARK   11  A    between atoms: C20_20  and  C21_21 
REMARK   12  A    between atoms: C24_24  and  O8_50 
REMARK   13  A    between atoms: C27_27  and  C28_28 
REMARK   14  A    between atoms: C27_27  and  O8_50 
REMARK   15  A    between atoms: C28_28  and  C29_29 
REMARK   16  A    between atoms: C29_29  and  N7_58 
REMARK   17  A    between atoms: C30_30  and  C31_31 
REMARK       I    between atoms: C30_30  and  N7_58 
REMARK   18  A    between atoms: C33_33  and  N9_61 
REMARK   19  A    between atoms: C36_36  and  C37_37 
REMARK   20  A    between atoms: C42_42  and  S1_64 
REMARK   21  A    between atoms: N9_61  and  N10_62 
ROOT
HETATM    1  C4  UNL     1      -5.517   1.716  -1.565  1.00  0.00     0.180 C 
HETATM    2  C5  UNL     1      -4.070   1.653  -1.024  1.00  0.00     0.241 C 
HETATM    3  C6  UNL     1      -2.616  -0.077   0.052  1.00  0.00     0.180 C 
HETATM    4  C7  UNL     1      -3.462  -0.378   1.313  1.00  0.00     0.241 C 
HETATM    5  C8  UNL     1      -3.806  -1.973   3.119  1.00  0.00     0.186 C 
HETATM    6  C9  UNL     1      -4.637  -2.887   2.195  1.00  0.00     0.241 C 
HETATM    7  C10 UNL     1      -6.939  -3.352   1.430  1.00  0.00     0.225 C 
HETATM    8  C11 UNL     1      -7.641  -2.238   0.630  1.00  0.00     0.236 C 
HETATM    9  C12 UNL     1      -8.231   0.204   0.655  1.00  0.00     0.176 C 
HETATM   10  C13 UNL     1      -7.655   0.838  -0.640  1.00  0.00     0.241 C 
HETATM   11  O1  UNL     1      -3.474   2.651  -0.636  1.00  0.00    -0.271 OA
HETATM   12  O2  UNL     1      -4.609   0.051   1.479  1.00  0.00    -0.271 OA
HETATM   13  O3  UNL     1      -4.116  -3.526   1.282  1.00  0.00    -0.271 OA
HETATM   14  O4  UNL     1      -8.365  -2.498  -0.326  1.00  0.00    -0.272 OA
HETATM   15  O5  UNL     1      -8.334   1.509  -1.413  1.00  0.00    -0.271 OA
HETATM   16  N1  UNL     1      -3.554   0.370  -0.979  1.00  0.00    -0.346 N 
HETATM   17  N2  UNL     1      -2.890  -1.282   2.198  1.00  0.00    -0.346 N 
HETATM   18  N3  UNL     1      -5.992  -2.852   2.417  1.00  0.00    -0.351 N 
HETATM   19  N4  UNL     1      -7.492  -0.967   1.143  1.00  0.00    -0.346 N 
HETATM   20  N5  UNL     1      -6.277   0.767  -0.733  1.00  0.00    -0.346 N 
HETATM   21  H45 UNL     1      -4.224  -0.341  -1.252  1.00  0.00     0.163 HD
HETATM   22  H46 UNL     1      -2.171  -1.875   1.794  1.00  0.00     0.163 HD
HETATM   23  H47 UNL     1      -6.357  -2.345   3.216  1.00  0.00     0.163 HD
HETATM   24  H48 UNL     1      -6.647  -0.789   1.678  1.00  0.00     0.163 HD
HETATM   25  H49 UNL     1      -5.819   0.488   0.135  1.00  0.00     0.163 HD
ENDROOT
BRANCH   3  26
HETATM   26  C20 UNL     1      -1.394   0.793   0.366  1.00  0.00     0.073 C 
BRANCH  26  27
HETATM   27  C21 UNL     1      -0.402   0.842  -0.773  1.00  0.00    -0.056 A 
HETATM   28  C22 UNL     1      -0.347   1.950  -1.623  1.00  0.00     0.010 A 
HETATM   29  C23 UNL     1       0.567   1.987  -2.678  1.00  0.00     0.037 A 
HETATM   30  C24 UNL     1       1.437   0.919  -2.909  1.00  0.00     0.068 A 
HETATM   31  C25 UNL     1       1.390  -0.186  -2.064  1.00  0.00     0.037 A 
HETATM   32  C26 UNL     1       0.477  -0.225  -1.002  1.00  0.00     0.010 A 
BRANCH  30  33
HETATM   33  O8  UNL     1       2.280   1.095  -3.969  1.00  0.00    -0.351 OA
BRANCH  33  34
HETATM   34  C27 UNL     1       3.075  -0.003  -4.407  1.00  0.00     0.177 C 
BRANCH  34  35
HETATM   35  C28 UNL     1       4.422  -0.072  -3.691  1.00  0.00     0.046 C 
BRANCH  35  36
HETATM   36  C29 UNL     1       5.153   1.268  -3.703  1.00  0.00     0.125 C 
BRANCH  36  37
HETATM   37  N7  UNL     1       6.529   1.138  -3.257  1.00  0.00    -0.357 N 
HETATM   38  C30 UNL     1       6.848   0.998  -1.921  1.00  0.00     0.253 C 
HETATM   39  O9  UNL     1       6.012   0.968  -1.026  1.00  0.00    -0.268 OA
HETATM   40  H52 UNL     1       7.235   0.980  -3.962  1.00  0.00     0.162 HD
BRANCH  38  41
HETATM   41  C31 UNL     1       8.284   0.838  -1.591  1.00  0.00     0.047 A 
HETATM   42  C32 UNL     1       8.628   0.239  -0.387  1.00  0.00     0.106 A 
HETATM   43  N8  UNL     1       9.906   0.027   0.025  1.00  0.00    -0.350 N 
HETATM   44  C33 UNL     1      10.902   0.453  -0.783  1.00  0.00     0.119 A 
ATOM     45  H8  UNL     1      10.106  -0.437   0.911  1.00  0.00     0.166 HD
HETATM   46  C34 UNL     1      10.642   1.072  -2.004  1.00  0.00     0.051 A 
HETATM   47  C35 UNL     1       9.322   1.274  -2.412  1.00  0.00     0.022 A 
BRANCH  44  48
HETATM   48  N9  UNL     1      12.212   0.207  -0.343  1.00  0.00    -0.286 N 
HETATM   49  H53 UNL     1      12.169  -0.118   0.622  1.00  0.00     0.188 HD
BRANCH  48  50
HETATM   50  N10 UNL     1      13.215   1.022  -0.764  1.00  0.00    -0.309 N 
HETATM   51  C36 UNL     1      14.387   0.875  -0.218  1.00  0.00     0.119 C 
ATOM     52  H10 UNL     1      13.054   1.726  -1.484  1.00  0.00     0.186 HD
BRANCH  51  53
HETATM   53  C37 UNL     1      14.820  -0.142   0.762  1.00  0.00    -0.003 A 
HETATM   54  C38 UNL     1      14.576  -1.494   0.481  1.00  0.00     0.014 A 
HETATM   55  C39 UNL     1      15.011  -2.480   1.365  1.00  0.00     0.001 A 
HETATM   56  C40 UNL     1      15.700  -2.121   2.521  1.00  0.00     0.001 A 
HETATM   57  C41 UNL     1      15.956  -0.774   2.795  1.00  0.00     0.019 A 
HETATM   58  C42 UNL     1      15.520   0.230   1.920  1.00  0.00     0.009 A 
BRANCH  58  59
HETATM   59  S1  UNL     1      15.873   1.924   2.365  1.00  0.00    -0.142 SA
HETATM   60  H54 UNL     1      14.625   2.390   2.201  1.00  0.00     0.107 HD
ENDBRANCH  58  59
ENDBRANCH  51  53
ENDBRANCH  48  50
ENDBRANCH  44  48
ENDBRANCH  38  41
ENDBRANCH  36  37
ENDBRANCH  35  36
ENDBRANCH  34  35
ENDBRANCH  33  34
ENDBRANCH  30  33
ENDBRANCH  26  27
ENDBRANCH   3  26
BRANCH   5  61
HETATM   61  C18 UNL     1      -3.056  -2.798   4.151  1.00  0.00     0.144 C 
BRANCH  61  62
HETATM   62  C19 UNL     1      -3.956  -3.424   5.178  1.00  0.00     0.141 C 
HETATM   63  O6  UNL     1      -3.662  -4.375   5.882  1.00  0.00    -0.650 OA
BRANCH  62  64
HETATM   64  O7  UNL     1      -5.143  -2.813   5.339  1.00  0.00    -0.776 OA
HETATM   65  H44 UNL     1      -5.551  -3.306   6.087  1.00  0.00     0.167 HD
ENDBRANCH  62  64
ENDBRANCH  61  62
ENDBRANCH   5  61
BRANCH   1  66
HETATM   66  C2  UNL     1      -5.662   1.494  -3.087  1.00  0.00     0.009 C 
HETATM   67  C1  UNL     1      -4.846   2.526  -3.871  1.00  0.00     0.012 C 
HETATM   68  C3  UNL     1      -5.325   0.083  -3.577  1.00  0.00     0.012 C 
ENDBRANCH   1  66
BRANCH   9  69
HETATM   69  C14 UNL     1      -9.757   0.019   0.564  1.00  0.00     0.035 C 
BRANCH  69  70
HETATM   70  C15 UNL     1     -10.433  -0.553   1.817  1.00  0.00     0.004 C 
BRANCH  70  71
HETATM   71  C16 UNL     1     -10.169   0.202   3.123  1.00  0.00     0.030 C 
BRANCH  71  72
HETATM   72  C17 UNL     1     -10.630   1.658   3.087  1.00  0.00     0.267 C 
BRANCH  72  73
HETATM   73  N6  UNL     1     -10.388   2.285   4.382  1.00  0.00     0.078 N 
HETATM   74  H50 UNL     1     -10.961   1.831   5.093  1.00  0.00     0.312 HD
HETATM   75  H51 UNL     1     -10.703   3.255   4.347  1.00  0.00     0.312 HD
ENDBRANCH  72  73
ENDBRANCH  71  72
ENDBRANCH  70  71
ENDBRANCH  69  70
ENDBRANCH   9  69
TORSDOF 21
