REMARK  27 active torsions:
REMARK  status: ('A' for Active; 'I' for Inactive)
REMARK    1  A    between atoms: C2_2  and  C4_4 
REMARK    2  A    between atoms: C4_4  and  C5_5 
REMARK    3  A    between atoms: C4_4  and  N9_64 
REMARK       I    between atoms: C5_5  and  N1_55 
REMARK    4  A    between atoms: C6_6  and  C7_7 
REMARK    5  A    between atoms: C6_6  and  C11_11 
REMARK    6  A    between atoms: C6_6  and  N1_55 
REMARK    7  A    between atoms: C7_7  and  C8_8 
REMARK    8  A    between atoms: C8_8  and  C9_9 
REMARK    9  A    between atoms: C9_9  and  N2_56 
REMARK       I    between atoms: C10_10  and  N3_58 
REMARK       I    between atoms: C10_10  and  N4_59 
REMARK       I    between atoms: C11_11  and  N5_60 
REMARK   10  A    between atoms: C12_12  and  N5_60 
REMARK   11  A    between atoms: C15_15  and  C18_18 
REMARK       I    between atoms: C18_18  and  N6_61 
REMARK   12  A    between atoms: C20_20  and  C30_30 
REMARK   13  A    between atoms: C24_24  and  C29_29 
REMARK   14  A    between atoms: C26_26  and  O4_45 
REMARK       I    between atoms: C29_29  and  N8_63 
REMARK   15  A    between atoms: C31_31  and  C32_32 
REMARK       I    between atoms: C31_31  and  N9_64 
REMARK   16  A    between atoms: C32_32  and  C33_33 
REMARK   17  A    between atoms: C33_33  and  C34_34 
REMARK   18  A    between atoms: C34_34  and  C35_35 
REMARK   19  A    between atoms: C34_34  and  N10_65 
REMARK   20  A    between atoms: C35_35  and  O8_49 
REMARK       I    between atoms: C36_36  and  N10_65 
REMARK       I    between atoms: C36_36  and  N11_66 
REMARK   21  A    between atoms: C37_37  and  C38_38 
REMARK   22  A    between atoms: C37_37  and  C41_41 
REMARK   23  A    between atoms: C37_37  and  N11_66 
REMARK   24  A    between atoms: C38_38  and  C39_39 
REMARK   25  A    between atoms: C39_39  and  C40_40 
REMARK   26  A    between atoms: C40_40  and  O11_52 
REMARK   27  A    between atoms: C41_41  and  O13_54 
ROOT
HETATM    1  C6  UNL     1      -0.183   2.621  -1.753  1.00  0.00     0.177 C 
ENDROOT
BRANCH   1   2
HETATM    2  C7  UNL     1       0.698   2.852  -2.997  1.00  0.00     0.036 C 
BRANCH   2   3
HETATM    3  C8  UNL     1       1.542   1.677  -3.532  1.00  0.00     0.022 C 
BRANCH   3   4
HETATM    4  C9  UNL     1       2.627   1.148  -2.593  1.00  0.00     0.121 C 
BRANCH   4   5
HETATM    5  N2  UNL     1       2.017   0.321  -1.543  1.00  0.00    -0.372 N 
HETATM    6  C10 UNL     1       2.045  -0.953  -1.649  1.00  0.00     0.121 C 
HETATM    7  N3  UNL     1       2.600  -1.738  -2.604  1.00  0.00    -0.279 NA
HETATM    8  N4  UNL     1       1.481  -1.737  -0.707  1.00  0.00    -0.279 NA
HETATM    9  H42 UNL     1       2.058  -2.597  -2.700  1.00  0.00     0.126 HD
HETATM   10  H43 UNL     1       2.635  -1.285  -3.513  1.00  0.00     0.126 HD
HETATM   11  H44 UNL     1       2.141  -2.413  -0.312  1.00  0.00     0.126 HD
HETATM   12  H45 UNL     1       1.063  -1.213   0.051  1.00  0.00     0.126 HD
ATOM     13  H2  UNL     1       1.574   0.760  -0.736  1.00  0.00     0.161 HD
ENDBRANCH   4   5
ENDBRANCH   3   4
ENDBRANCH   2   3
ENDBRANCH   1   2
BRANCH   1  14
HETATM   14  C11 UNL     1      -1.238   1.496  -1.957  1.00  0.00     0.245 C 
HETATM   15  O2  UNL     1      -1.451   0.986  -3.055  1.00  0.00    -0.271 OA
HETATM   16  N5  UNL     1      -1.985   1.254  -0.813  1.00  0.00    -0.325 N 
HETATM   17  H46 UNL     1      -1.861   1.932  -0.060  1.00  0.00     0.169 HD
BRANCH  16  18
HETATM   18  C12 UNL     1      -2.949   0.253  -0.604  1.00  0.00     0.034 A 
HETATM   19  C13 UNL     1      -3.662   0.300   0.602  1.00  0.00     0.030 A 
HETATM   20  C14 UNL     1      -4.630  -0.664   0.894  1.00  0.00     0.019 A 
HETATM   21  C15 UNL     1      -4.894  -1.679  -0.030  1.00  0.00     0.032 A 
HETATM   22  C16 UNL     1      -4.162  -1.757  -1.216  1.00  0.00     0.019 A 
HETATM   23  C17 UNL     1      -3.198  -0.785  -1.505  1.00  0.00     0.030 A 
BRANCH  21  24
HETATM   24  C18 UNL     1      -5.896  -2.722   0.267  1.00  0.00     0.258 C 
HETATM   25  O3  UNL     1      -5.509  -3.890   0.249  1.00  0.00    -0.267 OA
HETATM   26  N6  UNL     1      -7.185  -2.364   0.626  1.00  0.00    -0.312 N 
HETATM   27  C19 UNL     1      -8.084  -3.368   1.210  1.00  0.00     0.143 C 
HETATM   28  C28 UNL     1      -7.934  -1.200   0.359  1.00  0.00     0.048 A 
HETATM   29  C20 UNL     1      -9.306  -2.608   1.747  1.00  0.00     0.054 C 
HETATM   30  C21 UNL     1      -9.194  -1.308   0.979  1.00  0.00    -0.012 A 
HETATM   31  C22 UNL     1     -10.139  -0.281   0.837  1.00  0.00     0.005 A 
HETATM   32  C23 UNL     1     -11.465  -0.054   1.300  1.00  0.00     0.049 A 
HETATM   33  C25 UNL     1      -9.779   0.824   0.070  1.00  0.00     0.077 A 
HETATM   34  C24 UNL     1     -11.891   1.175   0.821  1.00  0.00     0.102 A 
HETATM   35  N7  UNL     1     -10.846   1.687   0.082  1.00  0.00    -0.349 N 
HETATM   36  H47 UNL     1     -10.866   2.580  -0.397  1.00  0.00     0.166 HD
HETATM   37  C26 UNL     1      -8.537   0.933  -0.564  1.00  0.00     0.095 A 
HETATM   38  C27 UNL     1      -7.610  -0.103  -0.424  1.00  0.00     0.069 A 
BRANCH  29  39
HETATM   39  C30 UNL     1      -9.237  -2.358   3.251  1.00  0.00     0.125 C 
HETATM   40 CL1  UNL     1      -9.483  -3.867   4.166  1.00  0.00    -0.130 Cl
ENDBRANCH  29  39
BRANCH  34  41
HETATM   41  C29 UNL     1     -13.126   1.903   0.973  1.00  0.00     0.266 C 
HETATM   42  O5  UNL     1     -13.319   3.017   0.500  1.00  0.00    -0.266 OA
HETATM   43  N8  UNL     1     -14.109   1.279   1.681  1.00  0.00    -0.365 N 
HETATM   44  H48 UNL     1     -15.000   1.751   1.743  1.00  0.00     0.159 HD
HETATM   45  H49 UNL     1     -14.038   0.327   2.000  1.00  0.00     0.159 HD
ENDBRANCH  34  41
BRANCH  37  46
HETATM   46  O4  UNL     1      -8.261   2.041  -1.317  1.00  0.00    -0.358 OA
HETATM   47  H37 UNL     1      -7.367   1.951  -1.688  1.00  0.00     0.217 HD
ENDBRANCH  37  46
ENDBRANCH  21  24
ENDBRANCH  16  18
ENDBRANCH   1  14
BRANCH   1  48
HETATM   48  N1  UNL     1       0.647   2.418  -0.566  1.00  0.00    -0.346 N 
HETATM   49  C5  UNL     1       0.253   2.663   0.723  1.00  0.00     0.241 C 
HETATM   50  O1  UNL     1      -0.863   3.117   0.975  1.00  0.00    -0.271 OA
HETATM   51  H41 UNL     1       1.377   1.719  -0.678  1.00  0.00     0.163 HD
BRANCH  49  52
HETATM   52  C4  UNL     1       1.303   2.328   1.817  1.00  0.00     0.180 C 
BRANCH  52  53
HETATM   53  C2  UNL     1       0.644   1.586   3.003  1.00  0.00     0.009 C 
HETATM   54  C1  UNL     1       0.193   0.168   2.639  1.00  0.00     0.012 C 
HETATM   55  C3  UNL     1       1.576   1.540   4.218  1.00  0.00     0.012 C 
ENDBRANCH  52  53
BRANCH  52  56
HETATM   56  N9  UNL     1       2.465   1.596   1.294  1.00  0.00    -0.347 N 
HETATM   57  C31 UNL     1       3.746   2.089   1.385  1.00  0.00     0.218 C 
HETATM   58  O6  UNL     1       4.036   3.149   1.927  1.00  0.00    -0.274 OA
HETATM   59  H50 UNL     1       2.309   0.754   0.750  1.00  0.00     0.163 HD
BRANCH  57  60
HETATM   60  C32 UNL     1       4.795   1.182   0.780  1.00  0.00     0.105 C 
BRANCH  60  61
HETATM   61  C33 UNL     1       5.122   0.012   1.713  1.00  0.00     0.040 C 
BRANCH  61  62
HETATM   62  C34 UNL     1       5.872  -1.141   1.029  1.00  0.00     0.162 C 
BRANCH  62  63
HETATM   63  C35 UNL     1       4.924  -1.850   0.053  1.00  0.00     0.158 C 
HETATM   64  O7  UNL     1       3.924  -2.483   0.366  1.00  0.00    -0.649 OA
BRANCH  63  65
HETATM   65  O8  UNL     1       5.188  -1.578  -1.247  1.00  0.00    -0.775 OA
HETATM   66  H38 UNL     1       4.420  -1.941  -1.751  1.00  0.00     0.167 HD
ENDBRANCH  63  65
ENDBRANCH  62  63
BRANCH  62  67
HETATM   67  N10 UNL     1       7.087  -0.668   0.366  1.00  0.00    -0.234 NA
HETATM   68  C36 UNL     1       8.148  -1.529   0.232  1.00  0.00     0.274 C 
HETATM   69  O9  UNL     1       8.198  -2.648   0.718  1.00  0.00    -0.261 OA
HETATM   70  N11 UNL     1       9.140  -0.958  -0.524  1.00  0.00    -0.234 NA
HETATM   71  H52 UNL     1       9.232   0.028  -0.313  1.00  0.00     0.132 HD
HETATM   72  H51 UNL     1       6.923  -0.159  -0.493  1.00  0.00     0.132 HD
BRANCH  70  73
HETATM   73  C37 UNL     1      10.420  -1.657  -0.668  1.00  0.00     0.162 C 
BRANCH  73  74
HETATM   74  C38 UNL     1      11.046  -1.382  -2.040  1.00  0.00     0.041 C 
BRANCH  74  75
HETATM   75  C39 UNL     1      11.355   0.090  -2.304  1.00  0.00     0.112 C 
BRANCH  75  76
HETATM   76  C40 UNL     1      11.959   0.261  -3.667  1.00  0.00     0.139 C 
HETATM   77  O10 UNL     1      13.146   0.361  -3.922  1.00  0.00    -0.650 OA
BRANCH  76  78
HETATM   78  O11 UNL     1      11.037   0.277  -4.647  1.00  0.00    -0.776 OA
HETATM   79  H39 UNL     1      11.564   0.378  -5.468  1.00  0.00     0.167 HD
ENDBRANCH  76  78
ENDBRANCH  75  76
ENDBRANCH  74  75
ENDBRANCH  73  74
BRANCH  73  80
HETATM   80  C41 UNL     1      11.397  -1.285   0.454  1.00  0.00     0.158 C 
HETATM   81  O12 UNL     1      12.485  -1.799   0.662  1.00  0.00    -0.649 OA
BRANCH  80  82
HETATM   82  O13 UNL     1      10.999  -0.223   1.191  1.00  0.00    -0.775 OA
HETATM   83  H40 UNL     1      11.709  -0.128   1.862  1.00  0.00     0.167 HD
ENDBRANCH  80  82
ENDBRANCH  73  80
ENDBRANCH  70  73
ENDBRANCH  62  67
ENDBRANCH  61  62
ENDBRANCH  60  61
ENDBRANCH  57  60
ENDBRANCH  52  56
ENDBRANCH  49  52
ENDBRANCH   1  48
TORSDOF 27
