REMARK  0 active torsions:
REMARK  status: ('A' for Active; 'I' for Inactive)
REMARK       I    between atoms: C2_2  and  C3_3 
REMARK       I    between atoms: C2_2  and  C7_7 
REMARK       I    between atoms: C3_3  and  C4_4 
REMARK       I    between atoms: C4_4  and  C5_5 
REMARK       I    between atoms: C5_5  and  N1_58 
REMARK       I    between atoms: C6_6  and  N2_60 
REMARK       I    between atoms: C6_6  and  N3_61 
REMARK       I    between atoms: C7_7  and  N4_62 
REMARK       I    between atoms: C8_8  and  C9_9 
REMARK       I    between atoms: C8_8  and  C13_13 
REMARK       I    between atoms: C8_8  and  N4_62 
REMARK       I    between atoms: C9_9  and  C10_10 
REMARK       I    between atoms: C10_10  and  C11_11 
REMARK       I    between atoms: C11_11  and  N5_63 
REMARK       I    between atoms: C12_12  and  N6_65 
REMARK       I    between atoms: C12_12  and  N7_66 
REMARK       I    between atoms: C13_13  and  N8_67 
REMARK       I    between atoms: C17_17  and  C18_18 
REMARK       I    between atoms: C18_18  and  N9_68 
REMARK       I    between atoms: C19_19  and  C20_20 
REMARK       I    between atoms: C19_19  and  C22_22 
REMARK       I    between atoms: C19_19  and  N9_68 
REMARK       I    between atoms: C20_20  and  O4_89 
REMARK       I    between atoms: C22_22  and  N10_69 
REMARK       I    between atoms: C23_23  and  C24_24 
REMARK       I    between atoms: C23_23  and  C28_28 
REMARK       I    between atoms: C23_23  and  N10_69 
REMARK       I    between atoms: C24_24  and  C25_25 
REMARK       I    between atoms: C25_25  and  C26_26 
REMARK       I    between atoms: C26_26  and  N11_70 
REMARK       I    between atoms: C27_27  and  N12_72 
REMARK       I    between atoms: C27_27  and  N13_73 
REMARK       I    between atoms: C28_28  and  N14_74 
REMARK       I    between atoms: C29_29  and  C30_30 
REMARK       I    between atoms: C29_29  and  C32_32 
REMARK       I    between atoms: C29_29  and  N14_74 
REMARK       I    between atoms: C30_30  and  O7_92 
REMARK       I    between atoms: C32_32  and  N15_75 
REMARK       I    between atoms: C33_33  and  C34_34 
REMARK       I    between atoms: C33_33  and  C38_38 
REMARK       I    between atoms: C33_33  and  N15_75 
REMARK       I    between atoms: C34_34  and  C35_35 
REMARK       I    between atoms: C35_35  and  C36_36 
REMARK       I    between atoms: C36_36  and  C37_37 
REMARK       I    between atoms: C37_37  and  N16_76 
REMARK       I    between atoms: C38_38  and  N17_77 
REMARK       I    between atoms: C39_39  and  C41_41 
REMARK       I    between atoms: C39_39  and  N17_77 
REMARK       I    between atoms: C41_41  and  N18_78 
REMARK       I    between atoms: C42_42  and  C43_43 
REMARK       I    between atoms: C42_42  and  C46_46 
REMARK       I    between atoms: C42_42  and  N18_78 
REMARK       I    between atoms: C46_46  and  N19_79 
REMARK       I    between atoms: C47_47  and  C48_48 
REMARK       I    between atoms: C47_47  and  C52_52 
REMARK       I    between atoms: C47_47  and  N19_79 
REMARK       I    between atoms: C48_48  and  C49_49 
REMARK       I    between atoms: C49_49  and  C50_50 
REMARK       I    between atoms: C50_50  and  N20_80 
REMARK       I    between atoms: C51_51  and  N21_82 
REMARK       I    between atoms: C51_51  and  N22_83 
REMARK       I    between atoms: C52_52  and  N23_84 
REMARK       I    between atoms: C53_53  and  C54_54 
REMARK       I    between atoms: C53_53  and  C57_57 
REMARK       I    between atoms: C53_53  and  N23_84 
REMARK       I    between atoms: C57_57  and  N24_85 
ROOT
HETATM    1  C1  UNL     1       0.647   7.908  -0.981  1.00  0.00     0.020 C 
HETATM    2  C2  UNL     1       0.538   6.611  -0.177  1.00  0.00     0.074 C 
HETATM    3  C3  UNL     1       1.118   6.790   1.235  1.00  0.00     0.015 C 
HETATM    4  C4  UNL     1       0.287   7.707   2.146  1.00  0.00     0.020 C 
HETATM    5  C5  UNL     1       0.426   7.311   3.617  1.00  0.00     0.121 C 
HETATM    6  C6  UNL     1       0.014   5.359   4.875  1.00  0.00     0.121 C 
HETATM    7  C7  UNL     1      -0.903   6.083  -0.193  1.00  0.00     0.222 C 
HETATM    8  C8  UNL     1      -2.488   4.433   0.731  1.00  0.00     0.176 C 
HETATM    9  C9  UNL     1      -2.883   3.593  -0.503  1.00  0.00     0.036 C 
HETATM   10  C10 UNL     1      -1.986   2.369  -0.718  1.00  0.00     0.022 C 
HETATM   11  C11 UNL     1      -2.515   1.452  -1.819  1.00  0.00     0.121 C 
HETATM   12  C12 UNL     1      -1.989  -0.847  -1.497  1.00  0.00     0.121 C 
HETATM   13  C13 UNL     1      -2.588   3.575   2.017  1.00  0.00     0.243 C 
HETATM   14  C14 UNL     1      -5.111   3.829   2.099  1.00  0.00     0.127 C 
HETATM   15  C15 UNL     1      -5.990   3.529   3.301  1.00  0.00     0.022 C 
HETATM   16  C16 UNL     1      -5.535   2.137   3.722  1.00  0.00     0.036 C 
HETATM   17  C17 UNL     1      -4.032   2.135   3.428  1.00  0.00     0.173 C 
HETATM   18  C18 UNL     1      -3.576   0.823   2.755  1.00  0.00     0.221 C 
HETATM   19  C19 UNL     1      -1.647  -0.619   2.317  1.00  0.00     0.183 C 
HETATM   20  C20 UNL     1      -0.120  -0.697   2.575  1.00  0.00     0.141 C 
HETATM   21  C21 UNL     1       0.313  -1.328   3.891  1.00  0.00     0.041 C 
HETATM   22  C22 UNL     1      -2.336  -1.979   2.565  1.00  0.00     0.238 C 
HETATM   23  C23 UNL     1      -3.142  -3.519   4.403  1.00  0.00     0.176 C 
HETATM   24  C24 UNL     1      -4.504  -3.916   3.825  1.00  0.00     0.036 C 
HETATM   25  C25 UNL     1      -5.694  -3.222   4.510  1.00  0.00     0.022 C 
HETATM   26  C26 UNL     1      -5.751  -1.705   4.329  1.00  0.00     0.121 C 
HETATM   27  C27 UNL     1      -5.089  -0.714   6.385  1.00  0.00     0.121 C 
HETATM   28  C28 UNL     1      -2.096  -4.659   4.314  1.00  0.00     0.241 C 
HETATM   29  C29 UNL     1      -0.396  -5.717   2.858  1.00  0.00     0.205 C 
HETATM   30  C30 UNL     1      -0.664  -7.230   2.788  1.00  0.00     0.146 C 
HETATM   31  C31 UNL     1      -1.388  -7.682   1.527  1.00  0.00     0.042 C 
HETATM   32  C32 UNL     1       0.340  -5.108   1.643  1.00  0.00     0.243 C 
HETATM   33  C33 UNL     1       2.259  -5.330   0.081  1.00  0.00     0.176 C 
HETATM   34  C34 UNL     1       1.551  -4.957  -1.235  1.00  0.00     0.035 C 
HETATM   35  C35 UNL     1       0.637  -6.033  -1.833  1.00  0.00     0.004 C 
HETATM   36  C36 UNL     1       1.356  -7.355  -2.116  1.00  0.00     0.030 C 
HETATM   37  C37 UNL     1       0.521  -8.334  -2.947  1.00  0.00     0.267 C 
HETATM   38  C38 UNL     1       3.120  -4.204   0.730  1.00  0.00     0.241 C 
HETATM   39  C39 UNL     1       4.147  -1.964   0.467  1.00  0.00     0.172 C 
HETATM   40  C40 UNL     1       5.653  -2.188   0.433  1.00  0.00     0.042 C 
HETATM   41  C41 UNL     1       3.734  -0.767  -0.406  1.00  0.00     0.240 C 
HETATM   42  C42 UNL     1       1.756   0.663  -0.942  1.00  0.00     0.180 C 
HETATM   43  C43 UNL     1       2.166   2.142  -0.744  1.00  0.00     0.009 C 
HETATM   44  C44 UNL     1       1.831   2.601   0.684  1.00  0.00     0.012 C 
HETATM   45  C45 UNL     1       3.631   2.471  -1.035  1.00  0.00     0.012 C 
HETATM   46  C46 UNL     1       1.657   0.069  -2.377  1.00  0.00     0.241 C 
HETATM   47  C47 UNL     1       1.803   0.486  -4.818  1.00  0.00     0.176 C 
HETATM   48  C48 UNL     1       1.098   1.513  -5.720  1.00  0.00     0.036 C 
HETATM   49  C49 UNL     1       1.805   2.873  -5.782  1.00  0.00     0.022 C 
HETATM   50  C50 UNL     1       1.073   3.841  -6.710  1.00  0.00     0.121 C 
HETATM   51  C51 UNL     1       1.364   6.060  -7.429  1.00  0.00     0.121 C 
HETATM   52  C52 UNL     1       3.203   0.112  -5.370  1.00  0.00     0.241 C 
HETATM   53  C53 UNL     1       5.413  -0.887  -4.711  1.00  0.00     0.179 C 
HETATM   54  C54 UNL     1       5.247  -2.416  -4.920  1.00  0.00     0.009 C 
HETATM   55  C55 UNL     1       4.595  -3.084  -3.706  1.00  0.00     0.012 C 
HETATM   56  C56 UNL     1       4.489  -2.805  -6.190  1.00  0.00     0.012 C 
HETATM   57  C57 UNL     1       6.348  -0.239  -5.764  1.00  0.00     0.238 C 
HETATM   58  N1  UNL     1      -0.186   5.994   3.784  1.00  0.00    -0.372 N 
ATOM     59  H1  UNL     1      -0.761   5.590   3.045  1.00  0.00     0.161 HD
HETATM   60  N2  UNL     1       0.706   5.724   5.976  1.00  0.00    -0.279 NA
HETATM   61  N3  UNL     1      -0.490   4.117   5.034  1.00  0.00    -0.279 NA
HETATM   62  N4  UNL     1      -1.141   4.985   0.604  1.00  0.00    -0.347 N 
HETATM   63  N5  UNL     1      -1.625   0.303  -1.919  1.00  0.00    -0.372 N 
ATOM     64  H5  UNL     1      -0.699   0.418  -2.331  1.00  0.00     0.161 HD
HETATM   65  N6  UNL     1      -3.133  -1.248  -0.896  1.00  0.00    -0.279 NA
HETATM   66  N7  UNL     1      -1.144  -1.895  -1.594  1.00  0.00    -0.279 NA
HETATM   67  N8  UNL     1      -3.846   3.197   2.434  1.00  0.00    -0.337 N 
HETATM   68  N9  UNL     1      -2.290   0.433   3.118  1.00  0.00    -0.245 NA
HETATM   69  N10 UNL     1      -2.612  -2.252   3.889  1.00  0.00    -0.346 N 
HETATM   70  N11 UNL     1      -4.774  -1.023   5.185  1.00  0.00    -0.372 N 
ATOM     71  H11 UNL     1      -3.847  -0.796   4.824  1.00  0.00     0.161 HD
HETATM   72  N12 UNL     1      -6.230  -0.922   7.075  1.00  0.00    -0.279 NA
HETATM   73  N13 UNL     1      -4.187  -0.093   7.176  1.00  0.00    -0.279 NA
HETATM   74  N14 UNL     1      -1.623  -4.947   3.059  1.00  0.00    -0.344 N 
HETATM   75  N15 UNL     1       1.359  -5.855   1.107  1.00  0.00    -0.346 N 
HETATM   76  N16 UNL     1      -0.680  -8.771  -2.246  1.00  0.00     0.078 N 
HETATM   77  N17 UNL     1       3.426  -3.122  -0.060  1.00  0.00    -0.346 N 
HETATM   78  N18 UNL     1       2.479  -0.285  -0.101  1.00  0.00    -0.346 N 
HETATM   79  N19 UNL     1       1.821   0.937  -3.428  1.00  0.00    -0.346 N 
HETATM   80  N20 UNL     1       1.796   5.109  -6.692  1.00  0.00    -0.372 N 
ATOM     81  H20 UNL     1       2.623   5.233  -6.108  1.00  0.00     0.161 HD
HETATM   82  N21 UNL     1       2.019   7.241  -7.458  1.00  0.00    -0.279 NA
HETATM   83  N22 UNL     1       0.296   6.105  -8.255  1.00  0.00    -0.279 NA
HETATM   84  N23 UNL     1       4.168  -0.163  -4.428  1.00  0.00    -0.346 N 
HETATM   85  N24 UNL     1       6.225   1.115  -5.921  1.00  0.00    -0.368 N 
HETATM   86  O1  UNL     1      -1.776   6.567  -0.911  1.00  0.00    -0.273 OA
HETATM   87  O2  UNL     1      -1.581   3.148   2.599  1.00  0.00    -0.271 OA
HETATM   88  O3  UNL     1      -4.219   0.248   1.878  1.00  0.00    -0.278 OA
HETATM   89  O4  UNL     1       0.578  -1.347   1.507  1.00  0.00    -0.394 OA
HETATM   90  O5  UNL     1      -2.478  -2.812   1.671  1.00  0.00    -0.272 OA
HETATM   91  O6  UNL     1      -1.741  -5.297   5.305  1.00  0.00    -0.271 OA
HETATM   92  O7  UNL     1       0.571  -7.955   2.891  1.00  0.00    -0.393 OA
HETATM   93  O8  UNL     1       0.090  -3.968   1.243  1.00  0.00    -0.271 OA
HETATM   94  O9  UNL     1       3.549  -4.306   1.882  1.00  0.00    -0.271 OA
HETATM   95  O10 UNL     1       4.383  -0.374  -1.374  1.00  0.00    -0.271 OA
HETATM   96  O11 UNL     1       1.457  -1.137  -2.564  1.00  0.00    -0.271 OA
HETATM   97  O12 UNL     1       3.426   0.024  -6.576  1.00  0.00    -0.271 OA
HETATM   98  O13 UNL     1       7.262  -0.836  -6.331  1.00  0.00    -0.271 OA
HETATM   99  H78 UNL     1       0.271   5.389   6.827  1.00  0.00     0.126 HD
HETATM  100  H79 UNL     1       0.893   6.717   6.036  1.00  0.00     0.126 HD
HETATM  101  H80 UNL     1      -0.859   3.787   4.137  1.00  0.00     0.126 HD
HETATM  102  H81 UNL     1       0.217   3.471   5.364  1.00  0.00     0.126 HD
HETATM  103  H82 UNL     1      -0.523   4.813   1.392  1.00  0.00     0.163 HD
HETATM  104  H83 UNL     1      -3.659  -0.511  -0.439  1.00  0.00     0.126 HD
HETATM  105  H84 UNL     1      -2.966  -1.995  -0.220  1.00  0.00     0.126 HD
HETATM  106  H85 UNL     1      -1.587  -2.741  -1.925  1.00  0.00     0.126 HD
HETATM  107  H86 UNL     1      -0.318  -1.671  -2.152  1.00  0.00     0.126 HD
HETATM  108  H87 UNL     1      -1.705   1.246   3.305  1.00  0.00     0.131 HD
HETATM  109  H88 UNL     1      -2.957  -1.435   4.394  1.00  0.00     0.163 HD
HETATM  110  H89 UNL     1      -6.465  -0.155   7.695  1.00  0.00     0.126 HD
HETATM  111  H90 UNL     1      -7.031  -1.200   6.524  1.00  0.00     0.126 HD
HETATM  112  H91 UNL     1      -3.261  -0.118   6.764  1.00  0.00     0.126 HD
HETATM  113  H92 UNL     1      -4.164  -0.483   8.112  1.00  0.00     0.126 HD
HETATM  114  H93 UNL     1      -1.873  -4.297   2.308  1.00  0.00     0.163 HD
HETATM  115  H94 UNL     1       1.618  -6.717   1.585  1.00  0.00     0.163 HD
HETATM  116  H95 UNL     1      -1.307  -7.979  -2.107  1.00  0.00     0.312 HD
HETATM  117  H96 UNL     1      -1.190  -9.431  -2.832  1.00  0.00     0.312 HD
HETATM  118  H97 UNL     1       2.890  -2.961  -0.907  1.00  0.00     0.163 HD
HETATM  119  H98 UNL     1       1.892  -0.841   0.530  1.00  0.00     0.163 HD
HETATM  120  H99 UNL     1       2.187   1.860  -3.250  1.00  0.00     0.163 HD
HETATM  121  HA0 UNL     1       2.173   7.565  -8.404  1.00  0.00     0.126 HD
HETATM  122  HA1 UNL     1       2.904   7.148  -6.968  1.00  0.00     0.126 HD
HETATM  123  HA2 UNL     1      -0.165   7.007  -8.229  1.00  0.00     0.126 HD
HETATM  124  HA3 UNL     1      -0.372   5.359  -8.110  1.00  0.00     0.126 HD
HETATM  125  HA4 UNL     1       3.870  -0.209  -3.456  1.00  0.00     0.163 HD
HETATM  126  HA5 UNL     1       6.753   1.491  -6.697  1.00  0.00     0.159 HD
HETATM  127  HA6 UNL     1       5.292   1.491  -5.806  1.00  0.00     0.159 HD
HETATM  128  HA7 UNL     1       0.210  -2.259   1.397  1.00  0.00     0.210 HD
HETATM  129  HA8 UNL     1       0.788  -8.001   3.842  1.00  0.00     0.210 HD
ENDROOT
TORSDOF 47
