REMARK  0 active torsions:
REMARK  status: ('A' for Active; 'I' for Inactive)
REMARK       I    between atoms: C2_2  and  C3_3 
REMARK       I    between atoms: C3_3  and  C5_5 
REMARK       I    between atoms: C5_5  and  C6_6 
REMARK       I    between atoms: C5_5  and  N3_98 
REMARK       I    between atoms: C6_6  and  C7_7 
REMARK       I    between atoms: C6_6  and  O4_81 
REMARK       I    between atoms: C7_7  and  C8_8 
REMARK       I    between atoms: C8_8  and  N1_96 
REMARK       I    between atoms: C12_12  and  C13_13 
REMARK       I    between atoms: C13_13  and  C14_14 
REMARK       I    between atoms: C13_13  and  O3_80 
REMARK       I    between atoms: C14_14  and  C16_16 
REMARK       I    between atoms: C16_16  and  N2_97 
REMARK       I    between atoms: C17_17  and  C18_18 
REMARK       I    between atoms: C17_17  and  N2_97 
REMARK       I    between atoms: C18_18  and  C19_19 
REMARK       I    between atoms: C28_28  and  C29_29 
REMARK       I    between atoms: C28_28  and  N3_98 
REMARK       I    between atoms: C29_29  and  C30_30 
REMARK       I    between atoms: C29_29  and  N4_99 
REMARK       I    between atoms: C33_33  and  C34_34 
REMARK       I    between atoms: C33_33  and  N4_99 
REMARK       I    between atoms: C34_34  and  C35_35 
REMARK       I    between atoms: C34_34  and  N5_100 
REMARK       I    between atoms: C39_39  and  O8_85 
REMARK       I    between atoms: C39_39  and  N5_100 
REMARK       I    between atoms: C40_40  and  C41_41 
REMARK       I    between atoms: C40_40  and  O8_85 
REMARK       I    between atoms: C44_44  and  N6_101 
REMARK       I    between atoms: C47_47  and  C48_48 
REMARK       I    between atoms: C47_47  and  N6_101 
REMARK       I    between atoms: C48_48  and  C49_49 
REMARK       I    between atoms: C48_48  and  N9_104 
REMARK       I    between atoms: C49_49  and  C50_50 
REMARK       I    between atoms: C50_50  and  C51_51 
REMARK       I    between atoms: C51_51  and  N7_102 
REMARK       I    between atoms: C52_52  and  N7_102 
REMARK       I    between atoms: C52_52  and  N8_103 
REMARK       I    between atoms: C53_53  and  C54_54 
REMARK       I    between atoms: C53_53  and  N9_104 
REMARK       I    between atoms: C54_54  and  C55_55 
REMARK       I    between atoms: C54_54  and  N10_105 
REMARK       I    between atoms: C58_58  and  C59_59 
REMARK       I    between atoms: C58_58  and  N10_105 
REMARK       I    between atoms: C59_59  and  C60_60 
REMARK       I    between atoms: C60_60  and  C61_61 
REMARK       I    between atoms: C61_61  and  C62_62 
REMARK       I    between atoms: C62_62  and  C63_63 
REMARK       I    between atoms: C63_63  and  N11_106 
REMARK       I    between atoms: C66_66  and  S1_110 
REMARK       I    between atoms: C68_68  and  C69_69 
REMARK       I    between atoms: C68_68  and  S1_110 
REMARK       I    between atoms: C69_69  and  C72_72 
REMARK       I    between atoms: C72_72  and  C73_73 
REMARK       I    between atoms: C73_73  and  O16_93 
REMARK       I    between atoms: O16_93  and  N12_107 
ROOT
HETATM    1  C1  UNL     1      -2.856  -8.220   3.309  1.00  0.00     0.005 C 
HETATM    2  C2  UNL     1      -3.572  -6.877   3.235  1.00  0.00     0.002 C 
HETATM    3  C3  UNL     1      -2.713  -5.724   2.660  1.00  0.00     0.006 C 
HETATM    4  C4  UNL     1      -1.416  -5.560   3.470  1.00  0.00     0.012 C 
HETATM    5  C5  UNL     1      -3.523  -4.378   2.612  1.00  0.00     0.119 C 
HETATM    6  C6  UNL     1      -4.884  -4.482   1.816  1.00  0.00     0.152 C 
HETATM    7  C7  UNL     1      -5.603  -3.136   1.665  1.00  0.00     0.137 C 
HETATM    8  C8  UNL     1      -6.180  -2.671   2.982  1.00  0.00     0.222 C 
HETATM    9  C9  UNL     1      -7.918  -2.816   4.690  1.00  0.00     0.126 C 
HETATM   10  C10 UNL     1      -9.338  -3.354   4.744  1.00  0.00     0.022 C 
HETATM   11  C11 UNL     1      -9.331  -4.430   3.671  1.00  0.00     0.029 C 
HETATM   12  C12 UNL     1      -8.433  -3.852   2.562  1.00  0.00     0.117 C 
HETATM   13  C13 UNL     1      -9.271  -3.090   1.470  1.00  0.00     0.156 C 
HETATM   14  C14 UNL     1      -9.436  -1.560   1.706  1.00  0.00     0.105 C 
HETATM   15  C15 UNL     1      -8.441  -0.703   0.915  1.00  0.00     0.022 C 
HETATM   16  C16 UNL     1     -10.870  -1.109   1.410  1.00  0.00     0.224 C 
HETATM   17  C17 UNL     1     -12.389   0.845   1.440  1.00  0.00     0.127 C 
HETATM   18  C18 UNL     1     -12.464   1.281  -0.028  1.00  0.00     0.064 C 
HETATM   19  C19 UNL     1     -11.370   2.244  -0.413  1.00  0.00     0.021 A 
HETATM   20  C20 UNL     1     -10.318   1.848  -1.241  1.00  0.00     0.125 A 
HETATM   21  C21 UNL     1      -9.285   2.722  -1.575  1.00  0.00     0.043 A 
HETATM   22  C22 UNL     1      -9.294   4.027  -1.084  1.00  0.00     0.006 A 
HETATM   23  C23 UNL     1     -10.338   4.444  -0.260  1.00  0.00     0.043 A 
HETATM   24  C24 UNL     1     -11.361   3.554   0.067  1.00  0.00     0.125 A 
HETATM   25  C25 UNL     1      -9.562  -3.378  -0.895  1.00  0.00     0.202 C 
HETATM   26  C26 UNL     1      -5.804  -5.603  -0.107  1.00  0.00     0.202 C 
HETATM   27  C27 UNL     1      -2.340  -2.270   3.261  1.00  0.00     0.153 C 
HETATM   28  C28 UNL     1      -2.179  -3.117   0.908  1.00  0.00     0.243 C 
HETATM   29  C29 UNL     1      -1.757  -1.736   0.301  1.00  0.00     0.180 C 
HETATM   30  C30 UNL     1      -0.266  -1.773  -0.133  1.00  0.00     0.009 C 
HETATM   31  C31 UNL     1       0.708  -1.782   1.048  1.00  0.00     0.012 C 
HETATM   32  C32 UNL     1       0.063  -0.612  -1.079  1.00  0.00     0.012 C 
HETATM   33  C33 UNL     1      -3.258   0.190   0.861  1.00  0.00     0.241 C 
HETATM   34  C34 UNL     1      -3.375   1.431   1.795  1.00  0.00     0.184 C 
HETATM   35  C35 UNL     1      -4.730   2.196   1.767  1.00  0.00     0.010 C 
HETATM   36  C36 UNL     1      -5.759   1.483   2.656  1.00  0.00     0.012 C 
HETATM   37  C37 UNL     1      -5.355   2.440   0.389  1.00  0.00     0.012 C 
HETATM   38  C38 UNL     1      -2.123   3.209   0.491  1.00  0.00     0.156 C 
HETATM   39  C39 UNL     1      -1.059   2.047   2.408  1.00  0.00     0.363 C 
HETATM   40  C40 UNL     1       1.193   2.589   2.853  1.00  0.00     0.219 C 
HETATM   41  C41 UNL     1       2.365   2.966   1.979  1.00  0.00    -0.034 A 
HETATM   42  C42 UNL     1       2.449   2.493   0.664  1.00  0.00     0.011 A 
HETATM   43  C43 UNL     1       3.552   2.793  -0.140  1.00  0.00     0.030 A 
HETATM   44  C44 UNL     1       4.605   3.556   0.362  1.00  0.00     0.034 A 
HETATM   45  C45 UNL     1       4.527   4.029   1.678  1.00  0.00     0.030 A 
HETATM   46  C46 UNL     1       3.419   3.737   2.481  1.00  0.00     0.011 A 
HETATM   47  C47 UNL     1       6.095   3.492  -1.652  1.00  0.00     0.245 C 
HETATM   48  C48 UNL     1       7.377   4.178  -2.200  1.00  0.00     0.177 C 
HETATM   49  C49 UNL     1       7.359   5.715  -2.223  1.00  0.00     0.036 C 
HETATM   50  C50 UNL     1       6.596   6.416  -3.357  1.00  0.00     0.022 C 
HETATM   51  C51 UNL     1       5.083   6.507  -3.166  1.00  0.00     0.124 C 
HETATM   52  C52 UNL     1       4.242   4.640  -4.511  1.00  0.00     0.291 C 
HETATM   53  C53 UNL     1       8.520   2.538  -3.616  1.00  0.00     0.241 C 
HETATM   54  C54 UNL     1       8.178   1.540  -4.740  1.00  0.00     0.180 C 
HETATM   55  C55 UNL     1       8.625   1.997  -6.148  1.00  0.00     0.009 C 
HETATM   56  C56 UNL     1      10.146   2.164  -6.218  1.00  0.00     0.012 C 
HETATM   57  C57 UNL     1       7.937   3.268  -6.653  1.00  0.00     0.012 C 
HETATM   58  C58 UNL     1       6.208   0.108  -5.185  1.00  0.00     0.218 C 
HETATM   59  C59 UNL     1       4.747  -0.107  -4.828  1.00  0.00     0.103 C 
HETATM   60  C60 UNL     1       4.385  -1.589  -4.857  1.00  0.00     0.009 C 
HETATM   61  C61 UNL     1       2.936  -1.830  -4.424  1.00  0.00     0.002 C 
HETATM   62  C62 UNL     1       2.660  -3.302  -4.090  1.00  0.00     0.020 C 
HETATM   63  C63 UNL     1       2.819  -3.648  -2.602  1.00  0.00     0.135 C 
HETATM   64  C64 UNL     1       5.197  -4.282  -2.295  1.00  0.00     0.228 C 
HETATM   65  C65 UNL     1       6.456  -3.660  -1.771  1.00  0.00     0.128 C 
HETATM   66  C66 UNL     1       5.959  -2.490  -0.928  1.00  0.00     0.148 C 
HETATM   67  C67 UNL     1       4.520  -2.324  -1.361  1.00  0.00     0.240 C 
HETATM   68  C68 UNL     1       6.329   0.126   0.055  1.00  0.00     0.084 C 
HETATM   69  C69 UNL     1       6.617  -0.295   1.483  1.00  0.00    -0.023 A 
HETATM   70  C70 UNL     1       5.732   0.305   2.564  1.00  0.00     0.011 A 
HETATM   71  C71 UNL     1       5.585  -1.142   2.211  1.00  0.00     0.011 A 
HETATM   72  C72 UNL     1       8.083  -0.493   1.845  1.00  0.00     0.123 C 
HETATM   73  C73 UNL     1       8.971   0.704   1.597  1.00  0.00     0.282 C 
HETATM   74  C74 UNL     1       9.102   4.030   1.582  1.00  0.00     0.251 C 
HETATM   75  C75 UNL     1      10.257   4.969   1.794  1.00  0.00     0.115 C 
HETATM   76  C76 UNL     1      11.135   4.263   2.822  1.00  0.00     0.115 C 
HETATM   77  C77 UNL     1      10.426   2.965   3.086  1.00  0.00     0.251 C 
HETATM   78  O1  UNL     1      -5.492  -2.005   3.762  1.00  0.00    -0.273 OA
HETATM   79  O2  UNL     1     -11.730  -1.839   0.927  1.00  0.00    -0.273 OA
HETATM   80  O3  UNL     1      -8.649  -3.371   0.198  1.00  0.00    -0.388 OA
HETATM   81  O4  UNL     1      -4.648  -5.102   0.545  1.00  0.00    -0.388 OA
HETATM   82  O5  UNL     1      -2.035  -4.119   0.198  1.00  0.00    -0.271 OA
HETATM   83  O6  UNL     1      -4.144  -0.184   0.101  1.00  0.00    -0.271 OA
HETATM   84  O7  UNL     1      -1.004   1.121   3.211  1.00  0.00    -0.238 OA
HETATM   85  O8  UNL     1      -0.020   2.878   2.148  1.00  0.00    -0.299 OA
HETATM   86  O9  UNL     1       5.485   2.653  -2.324  1.00  0.00    -0.271 OA
HETATM   87  O10 UNL     1       4.666   5.047  -5.579  1.00  0.00    -0.254 OA
HETATM   88  O11 UNL     1       9.505   2.420  -2.891  1.00  0.00    -0.271 OA
HETATM   89  O12 UNL     1       6.842  -0.659  -5.900  1.00  0.00    -0.274 OA
HETATM   90  O13 UNL     1       5.144  -5.371  -2.845  1.00  0.00    -0.273 OA
HETATM   91  O14 UNL     1       3.789  -1.387  -1.070  1.00  0.00    -0.272 OA
HETATM   92  O15 UNL     1      10.001   0.673   0.933  1.00  0.00    -0.263 OA
HETATM   93  O16 UNL     1       8.512   1.808   2.266  1.00  0.00    -0.187 OA
HETATM   94  O17 UNL     1       8.062   4.341   1.015  1.00  0.00    -0.271 OA
HETATM   95  O18 UNL     1      10.696   2.198   3.998  1.00  0.00    -0.271 OA
HETATM   96  N1  UNL     1      -7.462  -3.047   3.325  1.00  0.00    -0.345 N 
HETATM   97  N2  UNL     1     -11.132   0.196   1.773  1.00  0.00    -0.360 N 
HETATM   98  N3  UNL     1      -2.684  -3.210   2.203  1.00  0.00    -0.347 N 
HETATM   99  N4  UNL     1      -2.071  -0.503   1.017  1.00  0.00    -0.346 N 
HETATM  100  N5  UNL     1      -2.183   2.311   1.636  1.00  0.00    -0.319 N 
HETATM  101  N6  UNL     1       5.757   3.892  -0.374  1.00  0.00    -0.325 N 
HETATM  102  N7  UNL     1       4.412   5.239  -3.299  1.00  0.00    -0.348 N 
HETATM  103  N8  UNL     1       3.573   3.466  -4.398  1.00  0.00    -0.254 NA
HETATM  104  N9  UNL     1       7.646   3.604  -3.511  1.00  0.00    -0.346 N 
HETATM  105  N10 UNL     1       6.731   1.269  -4.656  1.00  0.00    -0.347 N 
HETATM  106  N11 UNL     1       4.157  -3.423  -2.088  1.00  0.00    -0.287 N 
HETATM  107  N12 UNL     1       9.424   2.859   2.177  1.00  0.00    -0.145 N 
HETATM  108  F1  UNL     1     -12.348   3.975   0.870  1.00  0.00    -0.205 F 
HETATM  109  F2  UNL     1     -10.280   0.598  -1.724  1.00  0.00    -0.205 F 
HETATM  110  S1  UNL     1       6.971  -1.003  -1.209  1.00  0.00    -0.153 SA
HETATM  111  HA7 UNL     1     -10.369   0.787   2.075  1.00  0.00     0.162 HD
HETATM  112  HA8 UNL     1      -1.489  -0.244   1.806  1.00  0.00     0.163 HD
HETATM  113  HA9 UNL     1       6.491   4.379   0.147  1.00  0.00     0.169 HD
HETATM  114  HB0 UNL     1       3.684   5.019  -2.630  1.00  0.00     0.163 HD
HETATM  115  HB1 UNL     1       3.559   2.947  -5.268  1.00  0.00     0.128 HD
HETATM  116  HB2 UNL     1       3.871   2.909  -3.602  1.00  0.00     0.128 HD
HETATM  117  HB3 UNL     1       6.853   3.584  -4.146  1.00  0.00     0.163 HD
HETATM  118  HB4 UNL     1       6.262   1.606  -3.815  1.00  0.00     0.163 HD
ENDROOT
TORSDOF 46
