REMARK  19 active torsions:
REMARK  status: ('A' for Active; 'I' for Inactive)
REMARK    1  A    between atoms: C2_2  and  O1_63 
REMARK    2  A    between atoms: C3_3  and  C56_56 
REMARK    3  A    between atoms: C7_7  and  N1_71 
REMARK    4  A    between atoms: C8_8  and  N2_73 
REMARK    5  A    between atoms: C9_9  and  O7_69 
REMARK    6  A    between atoms: C10_10  and  C18_18 
REMARK       I    between atoms: C18_18  and  N3_75 
REMARK    7  A    between atoms: C19_19  and  N3_75 
REMARK    8  A    between atoms: C22_22  and  C25_25 
REMARK    9  A    between atoms: C28_28  and  N4_76 
REMARK   10  A    between atoms: C31_31  and  C32_32 
REMARK       I    between atoms: C31_31  and  N4_76 
REMARK   11  A    between atoms: C40_40  and  N5_77 
REMARK   12  A    between atoms: C41_41  and  O4_66 
REMARK   13  A    between atoms: C42_42  and  N6_79 
REMARK   14  A    between atoms: C46_46  and  C49_49 
REMARK   15  A    between atoms: C47_47  and  O5_67 
REMARK   16  A    between atoms: C49_49  and  O6_68 
REMARK   17  A    between atoms: C50_50  and  N7_81 
REMARK   18  A    between atoms: C56_56  and  O8_70 
REMARK   19  A    between atoms: C57_57  and  N8_83 
ROOT
HETATM    1  C19 UNL     1      -3.011  -2.055   0.459  1.00  0.00     0.035 A 
HETATM    2  C20 UNL     1      -2.248  -3.222   0.565  1.00  0.00     0.030 A 
HETATM    3  C21 UNL     1      -0.864  -3.157   0.767  1.00  0.00     0.014 A 
HETATM    4  C22 UNL     1      -0.204  -1.923   0.865  1.00  0.00    -0.026 A 
HETATM    5  C23 UNL     1      -0.980  -0.760   0.754  1.00  0.00     0.014 A 
HETATM    6  C24 UNL     1      -2.365  -0.823   0.552  1.00  0.00     0.030 A 
ENDROOT
BRANCH   4   7
HETATM    7  C25 UNL     1       1.252  -1.853   1.074  1.00  0.00    -0.026 A 
HETATM    8  C26 UNL     1       2.068  -1.072   0.243  1.00  0.00     0.014 A 
HETATM    9  C27 UNL     1       3.453  -1.009   0.442  1.00  0.00     0.030 A 
HETATM   10  C28 UNL     1       4.060  -1.727   1.478  1.00  0.00     0.035 A 
HETATM   11  C29 UNL     1       3.259  -2.505   2.310  1.00  0.00     0.030 A 
HETATM   12  C30 UNL     1       1.873  -2.566   2.110  1.00  0.00     0.014 A 
BRANCH  10  13
HETATM   13  N4  UNL     1       5.457  -1.609   1.607  1.00  0.00    -0.323 N 
HETATM   14  C31 UNL     1       6.286  -2.217   2.527  1.00  0.00     0.259 C 
HETATM   15  O3  UNL     1       5.927  -2.992   3.409  1.00  0.00    -0.267 OA
HETATM   16  H46 UNL     1       5.921  -1.000   0.937  1.00  0.00     0.169 HD
BRANCH  14  17
HETATM   17  C32 UNL     1       7.749  -1.888   2.421  1.00  0.00     0.068 A 
HETATM   18  C33 UNL     1       8.607  -2.473   3.368  1.00  0.00     0.032 A 
HETATM   19  C34 UNL     1       9.991  -2.230   3.366  1.00  0.00    -0.022 A 
HETATM   20  C35 UNL     1      10.822  -2.823   4.331  1.00  0.00     0.012 A 
HETATM   21  C39 UNL     1      10.552  -1.377   2.388  1.00  0.00     0.005 A 
HETATM   22  C36 UNL     1      12.196  -2.584   4.340  1.00  0.00     0.001 A 
HETATM   23  C37 UNL     1      12.759  -1.746   3.385  1.00  0.00     0.001 A 
HETATM   24  C38 UNL     1      11.946  -1.149   2.421  1.00  0.00     0.014 A 
HETATM   25  C40 UNL     1       9.699  -0.793   1.420  1.00  0.00     0.093 A 
HETATM   26  C41 UNL     1       8.310  -1.048   1.454  1.00  0.00     0.110 A 
BRANCH  25  27
HETATM   27  N5  UNL     1      10.224   0.091   0.448  1.00  0.00    -0.297 N 
HETATM   28  N6  UNL     1      10.236  -0.453  -0.680  1.00  0.00    -0.297 N 
ATOM     29  H6  UNL     1       9.795  -1.344  -0.909  1.00  0.00     0.187 HD
ATOM     30  H5  UNL     1      10.548   1.039   0.639  1.00  0.00     0.187 HD
BRANCH  28  31
HETATM   31  C42 UNL     1      10.953   0.355  -1.584  1.00  0.00     0.082 A 
HETATM   32  C43 UNL     1      10.271   1.308  -2.357  1.00  0.00     0.034 A 
HETATM   33  C44 UNL     1      10.960   2.136  -3.247  1.00  0.00     0.003 A 
HETATM   34  C45 UNL     1      12.344   2.024  -3.368  1.00  0.00     0.019 A 
HETATM   35  C46 UNL     1      13.030   1.071  -2.609  1.00  0.00     0.050 A 
HETATM   36  C47 UNL     1      12.342   0.212  -1.747  1.00  0.00     0.110 A 
BRANCH  35  37
HETATM   37  C49 UNL     1      14.487   1.006  -2.729  1.00  0.00     0.153 C 
HETATM   38  N7  UNL     1      15.424   1.522  -2.010  1.00  0.00    -0.336 N 
ATOM     39  H7  UNL     1      16.406   1.378  -2.246  1.00  0.00     0.168 HD
BRANCH  37  40
HETATM   40  O6  UNL     1      14.836   0.288  -3.809  1.00  0.00    -0.345 OA
HETATM   41  H42 UNL     1      15.808   0.278  -3.834  1.00  0.00     0.219 HD
ENDBRANCH  37  40
BRANCH  38  42
HETATM   42  C50 UNL     1      15.056   2.287  -0.893  1.00  0.00     0.034 A 
HETATM   43  C51 UNL     1      14.868   3.666  -1.012  1.00  0.00     0.029 A 
HETATM   44  C52 UNL     1      14.505   4.430   0.099  1.00  0.00     0.002 A 
HETATM   45  C53 UNL     1      14.340   3.817   1.341  1.00  0.00     0.000 A 
HETATM   46  C54 UNL     1      14.546   2.444   1.473  1.00  0.00     0.002 A 
HETATM   47  C55 UNL     1      14.912   1.685   0.360  1.00  0.00     0.029 A 
ENDBRANCH  38  42
ENDBRANCH  35  37
BRANCH  36  48
HETATM   48  O5  UNL     1      13.036  -0.715  -1.007  1.00  0.00    -0.353 OA
HETATM   49  C48 UNL     1      12.962  -2.002  -1.623  1.00  0.00     0.210 C 
ENDBRANCH  36  48
ENDBRANCH  28  31
ENDBRANCH  25  27
BRANCH  26  50
HETATM   50  O4  UNL     1       7.518  -0.443   0.500  1.00  0.00    -0.357 OA
HETATM   51  H41 UNL     1       8.140   0.028  -0.094  1.00  0.00     0.217 HD
ENDBRANCH  26  50
ENDBRANCH  14  17
ENDBRANCH  10  13
ENDBRANCH   4   7
BRANCH   1  52
HETATM   52  N3  UNL     1      -4.398  -2.207   0.248  1.00  0.00    -0.323 N 
HETATM   53  C18 UNL     1      -5.352  -1.207   0.201  1.00  0.00     0.259 C 
HETATM   54  O2  UNL     1      -5.179  -0.013   0.428  1.00  0.00    -0.267 OA
HETATM   55  H45 UNL     1      -4.725  -3.164   0.209  1.00  0.00     0.169 HD
BRANCH  53  56
HETATM   56  C10 UNL     1      -6.744  -1.649  -0.095  1.00  0.00     0.068 A 
HETATM   57  C9  UNL     1      -7.827  -0.950   0.455  1.00  0.00     0.110 A 
HETATM   58  C8  UNL     1      -9.152  -1.359   0.203  1.00  0.00     0.093 A 
HETATM   59  C17 UNL     1      -9.393  -2.506  -0.600  1.00  0.00     0.005 A 
HETATM   60  C12 UNL     1      -8.296  -3.186  -1.183  1.00  0.00    -0.022 A 
HETATM   61  C16 UNL     1     -10.690  -3.004  -0.852  1.00  0.00     0.014 A 
HETATM   62  C11 UNL     1      -6.987  -2.743  -0.936  1.00  0.00     0.032 A 
HETATM   63  C13 UNL     1      -8.524  -4.304  -2.005  1.00  0.00     0.012 A 
HETATM   64  C14 UNL     1      -9.817  -4.767  -2.244  1.00  0.00     0.001 A 
HETATM   65  C15 UNL     1     -10.901  -4.120  -1.664  1.00  0.00     0.001 A 
BRANCH  57  66
HETATM   66  O7  UNL     1      -7.633   0.145   1.269  1.00  0.00    -0.357 OA
HETATM   67  H43 UNL     1      -6.711   0.463   1.144  1.00  0.00     0.217 HD
ENDBRANCH  57  66
BRANCH  58  68
HETATM   68  N2  UNL     1     -10.234  -0.652   0.776  1.00  0.00    -0.297 N 
HETATM   69  N1  UNL     1     -10.479   0.375   0.101  1.00  0.00    -0.297 N 
ATOM     70  H1  UNL     1      -9.995   0.625  -0.762  1.00  0.00     0.187 HD
ATOM     71  H2  UNL     1     -10.740  -0.936   1.615  1.00  0.00     0.187 HD
BRANCH  69  72
HETATM   72  C7  UNL     1     -11.510   1.142   0.687  1.00  0.00     0.082 A 
HETATM   73  C2  UNL     1     -12.561   1.651  -0.102  1.00  0.00     0.110 A 
HETATM   74  C3  UNL     1     -13.545   2.467   0.481  1.00  0.00     0.050 A 
HETATM   75  C4  UNL     1     -13.480   2.788   1.844  1.00  0.00     0.019 A 
HETATM   76  C5  UNL     1     -12.442   2.295   2.630  1.00  0.00     0.003 A 
HETATM   77  C6  UNL     1     -11.466   1.483   2.053  1.00  0.00     0.034 A 
BRANCH  73  78
HETATM   78  O1  UNL     1     -12.581   1.465  -1.465  1.00  0.00    -0.353 OA
HETATM   79  C1  UNL     1     -12.827   0.105  -1.817  1.00  0.00     0.210 C 
ENDBRANCH  73  78
BRANCH  74  80
HETATM   80  C56 UNL     1     -14.668   3.030  -0.289  1.00  0.00     0.153 C 
HETATM   81  N8  UNL     1     -15.083   4.247  -0.154  1.00  0.00    -0.336 N 
ATOM     82  H8  UNL     1     -14.614   4.874   0.500  1.00  0.00     0.168 HD
BRANCH  80  83
HETATM   83  O8  UNL     1     -15.248   2.104  -1.079  1.00  0.00    -0.345 OA
HETATM   84  H44 UNL     1     -15.975   2.494  -1.587  1.00  0.00     0.219 HD
ENDBRANCH  80  83
BRANCH  81  85
HETATM   85  C57 UNL     1     -16.172   4.708  -0.901  1.00  0.00     0.034 A 
HETATM   86  C58 UNL     1     -17.466   4.634  -0.381  1.00  0.00     0.029 A 
HETATM   87  C59 UNL     1     -18.554   5.086  -1.129  1.00  0.00     0.002 A 
HETATM   88  C60 UNL     1     -18.350   5.625  -2.399  1.00  0.00     0.000 A 
HETATM   89  C61 UNL     1     -17.059   5.718  -2.917  1.00  0.00     0.002 A 
HETATM   90  C62 UNL     1     -15.973   5.264  -2.167  1.00  0.00     0.029 A 
ENDBRANCH  81  85
ENDBRANCH  74  80
ENDBRANCH  69  72
ENDBRANCH  58  68
ENDBRANCH  53  56
ENDBRANCH   1  52
TORSDOF 19
