REMARK  0 active torsions:
REMARK  status: ('A' for Active; 'I' for Inactive)
REMARK       I    between atoms: C2_2  and  C3_3 
REMARK       I    between atoms: C3_3  and  C5_5 
REMARK       I    between atoms: C5_5  and  C6_6 
REMARK       I    between atoms: C5_5  and  N10_79 
REMARK       I    between atoms: C6_6  and  N1_69 
REMARK       I    between atoms: C7_7  and  C8_8 
REMARK       I    between atoms: C7_7  and  C11_11 
REMARK       I    between atoms: C7_7  and  N1_69 
REMARK       I    between atoms: C11_11  and  N2_70 
REMARK       I    between atoms: C12_12  and  C13_13 
REMARK       I    between atoms: C12_12  and  C17_17 
REMARK       I    between atoms: C12_12  and  N2_70 
REMARK       I    between atoms: C13_13  and  C14_14 
REMARK       I    between atoms: C14_14  and  C15_15 
REMARK       I    between atoms: C15_15  and  N3_71 
REMARK       I    between atoms: C16_16  and  N4_73 
REMARK       I    between atoms: C16_16  and  N5_74 
REMARK       I    between atoms: C17_17  and  N6_75 
REMARK       I    between atoms: C18_18  and  C19_19 
REMARK       I    between atoms: C18_18  and  C21_21 
REMARK       I    between atoms: C18_18  and  N6_75 
REMARK       I    between atoms: C19_19  and  O4_59 
REMARK       I    between atoms: C21_21  and  N7_76 
REMARK       I    between atoms: C22_22  and  C23_23 
REMARK       I    between atoms: C22_22  and  C27_27 
REMARK       I    between atoms: C22_22  and  N7_76 
REMARK       I    between atoms: C23_23  and  C24_24 
REMARK       I    between atoms: C24_24  and  C25_25 
REMARK       I    between atoms: C25_25  and  C26_26 
REMARK       I    between atoms: C26_26  and  N8_77 
REMARK       I    between atoms: C27_27  and  N9_78 
REMARK       I    between atoms: C28_28  and  C29_29 
REMARK       I    between atoms: C28_28  and  N9_78 
REMARK       I    between atoms: C29_29  and  O8_63 
REMARK       I    between atoms: C30_30  and  C31_31 
REMARK       I    between atoms: C30_30  and  N10_79 
REMARK       I    between atoms: C31_31  and  C32_32 
REMARK       I    between atoms: C31_31  and  N11_80 
REMARK       I    between atoms: C32_32  and  C33_33 
REMARK       I    between atoms: C36_36  and  C37_37 
REMARK       I    between atoms: C36_36  and  N11_80 
REMARK       I    between atoms: C37_37  and  N12_81 
REMARK       I    between atoms: C39_39  and  C40_40 
REMARK       I    between atoms: C39_39  and  N12_81 
REMARK       I    between atoms: C44_44  and  C45_45 
REMARK       I    between atoms: C44_44  and  N13_82 
REMARK       I    between atoms: C45_45  and  C46_46 
REMARK       I    between atoms: C45_45  and  N17_87 
REMARK       I    between atoms: C46_46  and  C47_47 
REMARK       I    between atoms: C47_47  and  C48_48 
REMARK       I    between atoms: C48_48  and  N14_83 
REMARK       I    between atoms: C49_49  and  N15_85 
REMARK       I    between atoms: C49_49  and  N16_86 
REMARK       I    between atoms: C50_50  and  C51_51 
REMARK       I    between atoms: C50_50  and  N17_87 
REMARK       I    between atoms: C51_51  and  C52_52 
REMARK       I    between atoms: C51_51  and  N18_88 
REMARK       I    between atoms: C52_52  and  C53_53 
ROOT
HETATM    1  C1  UNL     1      -2.788  -3.508   3.393  1.00  0.00     0.005 C 
HETATM    2  C2  UNL     1      -1.814  -2.498   2.801  1.00  0.00     0.002 C 
HETATM    3  C3  UNL     1      -1.742  -2.526   1.259  1.00  0.00     0.013 C 
HETATM    4  C4  UNL     1      -1.043  -1.253   0.774  1.00  0.00     0.012 C 
HETATM    5  C5  UNL     1      -1.112  -3.839   0.705  1.00  0.00     0.180 C 
HETATM    6  C6  UNL     1      -1.683  -4.150  -0.705  1.00  0.00     0.241 C 
HETATM    7  C7  UNL     1      -1.573  -3.622  -3.116  1.00  0.00     0.180 C 
HETATM    8  C8  UNL     1      -0.543  -3.913  -4.228  1.00  0.00     0.009 C 
HETATM    9  C9  UNL     1       0.075  -5.305  -4.055  1.00  0.00     0.012 C 
HETATM   10  C10 UNL     1      -1.182  -3.821  -5.618  1.00  0.00     0.012 C 
HETATM   11  C11 UNL     1      -2.224  -2.225  -3.251  1.00  0.00     0.241 C 
HETATM   12  C12 UNL     1      -1.776   0.234  -3.480  1.00  0.00     0.176 C 
HETATM   13  C13 UNL     1      -2.512   0.444  -4.812  1.00  0.00     0.036 C 
HETATM   14  C14 UNL     1      -2.428   1.884  -5.348  1.00  0.00     0.022 C 
HETATM   15  C15 UNL     1      -3.285   2.898  -4.591  1.00  0.00     0.121 C 
HETATM   16  C16 UNL     1      -5.554   2.993  -3.941  1.00  0.00     0.121 C 
HETATM   17  C17 UNL     1      -2.495   0.711  -2.197  1.00  0.00     0.241 C 
HETATM   18  C18 UNL     1      -4.501   0.301  -0.788  1.00  0.00     0.205 C 
HETATM   19  C19 UNL     1      -5.781  -0.562  -0.818  1.00  0.00     0.146 C 
HETATM   20  C20 UNL     1      -6.719  -0.328  -1.997  1.00  0.00     0.042 C 
HETATM   21  C21 UNL     1      -4.801   1.731  -0.283  1.00  0.00     0.243 C 
HETATM   22  C22 UNL     1      -3.785   3.663   0.930  1.00  0.00     0.176 C 
HETATM   23  C23 UNL     1      -3.171   3.719   2.339  1.00  0.00     0.035 C 
HETATM   24  C24 UNL     1      -4.024   3.024   3.410  1.00  0.00     0.004 C 
HETATM   25  C25 UNL     1      -4.939   3.960   4.210  1.00  0.00     0.030 C 
HETATM   26  C26 UNL     1      -6.008   4.659   3.375  1.00  0.00     0.267 C 
HETATM   27  C27 UNL     1      -3.033   4.662   0.018  1.00  0.00     0.240 C 
HETATM   28  C28 UNL     1      -1.248   4.906  -1.653  1.00  0.00     0.232 C 
HETATM   29  C29 UNL     1       0.091   4.900  -0.921  1.00  0.00     0.158 C 
HETATM   30  C30 UNL     1       1.358  -3.320   0.332  1.00  0.00     0.241 C 
HETATM   31  C31 UNL     1       2.742  -3.404   1.023  1.00  0.00     0.177 C 
HETATM   32  C32 UNL     1       3.302  -4.833   1.147  1.00  0.00     0.038 C 
HETATM   33  C33 UNL     1       3.955  -5.435  -0.116  1.00  0.00    -0.020 C 
HETATM   34  C34 UNL     1       5.174  -4.640  -0.585  1.00  0.00     0.009 C 
HETATM   35  C35 UNL     1       2.972  -5.635  -1.266  1.00  0.00     0.009 C 
HETATM   36  C36 UNL     1       2.151  -3.180   3.470  1.00  0.00     0.240 C 
HETATM   37  C37 UNL     1       2.365  -2.297   4.721  1.00  0.00     0.172 C 
HETATM   38  C38 UNL     1       2.065  -3.067   5.999  1.00  0.00     0.042 C 
HETATM   39  C39 UNL     1       1.906   0.117   4.359  1.00  0.00     0.241 C 
HETATM   40  C40 UNL     1       0.827   1.055   3.773  1.00  0.00     0.179 C 
HETATM   41  C41 UNL     1      -0.178   1.486   4.843  1.00  0.00     0.037 C 
HETATM   42  C42 UNL     1       0.340   2.851   5.283  1.00  0.00     0.022 C 
HETATM   43  C43 UNL     1       0.870   3.450   3.991  1.00  0.00     0.127 C 
HETATM   44  C44 UNL     1       2.061   2.480   2.065  1.00  0.00     0.243 C 
HETATM   45  C45 UNL     1       2.630   1.232   1.363  1.00  0.00     0.176 C 
HETATM   46  C46 UNL     1       1.942   0.973   0.023  1.00  0.00     0.036 C 
HETATM   47  C47 UNL     1       2.504   1.755  -1.172  1.00  0.00     0.022 C 
HETATM   48  C48 UNL     1       1.724   1.461  -2.456  1.00  0.00     0.121 C 
HETATM   49  C49 UNL     1       2.580  -0.622  -3.206  1.00  0.00     0.121 C 
HETATM   50  C50 UNL     1       4.951   0.368   1.538  1.00  0.00     0.251 C 
HETATM   51  C51 UNL     1       6.444   0.762   1.423  1.00  0.00     0.309 C 
HETATM   52  C52 UNL     1       6.840   0.822  -0.062  1.00  0.00     0.049 C 
HETATM   53  C53 UNL     1       8.206   1.451  -0.412  1.00  0.00    -0.020 C 
HETATM   54  C54 UNL     1       9.401   0.621   0.051  1.00  0.00     0.009 C 
HETATM   55  C55 UNL     1       8.328   2.892   0.086  1.00  0.00     0.009 C 
HETATM   56  O1  UNL     1      -2.796  -4.661  -0.831  1.00  0.00    -0.271 OA
HETATM   57  O2  UNL     1      -3.446  -2.073  -3.300  1.00  0.00    -0.271 OA
HETATM   58  O3  UNL     1      -1.914   1.339  -1.308  1.00  0.00    -0.271 OA
HETATM   59  O4  UNL     1      -5.406  -1.949  -0.803  1.00  0.00    -0.393 OA
HETATM   60  O5  UNL     1      -5.832   2.353  -0.524  1.00  0.00    -0.271 OA
HETATM   61  O6  UNL     1      -3.067   5.875   0.224  1.00  0.00    -0.271 OA
HETATM   62  O7  UNL     1       1.111   5.442  -1.321  1.00  0.00    -0.649 OA
HETATM   63  O8  UNL     1       0.087   4.204   0.236  1.00  0.00    -0.775 OA
HETATM   64  O9  UNL     1       1.213  -2.724  -0.737  1.00  0.00    -0.271 OA
HETATM   65  O10 UNL     1       1.421  -4.171   3.465  1.00  0.00    -0.271 OA
HETATM   66  O11 UNL     1       3.071   0.456   4.543  1.00  0.00    -0.271 OA
HETATM   67  O12 UNL     1       2.263   3.607   1.593  1.00  0.00    -0.271 OA
HETATM   68  O13 UNL     1       4.586  -0.768   1.847  1.00  0.00    -0.271 OA
HETATM   69  N1  UNL     1      -0.975  -3.686  -1.784  1.00  0.00    -0.346 N 
HETATM   70  N2  UNL     1      -1.353  -1.155  -3.278  1.00  0.00    -0.346 N 
HETATM   71  N3  UNL     1      -4.681   2.523  -4.746  1.00  0.00    -0.372 N 
ATOM     72  H3  UNL     1      -4.962   1.888  -5.493  1.00  0.00     0.161 HD
HETATM   73  N4  UNL     1      -5.424   3.843  -2.900  1.00  0.00    -0.279 NA
HETATM   74  N5  UNL     1      -6.850   2.653  -4.096  1.00  0.00    -0.279 NA
HETATM   75  N6  UNL     1      -3.803   0.307  -2.073  1.00  0.00    -0.344 N 
HETATM   76  N7  UNL     1      -3.759   2.284   0.437  1.00  0.00    -0.346 N 
HETATM   77  N8  UNL     1      -6.904   5.415   4.244  1.00  0.00     0.078 N 
HETATM   78  N9  UNL     1      -2.271   4.112  -0.989  1.00  0.00    -0.349 N 
HETATM   79  N10 UNL     1       0.330  -3.980   0.957  1.00  0.00    -0.346 N 
HETATM   80  N11 UNL     1       2.724  -2.699   2.315  1.00  0.00    -0.346 N 
HETATM   81  N12 UNL     1       1.449  -1.163   4.594  1.00  0.00    -0.346 N 
HETATM   82  N13 UNL     1       1.360   2.310   3.239  1.00  0.00    -0.337 N 
HETATM   83  N14 UNL     1       1.621   0.016  -2.652  1.00  0.00    -0.372 N 
ATOM     84  H14 UNL     1       0.785  -0.482  -2.347  1.00  0.00     0.161 HD
HETATM   85  N15 UNL     1       2.553  -1.972  -3.220  1.00  0.00    -0.279 NA
HETATM   86  N16 UNL     1       3.724  -0.177  -3.767  1.00  0.00    -0.279 NA
HETATM   87  N17 UNL     1       4.073   1.385   1.248  1.00  0.00    -0.346 N 
HETATM   88  N18 UNL     1       7.255  -0.211   2.176  1.00  0.00     0.092 N 
HETATM   89  H80 UNL     1      -4.964  -2.165  -1.650  1.00  0.00     0.210 HD
HETATM   90  H81 UNL     1       0.999   4.308   0.614  1.00  0.00     0.167 HD
HETATM   91  H82 UNL     1      -0.159  -3.110  -1.582  1.00  0.00     0.163 HD
HETATM   92  H83 UNL     1      -0.367  -1.290  -3.064  1.00  0.00     0.163 HD
HETATM   93  H84 UNL     1      -5.947   3.507  -2.086  1.00  0.00     0.126 HD
HETATM   94  H85 UNL     1      -4.472   4.025  -2.611  1.00  0.00     0.126 HD
HETATM   95  H86 UNL     1      -6.994   2.207  -4.995  1.00  0.00     0.126 HD
HETATM   96  H87 UNL     1      -7.472   3.441  -3.966  1.00  0.00     0.126 HD
HETATM   97  H88 UNL     1      -4.039  -0.463  -2.702  1.00  0.00     0.163 HD
HETATM   98  H89 UNL     1      -2.852   1.835   0.319  1.00  0.00     0.163 HD
HETATM   99  H90 UNL     1      -7.608   5.882   3.673  1.00  0.00     0.312 HD
HETATM  100  H91 UNL     1      -7.413   4.776   4.853  1.00  0.00     0.312 HD
HETATM  101  H92 UNL     1      -2.093   3.111  -0.948  1.00  0.00     0.163 HD
HETATM  102  H93 UNL     1       0.561  -4.328   1.891  1.00  0.00     0.163 HD
HETATM  103  H94 UNL     1       3.395  -1.927   2.394  1.00  0.00     0.163 HD
HETATM  104  H95 UNL     1       0.484  -1.386   4.391  1.00  0.00     0.163 HD
HETATM  105  H96 UNL     1       3.470  -2.369  -3.057  1.00  0.00     0.126 HD
HETATM  106  H97 UNL     1       1.923  -2.299  -2.483  1.00  0.00     0.126 HD
HETATM  107  H98 UNL     1       3.735   0.813  -3.975  1.00  0.00     0.126 HD
HETATM  108  H99 UNL     1       3.987  -0.711  -4.588  1.00  0.00     0.126 HD
HETATM  109  HA0 UNL     1       4.423   2.324   1.088  1.00  0.00     0.163 HD
HETATM  110  HA1 UNL     1       6.924  -0.218   3.143  1.00  0.00     0.313 HD
HETATM  111  HA2 UNL     1       7.024  -1.144   1.828  1.00  0.00     0.313 HD
ENDROOT
TORSDOF 44
