REMARK  13 active torsions:
REMARK  status: ('A' for Active; 'I' for Inactive)
REMARK    1  A    between atoms: C2_2  and  C3_3 
REMARK    2  A    between atoms: C2_2  and  O4_50 
REMARK    3  A    between atoms: C3_3  and  C4_4 
REMARK    4  A    between atoms: C3_3  and  C8_8 
REMARK    5  A    between atoms: C4_4  and  C5_5 
REMARK    6  A    between atoms: C5_5  and  N1_34 
REMARK       I    between atoms: C8_8  and  N2_35 
REMARK    7  A    between atoms: C13_13  and  C14_14 
REMARK       I    between atoms: C13_13  and  N3_36 
REMARK    8  A    between atoms: C17_17  and  N4_37 
REMARK    9  A    between atoms: C20_20  and  C21_21 
REMARK       I    between atoms: C20_20  and  N4_37 
REMARK   10  A    between atoms: C23_23  and  C25_25 
REMARK   11  A    between atoms: C27_27  and  C28_28 
REMARK   12  A    between atoms: C29_29  and  N7_41 
REMARK   13  A    between atoms: C31_31  and  N10_46 
ROOT
HETATM    1  C20 UNL     1       3.784  -0.914   0.385  1.00  0.00     0.290 C 
HETATM    2  N4  UNL     1       2.709  -0.985  -0.484  1.00  0.00    -0.320 N 
HETATM    3  O3  UNL     1       3.780  -1.288   1.553  1.00  0.00    -0.264 OA
HETATM    4  H35 UNL     1       2.927  -0.632  -1.415  1.00  0.00     0.169 HD
ENDROOT
BRANCH   1   5
HETATM    5  C21 UNL     1       4.955  -0.336  -0.272  1.00  0.00     0.177 A 
HETATM    6  N5  UNL     1       4.937  -0.007  -1.556  1.00  0.00    -0.345 N 
HETATM    7  C22 UNL     1       6.207   0.416  -1.847  1.00  0.00     0.120 A 
ATOM      8  H5  UNL     1       4.143  -0.058  -2.194  1.00  0.00     0.167 HD
HETATM    9  C23 UNL     1       7.028   0.348  -0.741  1.00  0.00     0.065 A 
HETATM   10  N6  UNL     1       6.188  -0.053   0.280  1.00  0.00    -0.331 N 
HETATM   11  C24 UNL     1       6.496  -0.100   1.690  1.00  0.00     0.158 C 
BRANCH   9  12
HETATM   12  C25 UNL     1       8.564   0.652  -0.694  1.00  0.00     0.043 A 
HETATM   13  C26 UNL     1       9.379   0.435   0.390  1.00  0.00     0.134 A 
HETATM   14  N7  UNL     1      10.655   0.810   0.036  1.00  0.00    -0.250 N 
HETATM   15  N8  UNL     1      10.703   1.254  -1.243  1.00  0.00    -0.288 N 
HETATM   16  C27 UNL     1       9.437   1.158  -1.703  1.00  0.00     0.146 A 
ATOM     17  H8  UNL     1      11.522   1.590  -1.751  1.00  0.00     0.187 HD
BRANCH  14  18
HETATM   18  C29 UNL     1      11.809   0.750   0.874  1.00  0.00     0.126 A 
HETATM   19  C33 UNL     1      13.037   1.174   0.373  1.00  0.00     0.052 A 
HETATM   20  C32 UNL     1      14.158   1.107   1.203  1.00  0.00     0.028 A 
HETATM   21  C31 UNL     1      14.050   0.586   2.490  1.00  0.00     0.021 A 
HETATM   22  C30 UNL     1      12.767   0.245   2.917  1.00  0.00     0.113 A 
HETATM   23  N9  UNL     1      11.654   0.289   2.144  1.00  0.00    -0.349 N 
ATOM     24  H9  UNL     1      10.745  -0.009   2.498  1.00  0.00     0.167 HD
BRANCH  21  25
HETATM   25  N10 UNL     1      15.136   0.631   3.368  1.00  0.00    -0.302 NA
HETATM   26  H36 UNL     1      16.043   0.601   2.910  1.00  0.00     0.124 HD
HETATM   27  H37 UNL     1      15.078  -0.021   4.145  1.00  0.00     0.124 HD
ENDBRANCH  21  25
ENDBRANCH  14  18
BRANCH  16  28
HETATM   28  C28 UNL     1       9.093   1.569  -3.109  1.00  0.00     0.434 C 
HETATM   29  F1  UNL     1       8.644   0.518  -3.848  1.00  0.00    -0.165 F 
HETATM   30  F2  UNL     1      10.144   2.096  -3.793  1.00  0.00    -0.165 F 
HETATM   31  F3  UNL     1       8.110   2.510  -3.137  1.00  0.00    -0.165 F 
ENDBRANCH  16  28
ENDBRANCH   9  12
ENDBRANCH   1   5
BRANCH   2  32
HETATM   32  C17 UNL     1       1.414  -1.477  -0.249  1.00  0.00     0.036 A 
HETATM   33  C16 UNL     1       0.510  -1.427  -1.319  1.00  0.00     0.054 A 
HETATM   34  C15 UNL     1      -0.801  -1.894  -1.170  1.00  0.00     0.051 A 
HETATM   35  C14 UNL     1      -1.216  -2.403   0.062  1.00  0.00     0.054 A 
HETATM   36 CL1  UNL     1      -1.850  -1.815  -2.540  1.00  0.00    -0.083 Cl
HETATM   37  C19 UNL     1      -0.315  -2.478   1.128  1.00  0.00     0.021 A 
HETATM   38  C18 UNL     1       0.993  -2.009   0.973  1.00  0.00     0.030 A 
BRANCH  35  39
HETATM   39  C13 UNL     1      -2.577  -2.925   0.277  1.00  0.00     0.255 C 
HETATM   40  N3  UNL     1      -3.641  -2.028   0.323  1.00  0.00    -0.345 N 
HETATM   41  C10 UNL     1      -4.967  -2.567   0.618  1.00  0.00     0.146 C 
HETATM   42  C11 UNL     1      -3.494  -0.591   0.587  1.00  0.00     0.146 C 
HETATM   43  C9  UNL     1      -6.090  -1.744  -0.026  1.00  0.00     0.145 C 
HETATM   44  N2  UNL     1      -5.951  -0.301   0.218  1.00  0.00    -0.349 N 
HETATM   45  C8  UNL     1      -7.012   0.607   0.136  1.00  0.00     0.226 C 
HETATM   46  C12 UNL     1      -4.612   0.233  -0.061  1.00  0.00     0.145 C 
HETATM   47  O1  UNL     1      -6.799   1.806  -0.055  1.00  0.00    -0.273 OA
HETATM   48  O2  UNL     1      -2.699  -4.138   0.421  1.00  0.00    -0.267 OA
BRANCH  45  49
HETATM   49  C3  UNL     1      -8.440   0.069   0.316  1.00  0.00     0.108 C 
BRANCH  49  50
HETATM   50  C2  UNL     1      -8.635  -0.351   1.793  1.00  0.00     0.127 C 
HETATM   51  C1  UNL     1      -9.717  -1.418   1.941  1.00  0.00     0.040 C 
BRANCH  50  52
HETATM   52  O4  UNL     1      -9.001   0.768   2.597  1.00  0.00    -0.395 OA
HETATM   53  H38 UNL     1      -9.059   0.474   3.521  1.00  0.00     0.210 HD
ENDBRANCH  50  52
ENDBRANCH  49  50
BRANCH  49  54
HETATM   54  C4  UNL     1      -9.504   1.092  -0.152  1.00  0.00     0.047 C 
BRANCH  54  55
HETATM   55  C5  UNL     1      -9.503   1.266  -1.681  1.00  0.00     0.272 C 
BRANCH  55  56
HETATM   56  N1  UNL     1     -10.525   2.215  -2.158  1.00  0.00     0.080 N 
HETATM   57  C6  UNL     1     -10.268   2.569  -3.556  1.00  0.00     0.309 C 
HETATM   58  C7  UNL     1     -11.883   1.686  -2.023  1.00  0.00     0.309 C 
ENDBRANCH  55  56
ENDBRANCH  54  55
ENDBRANCH  49  54
ENDBRANCH  45  49
ENDBRANCH  35  39
ENDBRANCH   2  32
TORSDOF 13
