REMARK  6 active torsions:
REMARK  status: ('A' for Active; 'I' for Inactive)
REMARK    1  A    between atoms: C3_3  and  N4_35 
REMARK    2  A    between atoms: C6_6  and  C7_7 
REMARK    3  A    between atoms: C10_10  and  N2_33 
REMARK       I    between atoms: C16_16  and  N4_35 
REMARK       I    between atoms: C16_16  and  N5_36 
REMARK    4  A    between atoms: C17_17  and  N5_36 
REMARK    5  A    between atoms: C20_20  and  C23_23 
REMARK    6  A    between atoms: C26_26  and  N7_38 
ROOT
HETATM    1  C16 UNL     1      -0.090   2.595  -0.653  1.00  0.00     0.316 C 
HETATM    2  N4  UNL     1       0.796   1.633  -1.069  1.00  0.00    -0.336 N 
HETATM    3  N5  UNL     1      -0.990   2.063   0.237  1.00  0.00    -0.336 N 
HETATM    4  O1  UNL     1      -0.082   3.760  -1.023  1.00  0.00    -0.247 OA
HETATM    5  H53 UNL     1       0.350   0.728  -1.161  1.00  0.00     0.164 HD
HETATM    6  H54 UNL     1      -0.554   1.372   0.836  1.00  0.00     0.164 HD
ENDROOT
BRANCH   2   7
HETATM    7  C3  UNL     1       1.782   1.925  -2.114  1.00  0.00     0.120 C 
HETATM    8  C2  UNL     1       2.879   2.883  -1.636  1.00  0.00     0.028 C 
HETATM    9  C1  UNL     1       3.795   2.244  -0.591  1.00  0.00     0.007 C 
HETATM   10  C6  UNL     1       4.445   0.931  -1.084  1.00  0.00    -0.006 C 
HETATM   11  C5  UNL     1       3.350  -0.022  -1.598  1.00  0.00     0.044 C 
HETATM   12  C4  UNL     1       2.430   0.633  -2.625  1.00  0.00     0.193 C 
HETATM   13  F1  UNL     1       1.444  -0.257  -2.943  1.00  0.00    -0.247 F 
BRANCH  10  14
HETATM   14  C7  UNL     1       5.319   0.283   0.038  1.00  0.00     0.018 C 
HETATM   15  C8  UNL     1       6.379   1.281   0.569  1.00  0.00     0.011 C 
HETATM   16  C9  UNL     1       7.647   0.560   1.018  1.00  0.00     0.069 C 
HETATM   17  C10 UNL     1       8.288  -0.217  -0.161  1.00  0.00     0.454 C 
HETATM   18  N1  UNL     1       7.276  -0.799  -1.050  1.00  0.00     0.117 N 
HETATM   19  C11 UNL     1       6.011  -1.042  -0.362  1.00  0.00     0.277 C 
HETATM   20  H51 UNL     1       7.116  -0.155  -1.820  1.00  0.00     0.318 HD
BRANCH  17  21
HETATM   21  N2  UNL     1       9.184  -1.286   0.296  1.00  0.00     0.125 N 
HETATM   22  C12 UNL     1       9.853  -1.988  -0.821  1.00  0.00     0.305 C 
HETATM   23  C13 UNL     1      10.715  -3.184  -0.338  1.00  0.00     0.299 C 
HETATM   24  N3  UNL     1      11.067  -3.153   1.096  1.00  0.00     0.086 N 
HETATM   25  C14 UNL     1      11.401  -1.768   1.460  1.00  0.00     0.299 C 
HETATM   26  H52 UNL     1      10.199  -3.372   1.594  1.00  0.00     0.315 HD
HETATM   27  C15 UNL     1      10.219  -0.790   1.236  1.00  0.00     0.305 C 
ENDBRANCH  17  21
ENDBRANCH  10  14
ENDBRANCH   2   7
BRANCH   3  28
HETATM   28  C17 UNL     1      -1.959   2.928   0.920  1.00  0.00     0.120 C 
HETATM   29  C18 UNL     1      -3.032   3.477  -0.042  1.00  0.00     0.028 C 
HETATM   30  C19 UNL     1      -4.386   2.761   0.056  1.00  0.00     0.007 C 
HETATM   31  C20 UNL     1      -4.219   1.253   0.297  1.00  0.00    -0.006 C 
HETATM   32  C21 UNL     1      -3.478   0.997   1.625  1.00  0.00     0.044 C 
HETATM   33  C22 UNL     1      -2.618   2.176   2.083  1.00  0.00     0.193 C 
HETATM   34  F2  UNL     1      -1.647   1.697   2.914  1.00  0.00    -0.247 F 
BRANCH  31  35
HETATM   35  C23 UNL     1      -5.560   0.482   0.148  1.00  0.00     0.018 C 
HETATM   36  C24 UNL     1      -5.349  -1.043   0.154  1.00  0.00     0.011 C 
HETATM   37  C25 UNL     1      -6.604  -1.809   0.587  1.00  0.00     0.069 C 
HETATM   38  C26 UNL     1      -7.895  -1.057   0.208  1.00  0.00     0.454 C 
HETATM   39  N6  UNL     1      -7.937   0.250   0.854  1.00  0.00     0.117 N 
HETATM   40  C27 UNL     1      -6.643   0.853   1.170  1.00  0.00     0.277 C 
HETATM   41  H55 UNL     1      -8.463   0.114   1.717  1.00  0.00     0.318 HD
BRANCH  38  42
HETATM   42  N7  UNL     1      -9.126  -1.729   0.628  1.00  0.00     0.125 N 
HETATM   43  C28 UNL     1      -9.148  -3.175   0.310  1.00  0.00     0.305 C 
HETATM   44  C29 UNL     1     -10.557  -3.821   0.217  1.00  0.00     0.299 C 
HETATM   45  N8  UNL     1     -11.566  -3.140   1.024  1.00  0.00     0.086 N 
HETATM   46  C30 UNL     1     -11.638  -1.716   0.665  1.00  0.00     0.299 C 
HETATM   47  H56 UNL     1     -12.478  -3.575   0.911  1.00  0.00     0.315 HD
HETATM   48  C31 UNL     1     -10.343  -1.104   0.070  1.00  0.00     0.305 C 
ENDBRANCH  38  42
ENDBRANCH  31  35
ENDBRANCH   3  28
TORSDOF 6
