REMARK  18 active torsions:
REMARK  status: ('A' for Active; 'I' for Inactive)
REMARK    1  A    between atoms: C2_2  and  C3_3 
REMARK    2  A    between atoms: C2_2  and  N1_65 
REMARK    3  A    between atoms: C9_9  and  C10_10 
REMARK       I    between atoms: C9_9  and  N1_65 
REMARK    4  A    between atoms: C15_15  and  C16_16 
REMARK       I    between atoms: C15_15  and  N2_66 
REMARK    5  A    between atoms: C16_16  and  C17_17 
REMARK    6  A    between atoms: C16_16  and  N3_67 
REMARK    7  A    between atoms: C21_21  and  C22_22 
REMARK       I    between atoms: C21_21  and  N3_67 
REMARK    8  A    between atoms: C22_22  and  N4_68 
REMARK    9  A    between atoms: C26_26  and  N5_69 
REMARK   10  A    between atoms: C29_29  and  C30_30 
REMARK       I    between atoms: C29_29  and  N5_69 
REMARK       I    between atoms: C38_38  and  N6_70 
REMARK       I    between atoms: C38_38  and  N7_71 
REMARK   11  A    between atoms: C39_39  and  N7_71 
REMARK   12  A    between atoms: C41_41  and  C53_53 
REMARK   13  A    between atoms: C43_43  and  C44_44 
REMARK       I    between atoms: C43_43  and  N8_72 
REMARK   14  A    between atoms: C44_44  and  C45_45 
REMARK   15  A    between atoms: C44_44  and  N9_73 
REMARK   16  A    between atoms: C49_49  and  C50_50 
REMARK       I    between atoms: C49_49  and  N9_73 
REMARK   17  A    between atoms: C50_50  and  N10_74 
REMARK       I    between atoms: C53_53  and  N11_75 
REMARK   18  A    between atoms: C54_54  and  N11_75 
ROOT
HETATM    1  C30 UNL     1      -0.633  -3.436   1.007  1.00  0.00     0.044 A 
HETATM    2  C31 UNL     1      -0.666  -3.249  -0.398  1.00  0.00     0.008 A 
HETATM    3  C32 UNL     1       0.317  -2.958  -1.383  1.00  0.00     0.032 C 
HETATM    4  C33 UNL     1      -0.307  -2.935  -2.603  1.00  0.00     0.103 C 
HETATM    5  C34 UNL     1      -1.884  -3.429  -1.078  1.00  0.00     0.054 A 
HETATM    6  C35 UNL     1      -3.028  -3.889  -0.392  1.00  0.00     0.031 A 
HETATM    7  C36 UNL     1      -2.959  -4.107   0.987  1.00  0.00     0.003 A 
HETATM    8  C37 UNL     1      -1.781  -3.875   1.682  1.00  0.00     0.018 A 
HETATM    9  C38 UNL     1      -2.593  -3.038  -3.504  1.00  0.00     0.327 C 
HETATM   10  N6  UNL     1      -1.671  -3.125  -2.432  1.00  0.00    -0.274 N 
HETATM   11  N7  UNL     1      -3.890  -2.790  -3.110  1.00  0.00    -0.336 N 
HETATM   12  O5  UNL     1      -2.193  -3.105  -4.659  1.00  0.00    -0.246 OA
HETATM   13  H77 UNL     1      -3.999  -2.323  -2.207  1.00  0.00     0.164 HD
ENDROOT
BRANCH   1  14
HETATM   14  C29 UNL     1       0.600  -3.211   1.802  1.00  0.00     0.257 C 
HETATM   15  N5  UNL     1       1.283  -2.051   1.486  1.00  0.00    -0.323 N 
HETATM   16  H76 UNL     1       0.854  -1.447   0.796  1.00  0.00     0.169 HD
HETATM   17  O4  UNL     1       0.877  -4.017   2.681  1.00  0.00    -0.267 OA
BRANCH  15  18
HETATM   18  C26 UNL     1       2.494  -1.588   2.041  1.00  0.00     0.035 A 
HETATM   19  C25 UNL     1       2.981  -0.360   1.574  1.00  0.00     0.039 A 
HETATM   20  C13 UNL     1       4.192   0.168   2.049  1.00  0.00    -0.032 A 
HETATM   21  C12 UNL     1       4.918  -0.541   3.033  1.00  0.00    -0.048 A 
HETATM   22  C14 UNL     1       4.688   1.506   1.517  1.00  0.00     0.166 C 
HETATM   23  C11 UNL     1       6.245  -0.029   3.567  1.00  0.00     0.074 C 
HETATM   24  C28 UNL     1       4.427  -1.766   3.496  1.00  0.00     0.010 A 
HETATM   25  C10 UNL     1       6.533   1.388   3.075  1.00  0.00     0.184 C 
HETATM   26  N2  UNL     1       6.138   1.584   1.666  1.00  0.00    -0.332 N 
HETATM   27  C15 UNL     1       6.845   1.156   0.536  1.00  0.00     0.244 C 
HETATM   28  O2  UNL     1       6.385   1.386  -0.590  1.00  0.00    -0.271 OA
HETATM   29  C27 UNL     1       3.225  -2.284   3.003  1.00  0.00     0.030 A 
BRANCH  25  30
HETATM   30  C9  UNL     1       7.887   1.980   3.492  1.00  0.00     0.241 C 
HETATM   31  N1  UNL     1       8.182   3.167   2.852  1.00  0.00    -0.351 N 
HETATM   32  H73 UNL     1       7.470   3.563   2.244  1.00  0.00     0.163 HD
HETATM   33  O1  UNL     1       8.566   1.526   4.407  1.00  0.00    -0.271 OA
BRANCH  31  34
HETATM   34  C2  UNL     1       9.260   4.039   3.291  1.00  0.00     0.116 C 
HETATM   35  C1  UNL     1       8.847   4.844   4.525  1.00  0.00     0.037 C 
BRANCH  34  36
HETATM   36  C3  UNL     1       9.711   4.954   2.173  1.00  0.00     0.003 A 
HETATM   37  C4  UNL     1      11.070   5.038   1.832  1.00  0.00     0.012 A 
HETATM   38  C5  UNL     1      11.496   5.884   0.804  1.00  0.00     0.001 A 
HETATM   39  C6  UNL     1      10.572   6.659   0.105  1.00  0.00     0.003 A 
HETATM   40  C7  UNL     1       9.221   6.591   0.434  1.00  0.00     0.043 A 
HETATM   41  C8  UNL     1       8.803   5.747   1.459  1.00  0.00     0.124 A 
HETATM   42  F1  UNL     1       7.495   5.689   1.750  1.00  0.00    -0.205 F 
ENDBRANCH  34  36
ENDBRANCH  31  34
ENDBRANCH  25  30
BRANCH  27  43
HETATM   43  C16 UNL     1       8.084   0.231   0.685  1.00  0.00     0.184 C 
BRANCH  43  44
HETATM   44  C17 UNL     1       9.278   0.564  -0.274  1.00  0.00    -0.022 C 
HETATM   45  C18 UNL     1       9.736   2.016  -0.051  1.00  0.00     0.017 C 
HETATM   46  C19 UNL     1       8.952   0.378  -1.769  1.00  0.00     0.017 C 
HETATM   47  C20 UNL     1      10.480  -0.350   0.058  1.00  0.00     0.017 C 
ENDBRANCH  43  44
BRANCH  43  48
HETATM   48  N3  UNL     1       7.523  -1.097   0.427  1.00  0.00    -0.345 N 
HETATM   49  C21 UNL     1       7.861  -2.246   1.102  1.00  0.00     0.251 C 
HETATM   50  O3  UNL     1       8.685  -2.275   2.010  1.00  0.00    -0.271 OA
HETATM   51  H74 UNL     1       6.915  -1.226  -0.381  1.00  0.00     0.163 HD
BRANCH  49  52
HETATM   52  C22 UNL     1       7.027  -3.470   0.658  1.00  0.00     0.307 C 
HETATM   53  C23 UNL     1       7.597  -4.779   1.196  1.00  0.00     0.053 C 
BRANCH  52  54
HETATM   54  N4  UNL     1       6.802  -3.456  -0.813  1.00  0.00     0.092 N 
HETATM   55  C24 UNL     1       7.997  -3.776  -1.587  1.00  0.00     0.307 C 
HETATM   56  H75 UNL     1       6.086  -4.152  -1.028  1.00  0.00     0.316 HD
ENDBRANCH  52  54
ENDBRANCH  49  52
ENDBRANCH  43  48
ENDBRANCH  27  43
ENDBRANCH  15  18
ENDBRANCH   1  14
BRANCH  11  57
HETATM   57  C39 UNL     1      -4.888  -2.472  -4.127  1.00  0.00     0.106 C 
HETATM   58  C40 UNL     1      -6.312  -2.540  -3.577  1.00  0.00     0.061 C 
HETATM   59  C41 UNL     1      -6.538  -1.150  -2.952  1.00  0.00     0.181 C 
HETATM   60  N8  UNL     1      -5.652  -0.256  -3.701  1.00  0.00    -0.335 N 
HETATM   61  C42 UNL     1      -4.800  -1.022  -4.608  1.00  0.00     0.152 C 
HETATM   62  C43 UNL     1      -5.777   1.103  -3.924  1.00  0.00     0.244 C 
HETATM   63  O6  UNL     1      -5.111   1.621  -4.832  1.00  0.00    -0.271 OA
BRANCH  59  64
HETATM   64  C53 UNL     1      -6.191  -1.253  -1.457  1.00  0.00     0.241 C 
HETATM   65  N11 UNL     1      -7.276  -1.364  -0.620  1.00  0.00    -0.351 N 
HETATM   66  H80 UNL     1      -8.214  -1.336  -0.996  1.00  0.00     0.163 HD
HETATM   67  O8  UNL     1      -5.030  -1.329  -1.054  1.00  0.00    -0.271 OA
BRANCH  65  68
HETATM   68  C54 UNL     1      -7.133  -1.650   0.801  1.00  0.00     0.118 C 
HETATM   69  C55 UNL     1      -6.958  -3.159   1.030  1.00  0.00     0.030 C 
HETATM   70  C56 UNL     1      -8.274  -3.901   0.814  1.00  0.00     0.007 C 
HETATM   71  C57 UNL     1      -9.330  -3.429   1.810  1.00  0.00     0.039 C 
HETATM   72  C58 UNL     1      -9.387  -1.929   1.969  1.00  0.00    -0.050 A 
HETATM   73  C59 UNL     1     -10.487  -1.363   2.632  1.00  0.00     0.007 A 
HETATM   74  C63 UNL     1      -8.333  -1.097   1.543  1.00  0.00    -0.029 A 
HETATM   75  C60 UNL     1     -10.550   0.011   2.864  1.00  0.00     0.001 A 
HETATM   76  C61 UNL     1      -9.511   0.834   2.443  1.00  0.00     0.001 A 
HETATM   77  C62 UNL     1      -8.412   0.285   1.783  1.00  0.00     0.010 A 
ENDBRANCH  65  68
ENDBRANCH  59  64
BRANCH  62  78
HETATM   78  C44 UNL     1      -6.592   2.047  -2.978  1.00  0.00     0.184 C 
BRANCH  78  79
HETATM   79  C45 UNL     1      -5.680   2.826  -1.956  1.00  0.00    -0.022 C 
HETATM   80  C46 UNL     1      -6.513   3.897  -1.211  1.00  0.00     0.017 C 
HETATM   81  C47 UNL     1      -5.040   1.900  -0.914  1.00  0.00     0.017 C 
HETATM   82  C48 UNL     1      -4.546   3.581  -2.687  1.00  0.00     0.017 C 
ENDBRANCH  78  79
BRANCH  78  83
HETATM   83  N9  UNL     1      -7.764   1.451  -2.335  1.00  0.00    -0.345 N 
HETATM   84  C49 UNL     1      -8.949   1.320  -3.049  1.00  0.00     0.251 C 
HETATM   85  O7  UNL     1      -9.004   1.343  -4.273  1.00  0.00    -0.271 OA
HETATM   86  H78 UNL     1      -7.946   1.665  -1.357  1.00  0.00     0.163 HD
BRANCH  84  87
HETATM   87  C50 UNL     1     -10.162   1.038  -2.134  1.00  0.00     0.307 C 
HETATM   88  C51 UNL     1     -11.488   1.178  -2.873  1.00  0.00     0.053 C 
BRANCH  87  89
HETATM   89  N10 UNL     1     -10.052   1.841  -0.891  1.00  0.00     0.092 N 
HETATM   90  C52 UNL     1     -10.368   3.255  -1.076  1.00  0.00     0.307 C 
HETATM   91  H79 UNL     1     -10.700   1.455  -0.200  1.00  0.00     0.316 HD
ENDBRANCH  87  89
ENDBRANCH  84  87
ENDBRANCH  78  83
ENDBRANCH  62  78
ENDBRANCH  11  57
TORSDOF 18
