REMARK  0 active torsions:
REMARK  status: ('A' for Active; 'I' for Inactive)
REMARK       I    between atoms: C2_2  and  C3_3 
REMARK       I    between atoms: C3_3  and  C5_5 
REMARK       I    between atoms: C5_5  and  C62_62 
REMARK       I    between atoms: C5_5  and  N1_78 
REMARK       I    between atoms: C6_6  and  C7_7 
REMARK       I    between atoms: C6_6  and  N1_78 
REMARK       I    between atoms: C7_7  and  C8_8 
REMARK       I    between atoms: C7_7  and  N3_80 
REMARK       I    between atoms: C8_8  and  C9_9 
REMARK       I    between atoms: C17_17  and  C18_18 
REMARK       I    between atoms: C17_17  and  N3_80 
REMARK       I    between atoms: C18_18  and  C59_59 
REMARK       I    between atoms: C18_18  and  N4_81 
REMARK       I    between atoms: C19_19  and  C20_20 
REMARK       I    between atoms: C19_19  and  N4_81 
REMARK       I    between atoms: C20_20  and  C21_21 
REMARK       I    between atoms: C20_20  and  N6_83 
REMARK       I    between atoms: C21_21  and  C22_22 
REMARK       I    between atoms: C30_30  and  C31_31 
REMARK       I    between atoms: C30_30  and  N6_83 
REMARK       I    between atoms: C31_31  and  C32_32 
REMARK       I    between atoms: C31_31  and  N8_85 
REMARK       I    between atoms: C32_32  and  C33_33 
REMARK       I    between atoms: C41_41  and  C42_42 
REMARK       I    between atoms: C41_41  and  N8_85 
REMARK       I    between atoms: C42_42  and  C43_43 
REMARK       I    between atoms: C42_42  and  N12_90 
REMARK       I    between atoms: C43_43  and  C44_44 
REMARK       I    between atoms: C44_44  and  C45_45 
REMARK       I    between atoms: C45_45  and  N9_86 
REMARK       I    between atoms: C46_46  and  N9_86 
REMARK       I    between atoms: C46_46  and  N10_87 
REMARK       I    between atoms: C46_46  and  N11_89 
REMARK       I    between atoms: C47_47  and  C48_48 
REMARK       I    between atoms: C47_47  and  N12_90 
REMARK       I    between atoms: C48_48  and  C49_49 
REMARK       I    between atoms: C48_48  and  N14_92 
REMARK       I    between atoms: C49_49  and  C50_50 
REMARK       I    between atoms: C50_50  and  C51_51 
REMARK       I    between atoms: C51_51  and  C52_52 
REMARK       I    between atoms: C52_52  and  N13_91 
REMARK       I    between atoms: C53_53  and  C54_54 
REMARK       I    between atoms: C53_53  and  N14_92 
REMARK       I    between atoms: C54_54  and  C55_55 
REMARK       I    between atoms: C54_54  and  N15_93 
REMARK       I    between atoms: C55_55  and  C56_56 
REMARK       I    between atoms: C56_56  and  C57_57 
REMARK       I    between atoms: C57_57  and  C58_58 
REMARK       I    between atoms: C58_58  and  N16_94 
REMARK       I    between atoms: C62_62  and  N17_95 
REMARK       I    between atoms: C63_63  and  C64_64 
REMARK       I    between atoms: C63_63  and  C68_68 
REMARK       I    between atoms: C63_63  and  N17_95 
REMARK       I    between atoms: C64_64  and  C65_65 
REMARK       I    between atoms: C65_65  and  C66_66 
REMARK       I    between atoms: C66_66  and  N18_96 
REMARK       I    between atoms: C67_67  and  N18_96 
REMARK       I    between atoms: C67_67  and  N20_99 
REMARK       I    between atoms: C68_68  and  N21_100 
REMARK       I    between atoms: C69_69  and  C70_70 
REMARK       I    between atoms: C69_69  and  C77_77 
REMARK       I    between atoms: C69_69  and  N21_100 
REMARK       I    between atoms: C70_70  and  C71_71 
REMARK       I    between atoms: C74_74  and  O10_110 
REMARK       I    between atoms: C77_77  and  O12_112 
ROOT
HETATM    1  C1  UNL     1      -5.994  -1.971   6.297  1.00  0.00     0.005 C 
HETATM    2  C2  UNL     1      -5.824  -3.467   6.062  1.00  0.00     0.002 C 
HETATM    3  C3  UNL     1      -6.686  -4.013   4.900  1.00  0.00     0.013 C 
HETATM    4  C4  UNL     1      -7.057  -5.473   5.214  1.00  0.00     0.012 C 
HETATM    5  C5  UNL     1      -5.978  -3.952   3.524  1.00  0.00     0.180 C 
HETATM    6  C6  UNL     1      -4.119  -2.324   3.181  1.00  0.00     0.241 C 
HETATM    7  C7  UNL     1      -3.784  -0.890   2.736  1.00  0.00     0.181 C 
HETATM    8  C8  UNL     1      -3.940  -0.751   1.203  1.00  0.00     0.075 C 
HETATM    9  C9  UNL     1      -2.654  -0.747   0.426  1.00  0.00    -0.028 A 
HETATM   10  C10 UNL     1      -2.087   0.369  -0.161  1.00  0.00     0.096 A 
HETATM   11  C11 UNL     1      -0.664  -1.330  -0.519  1.00  0.00     0.042 A 
HETATM   12  C12 UNL     1       0.427  -2.117  -0.902  1.00  0.00     0.030 A 
HETATM   13  C13 UNL     1       0.395  -3.475  -0.578  1.00  0.00     0.002 A 
HETATM   14  C14 UNL     1      -0.691  -4.021   0.100  1.00  0.00     0.001 A 
HETATM   15  C15 UNL     1      -1.774  -3.218   0.478  1.00  0.00     0.014 A 
HETATM   16  C16 UNL     1      -1.766  -1.842   0.169  1.00  0.00    -0.002 A 
HETATM   17  C17 UNL     1      -2.025   0.755   3.266  1.00  0.00     0.241 C 
HETATM   18  C18 UNL     1      -0.512   0.928   3.522  1.00  0.00     0.180 C 
HETATM   19  C19 UNL     1       0.778   2.155   1.793  1.00  0.00     0.241 C 
HETATM   20  C20 UNL     1       0.867   3.486   1.002  1.00  0.00     0.181 C 
HETATM   21  C21 UNL     1      -0.477   3.943   0.397  1.00  0.00     0.075 C 
HETATM   22  C22 UNL     1      -0.700   5.420   0.561  1.00  0.00    -0.028 A 
HETATM   23  C23 UNL     1      -1.545   6.020   1.474  1.00  0.00     0.096 A 
HETATM   24  C24 UNL     1      -0.579   7.681   0.299  1.00  0.00     0.042 A 
HETATM   25  C25 UNL     1      -0.181   8.924  -0.207  1.00  0.00     0.030 A 
HETATM   26  C26 UNL     1       0.752   8.933  -1.249  1.00  0.00     0.002 A 
HETATM   27  C27 UNL     1       1.260   7.744  -1.765  1.00  0.00     0.001 A 
HETATM   28  C28 UNL     1       0.845   6.510  -1.251  1.00  0.00     0.014 A 
HETATM   29  C29 UNL     1      -0.087   6.472  -0.194  1.00  0.00    -0.002 A 
HETATM   30  C30 UNL     1       1.916   2.633  -1.099  1.00  0.00     0.241 C 
HETATM   31  C31 UNL     1       3.295   2.441  -1.761  1.00  0.00     0.181 C 
HETATM   32  C32 UNL     1       3.161   2.253  -3.275  1.00  0.00     0.075 C 
HETATM   33  C33 UNL     1       2.760   3.514  -3.977  1.00  0.00    -0.028 A 
HETATM   34  C34 UNL     1       1.496   3.824  -4.436  1.00  0.00     0.096 A 
HETATM   35  C35 UNL     1       2.806   5.587  -4.920  1.00  0.00     0.042 A 
HETATM   36  C36 UNL     1       3.307   6.819  -5.358  1.00  0.00     0.030 A 
HETATM   37  C37 UNL     1       4.660   7.086  -5.129  1.00  0.00     0.002 A 
HETATM   38  C38 UNL     1       5.476   6.157  -4.488  1.00  0.00     0.001 A 
HETATM   39  C39 UNL     1       4.960   4.929  -4.060  1.00  0.00     0.014 A 
HETATM   40  C40 UNL     1       3.599   4.634  -4.281  1.00  0.00    -0.002 A 
HETATM   41  C41 UNL     1       4.413   1.326   0.139  1.00  0.00     0.241 C 
HETATM   42  C42 UNL     1       4.716  -0.057   0.764  1.00  0.00     0.176 C 
HETATM   43  C43 UNL     1       5.249   0.033   2.200  1.00  0.00     0.036 C 
HETATM   44  C44 UNL     1       6.671   0.591   2.335  1.00  0.00     0.022 C 
HETATM   45  C45 UNL     1       7.067   0.727   3.806  1.00  0.00     0.122 C 
HETATM   46  C46 UNL     1       8.970   1.511   5.110  1.00  0.00     0.143 C 
HETATM   47  C47 UNL     1       5.165  -1.510  -1.204  1.00  0.00     0.241 C 
HETATM   48  C48 UNL     1       6.276  -2.035  -2.130  1.00  0.00     0.176 C 
HETATM   49  C49 UNL     1       7.175  -3.050  -1.404  1.00  0.00     0.035 C 
HETATM   50  C50 UNL     1       6.416  -4.330  -1.034  1.00  0.00     0.004 C 
HETATM   51  C51 UNL     1       7.307  -5.395  -0.386  1.00  0.00     0.030 C 
HETATM   52  C52 UNL     1       7.787  -5.005   1.012  1.00  0.00     0.267 C 
HETATM   53  C53 UNL     1       7.871  -0.919  -3.664  1.00  0.00     0.251 C 
HETATM   54  C54 UNL     1       8.347   0.472  -4.130  1.00  0.00     0.308 C 
HETATM   55  C55 UNL     1       9.464   1.009  -3.225  1.00  0.00     0.045 C 
HETATM   56  C56 UNL     1      10.736   0.150  -3.196  1.00  0.00     0.004 C 
HETATM   57  C57 UNL     1      11.402  -0.108  -4.552  1.00  0.00     0.030 C 
HETATM   58  C58 UNL     1      11.831   1.173  -5.268  1.00  0.00     0.267 C 
HETATM   59  C59 UNL     1      -0.134   0.973   5.016  1.00  0.00     0.009 C 
HETATM   60  C60 UNL     1      -0.902   2.037   5.807  1.00  0.00     0.012 C 
HETATM   61  C61 UNL     1      -0.292  -0.392   5.689  1.00  0.00     0.012 C 
HETATM   62  C62 UNL     1      -6.936  -4.236   2.347  1.00  0.00     0.241 C 
HETATM   63  C63 UNL     1      -6.982  -4.183  -0.149  1.00  0.00     0.176 C 
HETATM   64  C64 UNL     1      -8.066  -5.239  -0.407  1.00  0.00     0.036 C 
HETATM   65  C65 UNL     1      -8.819  -5.094  -1.736  1.00  0.00     0.022 C 
HETATM   66  C66 UNL     1      -7.915  -5.054  -2.969  1.00  0.00     0.122 C 
HETATM   67  C67 UNL     1      -9.458  -4.224  -4.690  1.00  0.00     0.143 C 
HETATM   68  C68 UNL     1      -7.432  -2.710  -0.263  1.00  0.00     0.241 C 
HETATM   69  C69 UNL     1      -9.119  -1.033   0.439  1.00  0.00     0.186 C 
HETATM   70  C70 UNL     1     -10.657  -1.081   0.423  1.00  0.00     0.074 C 
HETATM   71  C71 UNL     1     -11.266   0.015  -0.421  1.00  0.00    -0.056 A 
HETATM   72  C72 UNL     1     -11.808   1.162   0.173  1.00  0.00     0.010 A 
HETATM   73  C73 UNL     1     -12.355   2.173  -0.619  1.00  0.00     0.037 A 
HETATM   74  C74 UNL     1     -12.357   2.042  -2.002  1.00  0.00     0.065 A 
HETATM   75  C75 UNL     1     -11.819   0.913  -2.611  1.00  0.00     0.037 A 
HETATM   76  C76 UNL     1     -11.274  -0.100  -1.820  1.00  0.00     0.010 A 
HETATM   77  C77 UNL     1      -8.635  -0.233   1.657  1.00  0.00     0.163 C 
HETATM   78  N1  UNL     1      -5.463  -2.619   3.202  1.00  0.00    -0.346 N 
HETATM   79  N2  UNL     1      -0.884   0.015  -0.705  1.00  0.00    -0.365 N 
HETATM   80  N3  UNL     1      -2.462  -0.547   3.248  1.00  0.00    -0.346 N 
HETATM   81  N4  UNL     1      -0.122   2.163   2.839  1.00  0.00    -0.346 N 
HETATM   82  N5  UNL     1      -1.465   7.377   1.305  1.00  0.00    -0.365 N 
HETATM   83  N6  UNL     1       1.972   3.415   0.043  1.00  0.00    -0.346 N 
HETATM   84  N7  UNL     1       1.534   5.070  -4.999  1.00  0.00    -0.365 N 
HETATM   85  N8  UNL     1       3.870   1.250  -1.134  1.00  0.00    -0.346 N 
HETATM   86  N9  UNL     1       8.429   1.235   3.901  1.00  0.00    -0.367 N 
HETATM   87  N10 UNL     1       8.344   1.474   6.226  1.00  0.00    -0.376 N 
ATOM     88  H10 UNL     1       7.356   1.247   6.336  1.00  0.00     0.158 HD
HETATM   89  N11 UNL     1      10.271   1.845   4.997  1.00  0.00    -0.274 NA
HETATM   90  N12 UNL     1       5.626  -0.795  -0.115  1.00  0.00    -0.346 N 
HETATM   91  N13 UNL     1       8.574  -6.085   1.596  1.00  0.00     0.078 N 
HETATM   92  N14 UNL     1       7.025  -0.858  -2.573  1.00  0.00    -0.346 N 
HETATM   93  N15 UNL     1       7.190   1.407  -4.073  1.00  0.00     0.092 N 
HETATM   94  N16 UNL     1      12.527   0.867  -6.513  1.00  0.00     0.078 N 
HETATM   95  N17 UNL     1      -6.284  -4.337   1.129  1.00  0.00    -0.346 N 
HETATM   96  N18 UNL     1      -8.694  -5.223  -4.188  1.00  0.00    -0.367 N 
HETATM   97  N19 UNL     1      -9.714  -3.112  -4.110  1.00  0.00    -0.376 N 
ATOM     98  H19 UNL     1      -9.394  -2.846  -3.179  1.00  0.00     0.158 HD
HETATM   99  N20 UNL     1      -9.942  -4.552  -5.905  1.00  0.00    -0.274 NA
HETATM  100  N21 UNL     1      -8.591  -2.399   0.406  1.00  0.00    -0.345 N 
HETATM  101  O1  UNL     1      -3.259  -3.153   3.473  1.00  0.00    -0.271 OA
HETATM  102  O2  UNL     1      -2.781   1.715   3.113  1.00  0.00    -0.271 OA
HETATM  103  O3  UNL     1       1.505   1.188   1.562  1.00  0.00    -0.271 OA
HETATM  104  O4  UNL     1       0.906   2.038  -1.470  1.00  0.00    -0.271 OA
HETATM  105  O5  UNL     1       4.579   2.399   0.715  1.00  0.00    -0.271 OA
HETATM  106  O6  UNL     1       3.971  -1.686  -1.431  1.00  0.00    -0.271 OA
HETATM  107  O7  UNL     1       8.234  -1.960  -4.198  1.00  0.00    -0.271 OA
HETATM  108  O8  UNL     1      -8.160  -4.242   2.453  1.00  0.00    -0.271 OA
HETATM  109  O9  UNL     1      -6.736  -1.865  -0.821  1.00  0.00    -0.271 OA
HETATM  110  O10 UNL     1     -12.897   3.056  -2.737  1.00  0.00    -0.361 OA
HETATM  111  O11 UNL     1      -9.035   0.870   2.001  1.00  0.00    -0.648 OA
HETATM  112  O12 UNL     1      -7.666  -0.814   2.406  1.00  0.00    -0.775 OA
HETATM  113  H82 UNL     1      -6.141  -1.929   2.877  1.00  0.00     0.163 HD
HETATM  114  H83 UNL     1      -0.232   0.655  -1.153  1.00  0.00     0.165 HD
HETATM  115  H84 UNL     1      -1.767  -1.285   3.164  1.00  0.00     0.163 HD
HETATM  116  H85 UNL     1      -0.801   2.915   2.896  1.00  0.00     0.163 HD
HETATM  117  H86 UNL     1      -1.983   8.062   1.838  1.00  0.00     0.165 HD
HETATM  118  H87 UNL     1       2.902   3.467   0.463  1.00  0.00     0.163 HD
HETATM  119  H88 UNL     1       0.742   5.551  -5.404  1.00  0.00     0.165 HD
HETATM  120  H89 UNL     1       3.422   0.358  -1.351  1.00  0.00     0.163 HD
HETATM  121  H90 UNL     1       9.080   0.746   3.300  1.00  0.00     0.162 HD
HETATM  122  H91 UNL     1       8.980   1.705   6.989  1.00  0.00     0.158 HD
HETATM  123  H92 UNL     1      10.447   2.403   4.168  1.00  0.00     0.127 HD
HETATM  124  H93 UNL     1      10.655   2.300   5.815  1.00  0.00     0.127 HD
HETATM  125  H94 UNL     1       6.574  -0.445  -0.200  1.00  0.00     0.163 HD
HETATM  126  H95 UNL     1       8.004  -6.928   1.663  1.00  0.00     0.312 HD
HETATM  127  H96 UNL     1       8.831  -5.840   2.552  1.00  0.00     0.312 HD
HETATM  128  H97 UNL     1       6.565   0.053  -2.523  1.00  0.00     0.163 HD
HETATM  129  H98 UNL     1       6.516   1.114  -4.786  1.00  0.00     0.313 HD
HETATM  130  H99 UNL     1       7.508   2.327  -4.385  1.00  0.00     0.313 HD
HETATM  131  HA0 UNL     1      11.934   0.284  -7.104  1.00  0.00     0.312 HD
HETATM  132  HA1 UNL     1      13.353   0.303  -6.313  1.00  0.00     0.312 HD
HETATM  133  HA2 UNL     1      -5.311  -4.048   1.131  1.00  0.00     0.163 HD
HETATM  134  HA3 UNL     1      -8.163  -5.686  -4.916  1.00  0.00     0.162 HD
HETATM  135  HA4 UNL     1     -10.287  -2.533  -4.723  1.00  0.00     0.158 HD
HETATM  136  HA5 UNL     1     -10.188  -5.534  -5.967  1.00  0.00     0.127 HD
HETATM  137  HA6 UNL     1     -10.709  -3.974  -6.222  1.00  0.00     0.127 HD
HETATM  138  HA7 UNL     1      -8.859  -3.032   1.162  1.00  0.00     0.163 HD
HETATM  139  HA8 UNL     1     -12.789   2.842  -3.678  1.00  0.00     0.217 HD
HETATM  140  HA9 UNL     1      -7.556  -0.124   3.100  1.00  0.00     0.167 HD
ENDROOT
TORSDOF 51
