REMARK  0 active torsions:
REMARK  status: ('A' for Active; 'I' for Inactive)
REMARK       I    between atoms: C3_3  and  C4_4 
REMARK       I    between atoms: C3_3  and  N1_70 
REMARK       I    between atoms: C4_4  and  C5_5 
REMARK       I    between atoms: C5_5  and  N2_71 
REMARK       I    between atoms: C6_6  and  C7_7 
REMARK       I    between atoms: C6_6  and  N2_71 
REMARK       I    between atoms: C9_9  and  N3_72 
REMARK       I    between atoms: C10_10  and  C11_11 
REMARK       I    between atoms: C10_10  and  N3_72 
REMARK       I    between atoms: C13_13  and  N4_73 
REMARK       I    between atoms: C14_14  and  C15_15 
REMARK       I    between atoms: C14_14  and  N4_73 
REMARK       I    between atoms: C17_17  and  N5_74 
REMARK       I    between atoms: C18_18  and  C19_19 
REMARK       I    between atoms: C18_18  and  N5_74 
REMARK       I    between atoms: C20_20  and  N7_77 
REMARK       I    between atoms: C21_21  and  C22_22 
REMARK       I    between atoms: C21_21  and  N7_77 
REMARK       I    between atoms: C22_22  and  C23_23 
REMARK       I    between atoms: C23_23  and  C24_24 
REMARK       I    between atoms: C24_24  and  N8_78 
REMARK       I    between atoms: C25_25  and  C26_26 
REMARK       I    between atoms: C25_25  and  N8_78 
REMARK       I    between atoms: C28_28  and  N9_79 
REMARK       I    between atoms: C29_29  and  C30_30 
REMARK       I    between atoms: C29_29  and  N9_79 
REMARK       I    between atoms: C32_32  and  N10_80 
REMARK       I    between atoms: C33_33  and  C34_34 
REMARK       I    between atoms: C33_33  and  N10_80 
REMARK       I    between atoms: C36_36  and  N11_81 
REMARK       I    between atoms: C37_37  and  C38_38 
REMARK       I    between atoms: C37_37  and  N11_81 
REMARK       I    between atoms: C39_39  and  N13_84 
REMARK       I    between atoms: C40_40  and  C41_41 
REMARK       I    between atoms: C40_40  and  N13_84 
REMARK       I    between atoms: C41_41  and  C42_42 
REMARK       I    between atoms: C42_42  and  N14_85 
REMARK       I    between atoms: C43_43  and  C44_44 
REMARK       I    between atoms: C43_43  and  N14_85 
REMARK       I    between atoms: C44_44  and  C45_45 
REMARK       I    between atoms: C45_45  and  N15_86 
REMARK       I    between atoms: C46_46  and  C47_47 
REMARK       I    between atoms: C46_46  and  N15_86 
REMARK       I    between atoms: C47_47  and  C48_48 
REMARK       I    between atoms: C48_48  and  C49_49 
REMARK       I    between atoms: C49_49  and  C50_50 
REMARK       I    between atoms: C50_50  and  C51_51 
REMARK       I    between atoms: C51_51  and  C52_52 
REMARK       I    between atoms: C52_52  and  C53_53 
REMARK       I    between atoms: C53_53  and  N16_87 
REMARK       I    between atoms: N16_87  and  O14_109 
ROOT
HETATM    1  C1  UNL     1      16.974  10.440   2.098  1.00  0.00     0.309 C 
HETATM    2  C2  UNL     1      18.430   8.823   1.102  1.00  0.00     0.309 C 
HETATM    3  C3  UNL     1      16.148   8.210   1.554  1.00  0.00     0.273 C 
HETATM    4  C4  UNL     1      14.666   8.562   1.360  1.00  0.00     0.050 C 
HETATM    5  C5  UNL     1      13.741   7.387   1.676  1.00  0.00     0.125 C 
HETATM    6  C6  UNL     1      14.511   5.160   0.911  1.00  0.00     0.268 C 
HETATM    7  C7  UNL     1      14.477   4.231  -0.199  1.00  0.00     0.104 A 
HETATM    8  C8  UNL     1      14.301   2.856  -0.115  1.00  0.00     0.066 A 
HETATM    9  C9  UNL     1      14.309   2.316  -1.424  1.00  0.00     0.053 A 
HETATM   10  C10 UNL     1      14.164   0.419  -2.993  1.00  0.00     0.273 C 
HETATM   11  C11 UNL     1      13.919  -1.023  -3.005  1.00  0.00     0.105 A 
HETATM   12  C12 UNL     1      13.361  -1.847  -2.031  1.00  0.00     0.066 A 
HETATM   13  C13 UNL     1      13.327  -3.179  -2.516  1.00  0.00     0.053 A 
HETATM   14  C14 UNL     1      12.826  -5.579  -2.252  1.00  0.00     0.273 C 
HETATM   15  C15 UNL     1      12.209  -6.510  -1.306  1.00  0.00     0.105 A 
HETATM   16  C16 UNL     1      11.372  -6.263  -0.220  1.00  0.00     0.066 A 
HETATM   17  C17 UNL     1      11.030  -7.497   0.387  1.00  0.00     0.053 A 
HETATM   18  C18 UNL     1       9.858  -8.822   2.108  1.00  0.00     0.290 C 
HETATM   19  C19 UNL     1       8.973  -8.582   3.244  1.00  0.00     0.178 A 
HETATM   20  C20 UNL     1       7.773  -7.553   4.697  1.00  0.00     0.125 A 
HETATM   21  C21 UNL     1       6.355  -6.485   6.376  1.00  0.00     0.223 C 
HETATM   22  C22 UNL     1       5.878  -5.091   6.740  1.00  0.00     0.105 C 
HETATM   23  C23 UNL     1       4.642  -5.071   7.637  1.00  0.00     0.029 C 
HETATM   24  C24 UNL     1       3.432  -5.842   7.099  1.00  0.00     0.123 C 
HETATM   25  C25 UNL     1       2.789  -4.487   5.132  1.00  0.00     0.268 C 
HETATM   26  C26 UNL     1       2.414  -4.561   3.734  1.00  0.00     0.104 A 
HETATM   27  C27 UNL     1       1.398  -3.834   3.124  1.00  0.00     0.066 A 
HETATM   28  C28 UNL     1       1.327  -4.201   1.759  1.00  0.00     0.053 A 
HETATM   29  C29 UNL     1       0.333  -4.024  -0.491  1.00  0.00     0.273 C 
HETATM   30  C30 UNL     1      -0.743  -3.341  -1.209  1.00  0.00     0.105 A 
HETATM   31  C31 UNL     1      -1.781  -2.546  -0.727  1.00  0.00     0.066 A 
HETATM   32  C32 UNL     1      -2.573  -2.109  -1.813  1.00  0.00     0.053 A 
HETATM   33  C33 UNL     1      -4.305  -0.740  -0.731  1.00  0.00     0.273 C 
HETATM   34  C34 UNL     1      -5.483   0.071  -1.039  1.00  0.00     0.105 A 
HETATM   35  C35 UNL     1      -6.020   0.444  -2.269  1.00  0.00     0.066 A 
HETATM   36  C36 UNL     1      -7.170   1.236  -2.050  1.00  0.00     0.053 A 
HETATM   37  C37 UNL     1      -7.941   1.759  -4.325  1.00  0.00     0.290 C 
HETATM   38  C38 UNL     1      -9.018   2.504  -4.962  1.00  0.00     0.178 A 
HETATM   39  C39 UNL     1     -10.776   3.719  -5.178  1.00  0.00     0.125 A 
HETATM   40  C40 UNL     1     -12.279   4.744  -3.559  1.00  0.00     0.224 C 
HETATM   41  C41 UNL     1     -13.528   5.609  -3.545  1.00  0.00     0.123 C 
HETATM   42  C42 UNL     1     -14.002   5.919  -2.129  1.00  0.00     0.132 C 
HETATM   43  C43 UNL     1     -15.709   4.189  -1.658  1.00  0.00     0.219 C 
HETATM   44  C44 UNL     1     -15.941   2.907  -0.884  1.00  0.00     0.122 C 
HETATM   45  C45 UNL     1     -17.302   2.292  -1.192  1.00  0.00     0.132 C 
HETATM   46  C46 UNL     1     -18.795   3.088   0.610  1.00  0.00     0.217 C 
HETATM   47  C47 UNL     1     -19.865   4.121   0.915  1.00  0.00     0.103 C 
HETATM   48  C48 UNL     1     -20.463   3.995   2.316  1.00  0.00     0.009 C 
HETATM   49  C49 UNL     1     -21.300   2.733   2.558  1.00  0.00     0.000 C 
HETATM   50  C50 UNL     1     -22.467   2.502   1.593  1.00  0.00     0.000 C 
HETATM   51  C51 UNL     1     -23.482   3.646   1.577  1.00  0.00     0.009 C 
HETATM   52  C52 UNL     1     -24.687   3.303   0.702  1.00  0.00     0.105 C 
HETATM   53  C53 UNL     1     -25.692   4.434   0.646  1.00  0.00     0.240 C 
HETATM   54  C54 UNL     1     -10.364   3.437  -6.458  1.00  0.00     0.140 A 
HETATM   55  C55 UNL     1      -8.447   2.114  -7.378  1.00  0.00     0.157 C 
HETATM   56  C56 UNL     1      -7.323   1.345  -0.690  1.00  0.00     0.120 A 
HETATM   57  C57 UNL     1      -6.152   0.543   1.352  1.00  0.00     0.156 C 
HETATM   58  C58 UNL     1      -2.018  -2.645  -2.948  1.00  0.00     0.120 A 
HETATM   59  C59 UNL     1      -0.084  -4.101  -3.526  1.00  0.00     0.156 C 
HETATM   60  C60 UNL     1       2.324  -5.122   1.551  1.00  0.00     0.120 A 
HETATM   61  C61 UNL     1       4.212  -6.098   2.833  1.00  0.00     0.156 C 
HETATM   62  C62 UNL     1       7.663  -8.884   5.007  1.00  0.00     0.140 A 
HETATM   63  C63 UNL     1       8.637 -10.957   4.009  1.00  0.00     0.157 C 
HETATM   64  C64 UNL     1      11.655  -8.479  -0.337  1.00  0.00     0.120 A 
HETATM   65  C65 UNL     1      13.133  -8.625  -2.332  1.00  0.00     0.156 C 
HETATM   66  C66 UNL     1      13.856  -3.148  -3.781  1.00  0.00     0.120 A 
HETATM   67  C67 UNL     1      14.793  -1.449  -5.336  1.00  0.00     0.156 C 
HETATM   68  C68 UNL     1      14.527   3.368  -2.280  1.00  0.00     0.120 A 
HETATM   69  C69 UNL     1      15.081   5.783  -2.099  1.00  0.00     0.156 C 
HETATM   70  N1  UNL     1      17.048   9.313   1.163  1.00  0.00     0.080 N 
HETATM   71  N2  UNL     1      13.832   6.336   0.685  1.00  0.00    -0.356 N 
HETATM   72  N3  UNL     1      14.131   0.980  -1.728  1.00  0.00    -0.320 N 
HETATM   73  N4  UNL     1      12.835  -4.265  -1.816  1.00  0.00    -0.320 N 
HETATM   74  N5  UNL     1      10.215  -7.638   1.490  1.00  0.00    -0.319 N 
HETATM   75  N6  UNL     1       8.575  -7.367   3.606  1.00  0.00    -0.323 N 
ATOM     76  H6  UNL     1       8.817  -6.481   3.163  1.00  0.00     0.169 HD
HETATM   77  N7  UNL     1       7.210  -6.458   5.293  1.00  0.00    -0.312 N 
HETATM   78  N8  UNL     1       3.194  -5.685   5.678  1.00  0.00    -0.356 N 
HETATM   79  N9  UNL     1       0.415  -3.698   0.851  1.00  0.00    -0.320 N 
HETATM   80  N10 UNL     1      -3.698  -1.307  -1.838  1.00  0.00    -0.320 N 
HETATM   81  N11 UNL     1      -8.029   1.827  -2.949  1.00  0.00    -0.319 N 
HETATM   82  N12 UNL     1      -9.946   3.144  -4.267  1.00  0.00    -0.323 N 
ATOM     83  H12 UNL     1     -10.023   3.195  -3.251  1.00  0.00     0.169 HD
HETATM   84  N13 UNL     1     -11.872   4.477  -4.855  1.00  0.00    -0.312 N 
HETATM   85  N14 UNL     1     -14.470   4.741  -1.423  1.00  0.00    -0.361 N 
HETATM   86  N15 UNL     1     -18.406   3.103  -0.713  1.00  0.00    -0.361 N 
HETATM   87  N16 UNL     1     -26.816   4.127  -0.088  1.00  0.00    -0.237 N 
HETATM   88  N17 UNL     1      -9.244   2.663  -6.308  1.00  0.00    -0.339 N 
HETATM   89  N18 UNL     1      -6.308   0.648  -0.085  1.00  0.00    -0.354 N 
HETATM   90  N19 UNL     1      -0.923  -3.388  -2.583  1.00  0.00    -0.354 N 
HETATM   91  N20 UNL     1       3.003  -5.306   2.730  1.00  0.00    -0.354 N 
HETATM   92  N21 UNL     1       8.433  -9.530   4.081  1.00  0.00    -0.339 N 
HETATM   93  N22 UNL     1      12.352  -7.887  -1.360  1.00  0.00    -0.354 N 
HETATM   94  N23 UNL     1      14.201  -1.853  -4.077  1.00  0.00    -0.354 N 
HETATM   95  N24 UNL     1      14.676   4.512  -1.536  1.00  0.00    -0.354 N 
HETATM   96  O1  UNL     1      15.061   4.909   1.977  1.00  0.00    -0.266 OA
HETATM   97  O2  UNL     1      14.391   1.046  -4.024  1.00  0.00    -0.266 OA
HETATM   98  O3  UNL     1      13.301  -5.962  -3.317  1.00  0.00    -0.266 OA
HETATM   99  O4  UNL     1      10.220  -9.946   1.772  1.00  0.00    -0.264 OA
HETATM  100  O5  UNL     1       6.012  -7.484   6.999  1.00  0.00    -0.273 OA
HETATM  101  O6  UNL     1       2.716  -3.456   5.791  1.00  0.00    -0.266 OA
HETATM  102  O7  UNL     1       1.091  -4.808  -1.058  1.00  0.00    -0.266 OA
HETATM  103  O8  UNL     1      -3.907  -0.897   0.421  1.00  0.00    -0.266 OA
HETATM  104  O9  UNL     1      -7.078   1.156  -4.959  1.00  0.00    -0.264 OA
HETATM  105  O10 UNL     1     -11.747   4.356  -2.524  1.00  0.00    -0.273 OA
HETATM  106  O11 UNL     1     -16.536   4.692  -2.412  1.00  0.00    -0.274 OA
HETATM  107  O12 UNL     1     -18.309   2.334   1.444  1.00  0.00    -0.274 OA
HETATM  108  O13 UNL     1     -25.548   5.527   1.188  1.00  0.00    -0.271 OA
HETATM  109  O14 UNL     1     -27.713   5.206  -0.282  1.00  0.00    -0.287 OA
HETATM  110  H77 UNL     1      13.253   6.405  -0.140  1.00  0.00     0.162 HD
HETATM  111  H78 UNL     1      14.012   0.367  -0.937  1.00  0.00     0.169 HD
HETATM  112  H79 UNL     1      12.490  -4.071  -0.890  1.00  0.00     0.169 HD
HETATM  113  H80 UNL     1       9.823  -6.799   1.905  1.00  0.00     0.169 HD
HETATM  114  H81 UNL     1       7.464  -5.578   4.868  1.00  0.00     0.170 HD
HETATM  115  H82 UNL     1       2.900  -6.517   5.183  1.00  0.00     0.162 HD
HETATM  116  H83 UNL     1      -0.230  -3.014   1.219  1.00  0.00     0.169 HD
HETATM  117  H84 UNL     1      -4.100  -1.142  -2.748  1.00  0.00     0.169 HD
HETATM  118  H85 UNL     1      -8.811   2.370  -2.587  1.00  0.00     0.169 HD
HETATM  119  H86 UNL     1     -12.408   4.845  -5.627  1.00  0.00     0.170 HD
HETATM  120  H87 UNL     1     -13.757   4.174  -0.973  1.00  0.00     0.162 HD
HETATM  121  H88 UNL     1     -18.651   3.908  -1.280  1.00  0.00     0.162 HD
HETATM  122  H89 UNL     1     -26.797   3.430  -0.825  1.00  0.00     0.197 HD
HETATM  123  H90 UNL     1     -27.295   5.924   0.246  1.00  0.00     0.244 HD
ENDROOT
TORSDOF 38
