REMARK  0 active torsions:
REMARK  status: ('A' for Active; 'I' for Inactive)
REMARK       I    between atoms: C2_2  and  C3_3 
REMARK       I    between atoms: C3_3  and  C5_5 
REMARK       I    between atoms: C5_5  and  C6_6 
REMARK       I    between atoms: C5_5  and  N3_77 
REMARK       I    between atoms: C6_6  and  C7_7 
REMARK       I    between atoms: C6_6  and  O5_61 
REMARK       I    between atoms: C7_7  and  C8_8 
REMARK       I    between atoms: C8_8  and  N1_75 
REMARK       I    between atoms: C12_12  and  C13_13 
REMARK       I    between atoms: C13_13  and  C14_14 
REMARK       I    between atoms: C13_13  and  O4_60 
REMARK       I    between atoms: C14_14  and  C16_16 
REMARK       I    between atoms: C16_16  and  N2_76 
REMARK       I    between atoms: C17_17  and  C19_19 
REMARK       I    between atoms: C17_17  and  N2_76 
REMARK       I    between atoms: C19_19  and  C20_20 
REMARK       I    between atoms: C19_19  and  O3_59 
REMARK       I    between atoms: C29_29  and  C30_30 
REMARK       I    between atoms: C29_29  and  N3_77 
REMARK       I    between atoms: C30_30  and  C31_31 
REMARK       I    between atoms: C30_30  and  N4_78 
REMARK       I    between atoms: C34_34  and  C35_35 
REMARK       I    between atoms: C34_34  and  N4_78 
REMARK       I    between atoms: C35_35  and  C36_36 
REMARK       I    between atoms: C35_35  and  N5_79 
REMARK       I    between atoms: C40_40  and  O9_65 
REMARK       I    between atoms: C40_40  and  N5_79 
REMARK       I    between atoms: C41_41  and  C42_42 
REMARK       I    between atoms: C41_41  and  O9_65 
REMARK       I    between atoms: C43_43  and  O17_74 
REMARK       I    between atoms: C45_45  and  O10_66 
REMARK       I    between atoms: C48_48  and  O10_66 
REMARK       I    between atoms: C49_49  and  O16_73 
REMARK       I    between atoms: C50_50  and  O15_72 
REMARK       I    between atoms: C51_51  and  O14_71 
REMARK       I    between atoms: C52_52  and  C53_53 
REMARK       I    between atoms: C53_53  and  N6_80 
REMARK       I    between atoms: C54_54  and  O17_74 
REMARK       I    between atoms: O13_69  and  N6_80 
ROOT
HETATM    1  C1  UNL     1       3.394  -2.518   0.691  1.00  0.00     0.005 C 
HETATM    2  C2  UNL     1       2.011  -2.340   0.082  1.00  0.00     0.002 C 
HETATM    3  C3  UNL     1       1.246  -1.080   0.535  1.00  0.00     0.006 C 
HETATM    4  C4  UNL     1       1.001  -1.140   2.054  1.00  0.00     0.012 C 
HETATM    5  C5  UNL     1       1.891   0.295   0.120  1.00  0.00     0.119 C 
HETATM    6  C6  UNL     1       2.118   0.465  -1.430  1.00  0.00     0.152 C 
HETATM    7  C7  UNL     1       3.498  -0.004  -1.933  1.00  0.00     0.137 C 
HETATM    8  C8  UNL     1       4.702   0.697  -1.308  1.00  0.00     0.222 C 
HETATM    9  C9  UNL     1       6.167  -0.548  -2.949  1.00  0.00     0.126 C 
HETATM   10  C10 UNL     1       7.676  -0.558  -3.136  1.00  0.00     0.022 C 
HETATM   11  C11 UNL     1       8.101   0.756  -2.492  1.00  0.00     0.029 C 
HETATM   12  C12 UNL     1       7.199   0.850  -1.255  1.00  0.00     0.117 C 
HETATM   13  C13 UNL     1       7.736   0.087   0.005  1.00  0.00     0.156 C 
HETATM   14  C14 UNL     1       9.092   0.595   0.570  1.00  0.00     0.105 C 
HETATM   15  C15 UNL     1       9.254   2.116   0.495  1.00  0.00     0.022 C 
HETATM   16  C16 UNL     1      10.277  -0.148  -0.040  1.00  0.00     0.224 C 
HETATM   17  C17 UNL     1      12.758  -0.442   0.037  1.00  0.00     0.113 C 
HETATM   18  C18 UNL     1      13.916   0.512   0.338  1.00  0.00     0.035 C 
HETATM   19  C19 UNL     1      12.937  -1.841   0.713  1.00  0.00     0.173 C 
HETATM   20  C20 UNL     1      14.267  -2.498   0.407  1.00  0.00    -0.028 A 
HETATM   21  C21 UNL     1      14.560  -2.970  -0.882  1.00  0.00     0.010 A 
HETATM   22  C22 UNL     1      15.797  -3.550  -1.164  1.00  0.00     0.001 A 
HETATM   23  C23 UNL     1      16.757  -3.667  -0.161  1.00  0.00     0.000 A 
HETATM   24  C24 UNL     1      16.479  -3.209   1.125  1.00  0.00     0.001 A 
HETATM   25  C25 UNL     1      15.241  -2.629   1.409  1.00  0.00     0.010 A 
HETATM   26  C26 UNL     1       6.652  -0.921   1.889  1.00  0.00     0.202 C 
HETATM   27  C27 UNL     1       1.386   1.985  -3.133  1.00  0.00     0.202 C 
HETATM   28  C28 UNL     1       1.934   2.418   1.418  1.00  0.00     0.153 C 
HETATM   29  C29 UNL     1      -0.189   1.660   0.290  1.00  0.00     0.243 C 
HETATM   30  C30 UNL     1      -0.943   2.903   0.830  1.00  0.00     0.180 C 
HETATM   31  C31 UNL     1      -0.587   4.180   0.034  1.00  0.00     0.009 C 
HETATM   32  C32 UNL     1      -1.018   5.430   0.807  1.00  0.00     0.012 C 
HETATM   33  C33 UNL     1      -1.195   4.214  -1.373  1.00  0.00     0.012 C 
HETATM   34  C34 UNL     1      -3.060   2.089   1.847  1.00  0.00     0.241 C 
HETATM   35  C35 UNL     1      -4.413   1.429   1.465  1.00  0.00     0.184 C 
HETATM   36  C36 UNL     1      -5.414   1.199   2.629  1.00  0.00     0.010 C 
HETATM   37  C37 UNL     1      -5.642   2.415   3.532  1.00  0.00     0.012 C 
HETATM   38  C38 UNL     1      -5.004  -0.006   3.486  1.00  0.00     0.012 C 
HETATM   39  C39 UNL     1      -5.390   3.479   0.332  1.00  0.00     0.156 C 
HETATM   40  C40 UNL     1      -5.680   1.314  -0.705  1.00  0.00     0.363 C 
HETATM   41  C41 UNL     1      -6.123  -0.869  -1.512  1.00  0.00     0.222 C 
HETATM   42  C42 UNL     1      -7.473  -1.268  -0.972  1.00  0.00    -0.000 A 
HETATM   43  C43 UNL     1      -8.646  -1.107  -1.717  1.00  0.00     0.081 A 
HETATM   44  C44 UNL     1      -9.888  -1.516  -1.215  1.00  0.00     0.074 A 
HETATM   45  C45 UNL     1      -9.980  -2.065   0.062  1.00  0.00     0.074 A 
HETATM   46  C46 UNL     1      -8.819  -2.209   0.823  1.00  0.00     0.037 A 
HETATM   47  C47 UNL     1      -7.577  -1.824   0.311  1.00  0.00     0.015 A 
HETATM   48  C48 UNL     1     -12.343  -2.493  -0.082  1.00  0.00     0.298 C 
HETATM   49  C49 UNL     1     -13.347  -3.354   0.721  1.00  0.00     0.205 C 
HETATM   50  C50 UNL     1     -14.743  -3.350   0.077  1.00  0.00     0.183 C 
HETATM   51  C51 UNL     1     -14.847  -2.311  -1.042  1.00  0.00     0.188 C 
HETATM   52  C52 UNL     1     -14.195  -0.994  -0.599  1.00  0.00     0.249 C 
HETATM   53  C53 UNL     1     -14.976  -0.298   0.537  1.00  0.00     0.272 C 
HETATM   54  C54 UNL     1      -9.013   0.772  -3.028  1.00  0.00     0.268 C 
HETATM   55  C55 UNL     1     -10.292   0.875  -3.750  1.00  0.00    -0.091 C 
HETATM   56  C56 UNL     1     -11.334   0.964  -4.340  1.00  0.00     0.014 C 
HETATM   57  O1  UNL     1       4.592   1.583  -0.465  1.00  0.00    -0.273 OA
HETATM   58  O2  UNL     1      10.168  -1.044  -0.872  1.00  0.00    -0.273 OA
HETATM   59  O3  UNL     1      11.919  -2.770   0.323  1.00  0.00    -0.389 OA
HETATM   60  O4  UNL     1       6.763   0.232   1.066  1.00  0.00    -0.388 OA
HETATM   61  O5  UNL     1       1.946   1.844  -1.835  1.00  0.00    -0.388 OA
HETATM   62  O6  UNL     1      -0.772   0.899  -0.496  1.00  0.00    -0.271 OA
HETATM   63  O7  UNL     1      -2.574   2.043   2.973  1.00  0.00    -0.271 OA
HETATM   64  O8  UNL     1      -6.370   1.804  -1.592  1.00  0.00    -0.238 OA
HETATM   65  O9  UNL     1      -5.450  -0.017  -0.573  1.00  0.00    -0.299 OA
HETATM   66  O10 UNL     1     -11.124  -2.491   0.678  1.00  0.00    -0.318 OA
HETATM   67  O11 UNL     1     -12.802  -1.157  -0.307  1.00  0.00    -0.341 OA
HETATM   68  O12 UNL     1     -16.127   0.112   0.409  1.00  0.00    -0.268 OA
HETATM   69  O13 UNL     1     -15.005   0.520   2.675  1.00  0.00    -0.287 OA
ATOM     70  H13 UNL     1     -14.576   0.665   3.510  1.00  0.00     0.244 HD
HETATM   71  O14 UNL     1     -16.199  -2.158  -1.462  1.00  0.00    -0.390 OA
HETATM   72  O15 UNL     1     -15.722  -3.051   1.082  1.00  0.00    -0.390 OA
HETATM   73  O16 UNL     1     -12.876  -4.710   0.799  1.00  0.00    -0.388 OA
HETATM   74  O17 UNL     1      -8.584  -0.600  -2.989  1.00  0.00    -0.339 OA
HETATM   75  N1  UNL     1       5.940   0.257  -1.756  1.00  0.00    -0.345 N 
HETATM   76  N2  UNL     1      11.506   0.211   0.464  1.00  0.00    -0.354 N 
HETATM   77  N3  UNL     1       1.126   1.439   0.697  1.00  0.00    -0.347 N 
HETATM   78  N4  UNL     1      -2.376   2.604   0.761  1.00  0.00    -0.346 N 
HETATM   79  N5  UNL     1      -5.053   2.065   0.282  1.00  0.00    -0.319 N 
HETATM   80  N6  UNL     1     -14.305  -0.071   1.844  1.00  0.00    -0.235 N 
ATOM     81  H6  UNL     1     -13.351  -0.376   2.038  1.00  0.00     0.197 HD
HETATM   82  H77 UNL     1      11.275  -2.299  -0.243  1.00  0.00     0.210 HD
HETATM   83  H78 UNL     1     -16.481  -2.982  -1.901  1.00  0.00     0.210 HD
HETATM   84  H79 UNL     1     -16.568  -2.862   0.626  1.00  0.00     0.210 HD
HETATM   85  H80 UNL     1     -12.022  -4.674   1.274  1.00  0.00     0.210 HD
HETATM   86  H81 UNL     1      11.528   0.744   1.325  1.00  0.00     0.163 HD
HETATM   87  H82 UNL     1      -2.696   2.255  -0.138  1.00  0.00     0.163 HD
ENDROOT
TORSDOF 33
