REMARK  0 active torsions:
REMARK  status: ('A' for Active; 'I' for Inactive)
REMARK       I    between atoms: C7_7  and  C8_8 
REMARK       I    between atoms: C7_7  and  N1_70 
REMARK       I    between atoms: C9_9  and  O12_92 
REMARK       I    between atoms: C11_11  and  O11_91 
REMARK       I    between atoms: C12_12  and  C14_14 
REMARK       I    between atoms: C14_14  and  N2_71 
REMARK       I    between atoms: C15_15  and  N2_71 
REMARK       I    between atoms: C18_18  and  N3_72 
REMARK       I    between atoms: C21_21  and  C22_22 
REMARK       I    between atoms: C21_21  and  N3_72 
REMARK       I    between atoms: C24_24  and  C30_30 
REMARK       I    between atoms: C25_25  and  O5_85 
REMARK       I    between atoms: C27_27  and  O4_84 
REMARK       I    between atoms: C30_30  and  N4_73 
REMARK       I    between atoms: C31_31  and  N4_73 
REMARK       I    between atoms: C34_34  and  N5_74 
REMARK       I    between atoms: C37_37  and  C38_38 
REMARK       I    between atoms: C37_37  and  N5_74 
REMARK       I    between atoms: C40_40  and  C54_54 
REMARK       I    between atoms: C41_41  and  O9_89 
REMARK       I    between atoms: C43_43  and  O8_88 
REMARK       I    between atoms: C44_44  and  C45_45 
REMARK       I    between atoms: C44_44  and  O8_88 
REMARK       I    between atoms: C45_45  and  C46_46 
REMARK       I    between atoms: C46_46  and  C47_47 
REMARK       I    between atoms: C47_47  and  C48_48 
REMARK       I    between atoms: C48_48  and  N6_75 
REMARK       I    between atoms: C49_49  and  C50_50 
REMARK       I    between atoms: C49_49  and  O9_89 
REMARK       I    between atoms: C50_50  and  C51_51 
REMARK       I    between atoms: C51_51  and  C52_52 
REMARK       I    between atoms: C52_52  and  C53_53 
REMARK       I    between atoms: C53_53  and  N7_76 
REMARK       I    between atoms: C54_54  and  N8_77 
REMARK       I    between atoms: C57_57  and  N9_78 
REMARK       I    between atoms: C60_60  and  C61_61 
REMARK       I    between atoms: C60_60  and  O11_91 
REMARK       I    between atoms: C61_61  and  C62_62 
REMARK       I    between atoms: C62_62  and  C63_63 
REMARK       I    between atoms: C63_63  and  C64_64 
REMARK       I    between atoms: C64_64  and  N10_79 
REMARK       I    between atoms: C65_65  and  C66_66 
REMARK       I    between atoms: C65_65  and  O12_92 
REMARK       I    between atoms: C66_66  and  C67_67 
REMARK       I    between atoms: C67_67  and  C68_68 
REMARK       I    between atoms: C68_68  and  C69_69 
REMARK       I    between atoms: C69_69  and  N11_80 
ROOT
HETATM    1  C1  UNL     1     -17.102  -0.302  -5.085  1.00  0.00     0.010 C 
HETATM    2  C2  UNL     1     -15.582  -0.548  -4.642  1.00  0.00    -0.015 C 
HETATM    3  C3  UNL     1     -15.506  -0.788  -3.117  1.00  0.00     0.024 C 
HETATM    4  C4  UNL     1     -14.100  -0.521  -2.571  1.00  0.00     0.126 C 
HETATM    5  C5  UNL     1     -14.293   1.578  -4.001  1.00  0.00     0.126 C 
HETATM    6  C6  UNL     1     -14.659   0.603  -5.126  1.00  0.00     0.024 C 
HETATM    7  C7  UNL     1     -12.787   1.559  -1.988  1.00  0.00     0.256 C 
HETATM    8  C8  UNL     1     -11.801   0.836  -1.155  1.00  0.00     0.066 A 
HETATM    9  C9  UNL     1     -11.670   1.130   0.213  1.00  0.00     0.087 A 
HETATM   10  C10 UNL     1     -10.735   0.418   0.985  1.00  0.00     0.075 A 
HETATM   11  C11 UNL     1      -9.951  -0.603   0.414  1.00  0.00     0.087 A 
HETATM   12  C12 UNL     1     -10.065  -0.870  -0.967  1.00  0.00     0.066 A 
HETATM   13  C13 UNL     1     -10.998  -0.155  -1.734  1.00  0.00     0.040 A 
HETATM   14  C14 UNL     1      -9.240  -1.911  -1.622  1.00  0.00     0.254 C 
HETATM   15  C15 UNL     1      -7.088  -3.271  -1.692  1.00  0.00     0.084 C 
HETATM   16  C16 UNL     1      -6.251  -3.870  -0.545  1.00  0.00     0.027 C 
HETATM   17  C17 UNL     1      -5.082  -2.965  -0.130  1.00  0.00     0.027 C 
HETATM   18  C18 UNL     1      -4.199  -2.596  -1.337  1.00  0.00     0.084 C 
HETATM   19  C19 UNL     1      -5.047  -1.940  -2.441  1.00  0.00     0.027 C 
HETATM   20  C20 UNL     1      -6.197  -2.857  -2.876  1.00  0.00     0.027 C 
HETATM   21  C21 UNL     1      -2.005  -1.387  -1.764  1.00  0.00     0.254 C 
HETATM   22  C22 UNL     1      -1.126  -0.232  -1.472  1.00  0.00     0.066 A 
HETATM   23  C23 UNL     1       0.256  -0.356  -1.681  1.00  0.00     0.040 A 
HETATM   24  C24 UNL     1       1.130   0.703  -1.394  1.00  0.00     0.066 A 
HETATM   25  C25 UNL     1       0.610   1.928  -0.930  1.00  0.00     0.086 A 
HETATM   26  C26 UNL     1      -0.778   2.056  -0.731  1.00  0.00     0.075 A 
HETATM   27  C27 UNL     1      -1.653   0.989  -1.008  1.00  0.00     0.086 A 
HETATM   28  C28 UNL     1      -3.708   2.295  -0.403  1.00  0.00     0.210 C 
HETATM   29  C29 UNL     1       1.097   4.286  -0.224  1.00  0.00     0.210 C 
HETATM   30  C30 UNL     1       2.584   0.512  -1.602  1.00  0.00     0.254 C 
HETATM   31  C31 UNL     1       4.983   1.010  -0.926  1.00  0.00     0.084 C 
HETATM   32  C32 UNL     1       5.561  -0.314  -0.398  1.00  0.00     0.027 C 
HETATM   33  C33 UNL     1       5.570  -0.365   1.133  1.00  0.00     0.027 C 
HETATM   34  C34 UNL     1       6.366   0.811   1.728  1.00  0.00     0.084 C 
HETATM   35  C35 UNL     1       5.789   2.152   1.232  1.00  0.00     0.027 C 
HETATM   36  C36 UNL     1       5.699   2.226  -0.303  1.00  0.00     0.027 C 
HETATM   37  C37 UNL     1       8.644  -0.288   2.022  1.00  0.00     0.254 C 
HETATM   38  C38 UNL     1      10.086  -0.359   1.693  1.00  0.00     0.066 A 
HETATM   39  C39 UNL     1      11.004  -0.580   2.730  1.00  0.00     0.040 A 
HETATM   40  C40 UNL     1      12.385  -0.596   2.487  1.00  0.00     0.066 A 
HETATM   41  C41 UNL     1      12.862  -0.419   1.174  1.00  0.00     0.087 A 
HETATM   42  C42 UNL     1      11.941  -0.227   0.128  1.00  0.00     0.075 A 
HETATM   43  C43 UNL     1      10.554  -0.207   0.372  1.00  0.00     0.087 A 
HETATM   44  C44 UNL     1       9.974   0.188  -2.038  1.00  0.00     0.175 C 
HETATM   45  C45 UNL     1       8.710   0.266  -2.898  1.00  0.00     0.027 C 
HETATM   46  C46 UNL     1       8.037  -1.105  -3.093  1.00  0.00     0.004 C 
HETATM   47  C47 UNL     1       8.685  -1.916  -4.227  1.00  0.00     0.030 C 
HETATM   48  C48 UNL     1       8.108  -3.339  -4.336  1.00  0.00     0.267 C 
HETATM   49  C49 UNL     1      14.909  -0.160  -0.286  1.00  0.00     0.175 C 
HETATM   50  C50 UNL     1      14.874   1.351  -0.562  1.00  0.00     0.027 C 
HETATM   51  C51 UNL     1      15.462   1.721  -1.935  1.00  0.00     0.004 C 
HETATM   52  C52 UNL     1      16.962   1.413  -2.101  1.00  0.00     0.030 C 
HETATM   53  C53 UNL     1      17.849   2.210  -1.137  1.00  0.00     0.267 C 
HETATM   54  C54 UNL     1      13.312  -0.837   3.619  1.00  0.00     0.256 C 
HETATM   55  C55 UNL     1      15.716  -0.815   4.337  1.00  0.00     0.128 C 
HETATM   56  C56 UNL     1      17.034  -0.427   3.640  1.00  0.00     0.055 C 
HETATM   57  C57 UNL     1      17.019   0.987   3.013  1.00  0.00     0.221 C 
HETATM   58  C58 UNL     1      16.001   1.897   3.715  1.00  0.00     0.055 C 
HETATM   59  C59 UNL     1      14.586   1.326   3.553  1.00  0.00     0.128 C 
HETATM   60  C60 UNL     1      -8.960  -1.352   2.612  1.00  0.00     0.175 C 
HETATM   61  C61 UNL     1     -10.169  -2.036   3.261  1.00  0.00     0.027 C 
HETATM   62  C62 UNL     1     -10.132  -1.894   4.786  1.00  0.00     0.004 C 
HETATM   63  C63 UNL     1     -11.355  -2.561   5.428  1.00  0.00     0.030 C 
HETATM   64  C64 UNL     1     -11.335  -2.442   6.956  1.00  0.00     0.267 C 
HETATM   65  C65 UNL     1     -12.762   2.298   2.166  1.00  0.00     0.175 C 
HETATM   66  C66 UNL     1     -13.541   1.115   2.769  1.00  0.00     0.027 C 
HETATM   67  C67 UNL     1     -14.687   0.599   1.881  1.00  0.00     0.004 C 
HETATM   68  C68 UNL     1     -15.749   1.669   1.591  1.00  0.00     0.030 C 
HETATM   69  C69 UNL     1     -16.904   1.081   0.767  1.00  0.00     0.267 C 
HETATM   70  N1  UNL     1     -13.676   0.856  -2.879  1.00  0.00    -0.348 N 
HETATM   71  N2  UNL     1      -7.879  -2.130  -1.219  1.00  0.00    -0.352 N 
HETATM   72  N3  UNL     1      -3.130  -1.683  -0.921  1.00  0.00    -0.352 N 
HETATM   73  N4  UNL     1       3.537   1.074  -0.686  1.00  0.00    -0.352 N 
HETATM   74  N5  UNL     1       7.796   0.697   1.408  1.00  0.00    -0.352 N 
HETATM   75  N6  UNL     1       6.709  -3.346  -4.763  1.00  0.00     0.078 N 
HETATM   76  N7  UNL     1      19.255   2.025  -1.482  1.00  0.00     0.078 N 
HETATM   77  N8  UNL     1      14.564  -0.135   3.731  1.00  0.00    -0.348 N 
HETATM   78  N9  UNL     1      18.354   1.583   3.071  1.00  0.00     0.083 N 
HETATM   79  N10 UNL     1     -11.462  -1.048   7.372  1.00  0.00     0.078 N 
HETATM   80  N11 UNL     1     -17.906   2.098   0.456  1.00  0.00     0.078 N 
HETATM   81  O1  UNL     1     -12.849   2.817  -1.908  1.00  0.00    -0.267 OA
HETATM   82  O2  UNL     1      -9.732  -2.588  -2.567  1.00  0.00    -0.268 OA
HETATM   83  O3  UNL     1      -1.745  -2.132  -2.747  1.00  0.00    -0.268 OA
HETATM   84  O4  UNL     1      -3.045   1.122  -0.863  1.00  0.00    -0.355 OA
HETATM   85  O5  UNL     1       1.487   3.003  -0.704  1.00  0.00    -0.355 OA
HETATM   86  O6  UNL     1       2.983  -0.180  -2.578  1.00  0.00    -0.268 OA
HETATM   87  O7  UNL     1       8.174  -1.062   2.900  1.00  0.00    -0.268 OA
HETATM   88  O8  UNL     1       9.627  -0.070  -0.677  1.00  0.00    -0.350 OA
HETATM   89  O9  UNL     1      14.250  -0.468   0.943  1.00  0.00    -0.350 OA
HETATM   90  O10 UNL     1      12.989  -1.672   4.507  1.00  0.00    -0.267 OA
HETATM   91  O11 UNL     1      -9.071  -1.382   1.189  1.00  0.00    -0.350 OA
HETATM   92  O12 UNL     1     -12.502   2.114   0.773  1.00  0.00    -0.350 OA
HETATM   93  H93 UNL     1      -7.400  -1.369  -0.688  1.00  0.00     0.163 HD
HETATM   94  H94 UNL     1      -3.161  -1.256   0.033  1.00  0.00     0.163 HD
HETATM   95  H95 UNL     1       3.192   1.405   0.242  1.00  0.00     0.163 HD
HETATM   96  H96 UNL     1       8.249   1.436   0.825  1.00  0.00     0.163 HD
HETATM   97  H97 UNL     1       6.594  -2.721  -5.593  1.00  0.00     0.312 HD
HETATM   98  H98 UNL     1       6.110  -2.976  -3.990  1.00  0.00     0.312 HD
HETATM   99  H99 UNL     1      19.820   2.635  -0.848  1.00  0.00     0.312 HD
HETATM  100  HA0 UNL     1      19.519   1.038  -1.257  1.00  0.00     0.312 HD
HETATM  101  HA1 UNL     1      18.332   2.492   2.555  1.00  0.00     0.313 HD
HETATM  102  HA2 UNL     1      19.010   0.967   2.536  1.00  0.00     0.313 HD
HETATM  103  HA3 UNL     1     -11.381  -1.018   8.414  1.00  0.00     0.312 HD
HETATM  104  HA4 UNL     1     -12.429  -0.724   7.139  1.00  0.00     0.312 HD
HETATM  105  HA5 UNL     1     -17.449   2.868  -0.085  1.00  0.00     0.312 HD
HETATM  106  HA6 UNL     1     -18.263   2.506   1.350  1.00  0.00     0.312 HD
ENDROOT
TORSDOF 41
