REMARK  11 active torsions:
REMARK  status: ('A' for Active; 'I' for Inactive)
REMARK    1  A    between atoms: C2_2  and  C3_3 
REMARK    2  A    between atoms: C2_2  and  N16_67 
REMARK    3  A    between atoms: C3_3  and  N1_46 
REMARK    4  A    between atoms: C4_4  and  N1_46 
REMARK    5  A    between atoms: C7_7  and  C9_9 
REMARK    6  A    between atoms: C12_12  and  C14_14 
REMARK    7  A    between atoms: C20_20  and  O1_68 
REMARK    8  A    between atoms: C21_21  and  O1_68 
REMARK    9  A    between atoms: C23_23  and  C25_25 
REMARK   10  A    between atoms: C27_27  and  C29_29 
REMARK   11  A    between atoms: C35_35  and  C36_36 
ROOT
HETATM    1  C21 UNL     1       0.635  -2.988  -2.724  1.00  0.00     0.170 A 
HETATM    2  C22 UNL     1       0.971  -1.652  -2.794  1.00  0.00     0.146 A 
HETATM    3  C23 UNL     1       2.843  -2.695  -2.918  1.00  0.00     0.138 A 
HETATM    4  C24 UNL     1       2.027  -5.067  -2.653  1.00  0.00     0.160 C 
HETATM    5  N6  UNL     1       2.328  -1.484  -2.897  1.00  0.00    -0.346 N 
ATOM      6  H6  UNL     1       2.835  -0.600  -2.947  1.00  0.00     0.167 HD
HETATM    7  N7  UNL     1       1.850  -3.641  -2.780  1.00  0.00    -0.315 N 
ENDROOT
BRANCH   1   8
HETATM    8  O1  UNL     1      -0.503  -3.678  -2.623  1.00  0.00    -0.260 OA
BRANCH   8   9
HETATM    9  C20 UNL     1      -1.687  -3.076  -2.533  1.00  0.00     0.231 A 
HETATM   10  N4  UNL     1      -2.835  -3.816  -2.459  1.00  0.00    -0.320 N 
HETATM   11  C17 UNL     1      -3.897  -2.953  -2.370  1.00  0.00     0.062 A 
HETATM   12  H47 UNL     1      -2.877  -4.822  -2.472  1.00  0.00     0.169 HD
HETATM   13  C16 UNL     1      -3.310  -1.692  -2.400  1.00  0.00     0.063 A 
HETATM   14  C18 UNL     1      -5.273  -3.158  -2.274  1.00  0.00     0.033 A 
HETATM   15  C15 UNL     1      -4.125  -0.553  -2.331  1.00  0.00     0.045 A 
HETATM   16  N5  UNL     1      -1.943  -1.788  -2.497  1.00  0.00    -0.320 N 
HETATM   17  C14 UNL     1      -5.515  -0.721  -2.225  1.00  0.00    -0.007 A 
HETATM   18  C19 UNL     1      -6.071  -2.009  -2.204  1.00  0.00     0.016 A 
ATOM     19  H5  UNL     1      -1.270  -1.022  -2.533  1.00  0.00     0.169 HD
BRANCH  17  20
HETATM   20  C12 UNL     1      -6.382   0.455  -2.156  1.00  0.00     0.045 A 
HETATM   21  C11 UNL     1      -6.582   1.435  -3.114  1.00  0.00     0.033 A 
HETATM   22  C10 UNL     1      -7.520   2.361  -2.606  1.00  0.00     0.034 A 
HETATM   23  C9  UNL     1      -7.885   1.937  -1.345  1.00  0.00     0.061 A 
HETATM   24  N3  UNL     1      -7.145   0.809  -1.055  1.00  0.00    -0.349 N 
HETATM   25  C13 UNL     1      -7.124   0.129   0.225  1.00  0.00     0.156 C 
BRANCH  23  26
HETATM   26  C7  UNL     1      -8.828   2.546  -0.457  1.00  0.00     0.062 A 
HETATM   27  C6  UNL     1      -8.728   3.773   0.166  1.00  0.00     0.035 A 
HETATM   28  C5  UNL     1      -9.882   3.944   0.964  1.00  0.00     0.044 A 
HETATM   29  C4  UNL     1     -10.656   2.810   0.835  1.00  0.00     0.082 A 
HETATM   30  N2  UNL     1     -10.049   2.002  -0.107  1.00  0.00    -0.340 N 
HETATM   31  C8  UNL     1     -10.642   0.837  -0.727  1.00  0.00     0.158 C 
BRANCH  29  32
HETATM   32  N1  UNL     1     -11.838   2.524   1.447  1.00  0.00    -0.277 NA
HETATM   33  H46 UNL     1     -12.228   3.297   1.983  1.00  0.00     0.129 HD
BRANCH  32  34
HETATM   34  C3  UNL     1     -11.974   1.257   2.180  1.00  0.00     0.129 C 
BRANCH  34  35
HETATM   35  C2  UNL     1     -13.044   1.291   3.316  1.00  0.00     0.231 C 
HETATM   36  C1  UNL     1     -14.398   1.810   2.810  1.00  0.00     0.044 C 
BRANCH  35  37
HETATM   37  N16 UNL     1     -12.686   1.937   4.604  1.00  0.00     0.085 N 
HETATM   38  C44 UNL     1     -12.282   3.337   4.517  1.00  0.00     0.309 C 
HETATM   39  C45 UNL     1     -11.674   1.174   5.338  1.00  0.00     0.309 C 
ENDBRANCH  35  37
ENDBRANCH  34  35
ENDBRANCH  32  34
ENDBRANCH  29  32
ENDBRANCH  23  26
ENDBRANCH  17  20
ENDBRANCH   8   9
ENDBRANCH   1   8
BRANCH   3  40
HETATM   40  C25 UNL     1       4.248  -2.942  -3.050  1.00  0.00     0.096 A 
HETATM   41  C26 UNL     1       4.929  -3.995  -3.622  1.00  0.00     0.123 A 
HETATM   42  N8  UNL     1       6.281  -3.846  -3.496  1.00  0.00    -0.349 N 
HETATM   43  C27 UNL     1       6.466  -2.708  -2.850  1.00  0.00     0.118 A 
ATOM     44  H8  UNL     1       7.002  -4.484  -3.833  1.00  0.00     0.167 HD
HETATM   45  N9  UNL     1       5.250  -2.083  -2.635  1.00  0.00    -0.333 N 
HETATM   46  C28 UNL     1       5.044  -0.752  -2.109  1.00  0.00     0.158 C 
BRANCH  43  47
HETATM   47  C29 UNL     1       7.782  -2.194  -2.462  1.00  0.00     0.010 A 
HETATM   48  C30 UNL     1       8.049  -1.819  -1.134  1.00  0.00     0.047 A 
HETATM   49  C31 UNL     1       9.327  -1.342  -0.809  1.00  0.00     0.061 A 
HETATM   50  C32 UNL     1      10.301  -1.268  -1.797  1.00  0.00     0.060 A 
HETATM   51  N11 UNL     1       9.819  -0.910   0.399  1.00  0.00    -0.339 N 
HETATM   52  C33 UNL     1      10.084  -1.656  -3.118  1.00  0.00     0.033 A 
HETATM   53  N10 UNL     1      11.404  -0.782  -1.143  1.00  0.00    -0.339 N 
HETATM   54  C34 UNL     1       8.800  -2.125  -3.426  1.00  0.00     0.017 A 
HETATM   55  C35 UNL     1      11.064  -0.555   0.166  1.00  0.00     0.135 A 
HETATM   56  H48 UNL     1      12.318  -0.644  -1.546  1.00  0.00     0.167 HD
ATOM     57  H11 UNL     1       9.323  -0.872   1.289  1.00  0.00     0.167 HD
BRANCH  55  58
HETATM   58  C36 UNL     1      11.959  -0.074   1.162  1.00  0.00     0.096 A 
HETATM   59  C37 UNL     1      12.092  -0.506   2.464  1.00  0.00     0.123 A 
HETATM   60  N12 UNL     1      13.108   0.152   3.105  1.00  0.00    -0.347 N 
HETATM   61  C38 UNL     1      13.587   1.014   2.227  1.00  0.00     0.153 A 
ATOM     62  H12 UNL     1      13.428   0.006   4.062  1.00  0.00     0.167 HD
HETATM   63  C40 UNL     1      14.704   1.883   2.475  1.00  0.00     0.152 A 
HETATM   64  N13 UNL     1      12.868   0.955   1.048  1.00  0.00    -0.330 N 
HETATM   65  N14 UNL     1      15.292   2.627   1.552  1.00  0.00    -0.348 N 
HETATM   66  N15 UNL     1      15.328   2.051   3.691  1.00  0.00    -0.343 N 
HETATM   67  C41 UNL     1      16.309   3.287   2.191  1.00  0.00     0.107 A 
ATOM     68  H14 UNL     1      15.040   2.695   0.566  1.00  0.00     0.167 HD
HETATM   69  C42 UNL     1      16.350   2.946   3.520  1.00  0.00     0.109 A 
HETATM   70  C43 UNL     1      14.981   1.415   4.939  1.00  0.00     0.157 C 
HETATM   71  C39 UNL     1      13.000   1.878  -0.056  1.00  0.00     0.158 C 
ENDBRANCH  55  58
ENDBRANCH  43  47
ENDBRANCH   3  40
TORSDOF 11
