REMARK  0 active torsions:
REMARK  status: ('A' for Active; 'I' for Inactive)
REMARK       I    between atoms: C2_2  and  C3_3 
REMARK       I    between atoms: C3_3  and  C5_5 
REMARK       I    between atoms: C5_5  and  C6_6 
REMARK       I    between atoms: C6_6  and  C8_8 
REMARK       I    between atoms: C8_8  and  C9_9 
REMARK       I    between atoms: C8_8  and  O23_92 
REMARK       I    between atoms: C9_9  and  C11_11 
REMARK       I    between atoms: C11_11  and  N1_93 
REMARK       I    between atoms: C12_12  and  C13_13 
REMARK       I    between atoms: C12_12  and  C14_14 
REMARK       I    between atoms: C12_12  and  N1_93 
REMARK       I    between atoms: C13_13  and  N2_94 
REMARK       I    between atoms: C14_14  and  N3_95 
REMARK       I    between atoms: C15_15  and  C16_16 
REMARK       I    between atoms: C15_15  and  C67_67 
REMARK       I    between atoms: C15_15  and  N3_95 
REMARK       I    between atoms: C16_16  and  C17_17 
REMARK       I    between atoms: C16_16  and  O21_90 
REMARK       I    between atoms: C17_17  and  C18_18 
REMARK       I    between atoms: C17_17  and  O20_89 
REMARK       I    between atoms: C18_18  and  N4_96 
REMARK       I    between atoms: C19_19  and  C20_20 
REMARK       I    between atoms: C19_19  and  C25_25 
REMARK       I    between atoms: C19_19  and  N4_96 
REMARK       I    between atoms: C20_20  and  C22_22 
REMARK       I    between atoms: C22_22  and  C24_24 
REMARK       I    between atoms: C24_24  and  N5_97 
REMARK       I    between atoms: C25_25  and  N6_98 
REMARK       I    between atoms: C26_26  and  N6_98 
REMARK       I    between atoms: C29_29  and  C62_62 
REMARK       I    between atoms: C31_31  and  C59_59 
REMARK       I    between atoms: C33_33  and  C56_56 
REMARK       I    between atoms: C35_35  and  C53_53 
REMARK       I    between atoms: C37_37  and  C48_48 
REMARK       I    between atoms: C38_38  and  O15_84 
REMARK       I    between atoms: C39_39  and  C45_45 
REMARK       I    between atoms: C41_41  and  C43_43 
REMARK       I    between atoms: C43_43  and  O14_83 
REMARK       I    between atoms: C45_45  and  C46_46 
REMARK       I    between atoms: C46_46  and  C47_47 
REMARK       I    between atoms: C47_47  and  N14_106 
REMARK       I    between atoms: C48_48  and  C49_49 
REMARK       I    between atoms: C53_53  and  C54_54 
REMARK       I    between atoms: C54_54  and  C55_55 
REMARK       I    between atoms: C55_55  and  N15_107 
REMARK       I    between atoms: C56_56  and  C57_57 
REMARK       I    between atoms: C56_56  and  O18_87 
REMARK       I    between atoms: C57_57  and  N16_108 
REMARK       I    between atoms: C59_59  and  C60_60 
REMARK       I    between atoms: C60_60  and  N17_109 
REMARK       I    between atoms: C62_62  and  C63_63 
REMARK       I    between atoms: C67_67  and  O22_91 
ROOT
HETATM    1  C1  UNL     1      13.548   4.356   3.924  1.00  0.00     0.005 C 
HETATM    2  C2  UNL     1      13.511   3.106   3.051  1.00  0.00    -0.000 C 
HETATM    3  C3  UNL     1      12.112   2.810   2.473  1.00  0.00    -0.019 C 
HETATM    4  C4  UNL     1      11.103   2.449   3.558  1.00  0.00     0.010 C 
HETATM    5  C5  UNL     1      12.151   1.810   1.291  1.00  0.00     0.011 C 
HETATM    6  C6  UNL     1      12.284   0.274   1.498  1.00  0.00     0.011 C 
HETATM    7  C7  UNL     1      13.462  -0.103   2.394  1.00  0.00     0.012 C 
HETATM    8  C8  UNL     1      10.930  -0.401   1.876  1.00  0.00     0.134 C 
HETATM    9  C9  UNL     1      10.587  -1.707   1.114  1.00  0.00     0.103 C 
HETATM   10  C10 UNL     1      11.689  -2.766   1.145  1.00  0.00     0.022 C 
HETATM   11  C11 UNL     1      10.162  -1.409  -0.321  1.00  0.00     0.224 C 
HETATM   12  C12 UNL     1       9.134  -2.369  -2.374  1.00  0.00     0.204 C 
HETATM   13  C13 UNL     1       9.140  -3.750  -3.061  1.00  0.00     0.301 C 
HETATM   14  C14 UNL     1       7.718  -1.749  -2.406  1.00  0.00     0.242 C 
HETATM   15  C15 UNL     1       6.479   0.433  -1.920  1.00  0.00     0.149 C 
HETATM   16  C16 UNL     1       5.230  -0.157  -1.178  1.00  0.00     0.181 C 
HETATM   17  C17 UNL     1       4.165   0.898  -0.805  1.00  0.00     0.240 C 
HETATM   18  C18 UNL     1       3.054   1.076  -1.859  1.00  0.00     0.249 C 
HETATM   19  C19 UNL     1       0.921   0.042  -2.700  1.00  0.00     0.181 C 
HETATM   20  C20 UNL     1       1.228  -0.569  -4.097  1.00  0.00     0.026 C 
HETATM   21  C21 UNL     1      -0.016  -0.629  -4.990  1.00  0.00     0.013 C 
HETATM   22  C22 UNL     1       2.047  -1.891  -4.093  1.00  0.00     0.080 C 
HETATM   23  C23 UNL     1       2.186  -2.537  -5.475  1.00  0.00     0.020 C 
HETATM   24  C24 UNL     1       1.534  -2.928  -3.109  1.00  0.00     0.219 C 
HETATM   25  C25 UNL     1      -0.261  -0.589  -1.901  1.00  0.00     0.241 C 
HETATM   26  C26 UNL     1      -0.914  -1.339   0.402  1.00  0.00     0.205 C 
HETATM   27  C27 UNL     1      -0.279  -2.697   0.775  1.00  0.00     0.159 C 
HETATM   28  C28 UNL     1      -1.089  -4.793   1.605  1.00  0.00     0.282 C 
HETATM   29  C29 UNL     1      -2.156  -5.451   2.511  1.00  0.00     0.186 C 
HETATM   30  C30 UNL     1      -4.093  -3.943   2.159  1.00  0.00     0.243 C 
HETATM   31  C31 UNL     1      -5.103  -2.868   2.654  1.00  0.00     0.185 C 
HETATM   32  C32 UNL     1      -6.561  -1.278   1.362  1.00  0.00     0.244 C 
HETATM   33  C33 UNL     1      -7.119  -0.961  -0.044  1.00  0.00     0.214 C 
HETATM   34  C34 UNL     1      -7.203   1.515  -0.005  1.00  0.00     0.241 C 
HETATM   35  C35 UNL     1      -8.094   2.740   0.347  1.00  0.00     0.179 C 
HETATM   36  C36 UNL     1      -6.780   4.527  -0.749  1.00  0.00     0.253 C 
HETATM   37  C37 UNL     1      -5.597   5.540  -0.767  1.00  0.00     0.315 C 
HETATM   38  C38 UNL     1      -3.210   5.570   0.000  1.00  0.00     0.377 C 
HETATM   39  C39 UNL     1      -2.304   4.414  -0.563  1.00  0.00     0.143 C 
HETATM   40  C40 UNL     1      -1.522   3.292   1.528  1.00  0.00     0.243 C 
HETATM   41  C41 UNL     1      -1.505   1.954   2.288  1.00  0.00     0.205 C 
HETATM   42  C42 UNL     1      -1.228  -0.451   1.628  1.00  0.00     0.243 C 
HETATM   43  C43 UNL     1      -2.681   1.886   3.290  1.00  0.00     0.146 C 
HETATM   44  C44 UNL     1      -4.016   1.471   2.686  1.00  0.00     0.042 C 
HETATM   45  C45 UNL     1      -2.579   3.973  -2.019  1.00  0.00     0.031 C 
HETATM   46  C46 UNL     1      -3.629   2.867  -2.203  1.00  0.00     0.032 C 
HETATM   47  C47 UNL     1      -3.943   2.575  -3.669  1.00  0.00     0.267 C 
HETATM   48  C48 UNL     1      -6.094   6.998  -0.911  1.00  0.00     0.049 C 
HETATM   49  C49 UNL     1      -6.540   7.744   0.362  1.00  0.00    -0.020 C 
HETATM   50  C50 UNL     1      -6.250   9.244   0.219  1.00  0.00     0.009 C 
HETATM   51  C51 UNL     1      -8.036   7.563   0.630  1.00  0.00     0.009 C 
HETATM   52  C52 UNL     1      -6.904   4.377   1.783  1.00  0.00     0.153 C 
HETATM   53  C53 UNL     1      -9.416   2.929  -0.431  1.00  0.00     0.044 C 
HETATM   54  C54 UNL     1      -9.486   2.353  -1.849  1.00  0.00     0.105 C 
HETATM   55  C55 UNL     1     -10.214   1.027  -1.926  1.00  0.00     0.215 C 
HETATM   56  C56 UNL     1      -7.956  -2.148  -0.572  1.00  0.00     0.244 C 
HETATM   57  C57 UNL     1      -9.000  -2.583   0.472  1.00  0.00     0.247 C 
HETATM   58  C58 UNL     1      -8.972  -2.971  -2.553  1.00  0.00     0.202 C 
HETATM   59  C59 UNL     1      -6.106  -3.328   3.713  1.00  0.00     0.137 C 
HETATM   60  C60 UNL     1      -6.403  -4.803   3.690  1.00  0.00     0.217 C 
HETATM   61  C61 UNL     1      -2.878  -3.938   4.353  1.00  0.00     0.153 C 
HETATM   62  C62 UNL     1      -2.723  -6.705   1.810  1.00  0.00     0.039 C 
HETATM   63  C63 UNL     1      -3.763  -7.509   2.610  1.00  0.00    -0.020 C 
HETATM   64  C64 UNL     1      -4.266  -8.686   1.770  1.00  0.00     0.009 C 
HETATM   65  C65 UNL     1      -3.215  -8.022   3.941  1.00  0.00     0.009 C 
HETATM   66  C66 UNL     1       1.042  -2.556   1.537  1.00  0.00     0.042 C 
HETATM   67  C67 UNL     1       6.273   1.137  -3.305  1.00  0.00     0.073 C 
HETATM   68  C68 UNL     1       5.490   0.337  -4.344  1.00  0.00     0.047 C 
HETATM   69  C69 UNL     1       7.626   1.540  -3.920  1.00  0.00     0.047 C 
HETATM   70  O1  UNL     1      10.253  -0.305  -0.853  1.00  0.00    -0.273 OA
HETATM   71  O2  UNL     1       6.737  -2.321  -2.873  1.00  0.00    -0.271 OA
HETATM   72  O3  UNL     1       3.015   2.024  -2.636  1.00  0.00    -0.271 OA
HETATM   73  O4  UNL     1       0.570  -3.654  -3.309  1.00  0.00    -0.273 OA
HETATM   74  O5  UNL     1      -1.325  -0.940  -2.397  1.00  0.00    -0.271 OA
HETATM   75  O6  UNL     1      -1.222  -3.438   1.570  1.00  0.00    -0.312 OA
HETATM   76  O7  UNL     1      -0.194  -5.409   1.036  1.00  0.00    -0.263 OA
HETATM   77  O8  UNL     1      -4.115  -4.265   0.962  1.00  0.00    -0.271 OA
HETATM   78  O9  UNL     1      -6.816  -0.596   2.353  1.00  0.00    -0.271 OA
HETATM   79  O10 UNL     1      -5.992   1.595  -0.213  1.00  0.00    -0.271 OA
HETATM   80  O11 UNL     1      -7.267   4.210  -1.842  1.00  0.00    -0.271 OA
HETATM   81  O12 UNL     1      -1.004   4.312   1.972  1.00  0.00    -0.271 OA
HETATM   82  O13 UNL     1      -1.397  -0.864   2.771  1.00  0.00    -0.271 OA
HETATM   83  O14 UNL     1      -2.377   0.990   4.367  1.00  0.00    -0.393 OA
HETATM   84  O15 UNL     1      -3.088   6.733  -0.792  1.00  0.00    -0.366 OA
HETATM   85  O16 UNL     1     -10.651   0.407  -0.962  1.00  0.00    -0.274 OA
HETATM   86  O17 UNL     1      -8.854  -3.575   1.184  1.00  0.00    -0.271 OA
HETATM   87  O18 UNL     1      -8.531  -1.818  -1.844  1.00  0.00    -0.379 OA
HETATM   88  O19 UNL     1      -6.003  -5.571   4.559  1.00  0.00    -0.274 OA
HETATM   89  O20 UNL     1       3.507   0.476   0.415  1.00  0.00    -0.383 OA
HETATM   90  O21 UNL     1       4.620  -1.285  -1.831  1.00  0.00    -0.390 OA
HETATM   91  O22 UNL     1       5.614   2.390  -3.060  1.00  0.00    -0.388 OA
HETATM   92  O23 UNL     1      10.834  -0.667   3.279  1.00  0.00    -0.394 OA
HETATM   93  N1  UNL     1       9.621  -2.483  -0.991  1.00  0.00    -0.346 N 
HETATM   94  N2  UNL     1      10.465  -4.388  -3.045  1.00  0.00     0.080 N 
HETATM   95  N3  UNL     1       7.641  -0.479  -1.885  1.00  0.00    -0.349 N 
HETATM   96  N4  UNL     1       2.106   0.079  -1.835  1.00  0.00    -0.345 N 
HETATM   97  N5  UNL     1       2.209  -2.976  -1.918  1.00  0.00    -0.370 N 
HETATM   98  N6  UNL     1      -0.068  -0.577  -0.531  1.00  0.00    -0.344 N 
HETATM   99  N7  UNL     1      -3.162  -4.485   3.031  1.00  0.00    -0.341 N 
HETATM  100  N8  UNL     1      -5.774  -2.401   1.426  1.00  0.00    -0.345 N 
HETATM  101  N9  UNL     1      -7.863   0.304   0.012  1.00  0.00    -0.343 N 
HETATM  102  N10 UNL     1      -7.267   3.971   0.430  1.00  0.00    -0.341 N 
HETATM  103  N11 UNL     1      -4.603   5.243   0.286  1.00  0.00     0.128 N 
HETATM  104  N12 UNL     1      -2.217   3.256   0.334  1.00  0.00    -0.350 N 
HETATM  105  N13 UNL     1      -1.445   0.870   1.295  1.00  0.00    -0.344 N 
HETATM  106  N14 UNL     1      -2.801   1.955  -4.332  1.00  0.00     0.078 N 
HETATM  107  N15 UNL     1     -10.355   0.547  -3.196  1.00  0.00    -0.370 N 
HETATM  108  N16 UNL     1     -10.095  -1.782   0.601  1.00  0.00    -0.368 N 
HETATM  109  N17 UNL     1      -7.144  -5.243   2.638  1.00  0.00    -0.370 N 
HETATM  110  H99 UNL     1      -2.090   0.142   3.960  1.00  0.00     0.210 HD
HETATM  111  HA0 UNL     1      -3.424   7.450  -0.229  1.00  0.00     0.212 HD
HETATM  112  HA1 UNL     1       3.075   1.273   0.775  1.00  0.00     0.210 HD
HETATM  113  HA2 UNL     1       5.354  -1.797  -2.243  1.00  0.00     0.210 HD
HETATM  114  HA3 UNL     1       4.677   2.348  -3.349  1.00  0.00     0.210 HD
HETATM  115  HA4 UNL     1      11.548  -1.272   3.539  1.00  0.00     0.210 HD
HETATM  116  HA5 UNL     1       9.281  -3.267  -0.445  1.00  0.00     0.163 HD
HETATM  117  HA6 UNL     1      10.868  -4.303  -2.112  1.00  0.00     0.312 HD
HETATM  118  HA7 UNL     1      11.098  -3.870  -3.657  1.00  0.00     0.312 HD
HETATM  119  HA8 UNL     1       8.531  -0.058  -1.604  1.00  0.00     0.163 HD
HETATM  120  HA9 UNL     1       2.422  -0.799  -1.424  1.00  0.00     0.163 HD
HETATM  121  HB0 UNL     1       1.971  -3.782  -1.348  1.00  0.00     0.159 HD
HETATM  122  HB1 UNL     1       3.193  -2.708  -1.900  1.00  0.00     0.159 HD
HETATM  123  HB2 UNL     1       0.845  -0.268  -0.211  1.00  0.00     0.163 HD
HETATM  124  HB3 UNL     1      -5.431  -2.843   0.573  1.00  0.00     0.163 HD
HETATM  125  HB4 UNL     1      -8.771   0.272   0.468  1.00  0.00     0.163 HD
HETATM  126  HB5 UNL     1      -4.629   4.236   0.457  1.00  0.00     0.320 HD
HETATM  127  HB6 UNL     1      -2.874   2.494   0.206  1.00  0.00     0.163 HD
HETATM  128  HB7 UNL     1      -1.152   1.126   0.354  1.00  0.00     0.163 HD
HETATM  129  HB8 UNL     1      -2.612   1.051  -3.890  1.00  0.00     0.312 HD
HETATM  130  HB9 UNL     1      -3.055   1.736  -5.295  1.00  0.00     0.312 HD
HETATM  131  HC0 UNL     1      -9.733   0.868  -3.927  1.00  0.00     0.159 HD
HETATM  132  HC1 UNL     1     -10.697  -0.401  -3.278  1.00  0.00     0.159 HD
HETATM  133  HC2 UNL     1     -10.352  -1.118  -0.136  1.00  0.00     0.159 HD
HETATM  134  HC3 UNL     1     -10.842  -2.088   1.210  1.00  0.00     0.159 HD
HETATM  135  HC4 UNL     1      -7.446  -6.207   2.673  1.00  0.00     0.159 HD
HETATM  136  HC5 UNL     1      -7.760  -4.604   2.131  1.00  0.00     0.159 HD
ENDROOT
TORSDOF 44
