REMARK  20 active torsions:
REMARK  status: ('A' for Active; 'I' for Inactive)
REMARK    1  A    between atoms: C3_3  and  C4_4 
REMARK    2  A    between atoms: C3_3  and  N1_48 
REMARK    3  A    between atoms: C4_4  and  C5_5 
REMARK    4  A    between atoms: C5_5  and  N2_49 
REMARK    5  A    between atoms: C6_6  and  C7_7 
REMARK       I    between atoms: C6_6  and  N2_49 
REMARK    6  A    between atoms: C9_9  and  N3_50 
REMARK    7  A    between atoms: C10_10  and  C11_11 
REMARK       I    between atoms: C10_10  and  N3_50 
REMARK    8  A    between atoms: C13_13  and  N4_51 
REMARK    9  A    between atoms: C14_14  and  C15_15 
REMARK       I    between atoms: C14_14  and  N4_51 
REMARK   10  A    between atoms: C17_17  and  N5_52 
REMARK   11  A    between atoms: C18_18  and  C19_19 
REMARK       I    between atoms: C18_18  and  N5_52 
REMARK   12  A    between atoms: C21_21  and  N6_53 
REMARK   13  A    between atoms: C22_22  and  C23_23 
REMARK       I    between atoms: C22_22  and  N6_53 
REMARK   14  A    between atoms: C25_25  and  N7_54 
REMARK   15  A    between atoms: C26_26  and  C27_27 
REMARK       I    between atoms: C26_26  and  N7_54 
REMARK   16  A    between atoms: C29_29  and  N8_55 
REMARK   17  A    between atoms: C30_30  and  C31_31 
REMARK       I    between atoms: C30_30  and  N8_55 
REMARK   18  A    between atoms: C31_31  and  C32_32 
REMARK   19  A    between atoms: C32_32  and  C33_33 
REMARK   20  A    between atoms: C33_33  and  N9_56 
ROOT
HETATM    1  C18 UNL     1       0.390  -3.544  -1.474  1.00  0.00     0.273 C 
HETATM    2  N5  UNL     1       0.171  -2.284  -0.946  1.00  0.00    -0.320 N 
HETATM    3  O4  UNL     1      -0.504  -4.347  -1.726  1.00  0.00    -0.266 OA
HETATM    4  H58 UNL     1       0.969  -1.710  -0.716  1.00  0.00     0.169 HD
ENDROOT
BRANCH   1   5
HETATM    5  C19 UNL     1       1.800  -3.862  -1.698  1.00  0.00     0.105 A 
HETATM    6  C20 UNL     1       2.918  -3.033  -1.667  1.00  0.00     0.066 A 
HETATM    7  C21 UNL     1       4.071  -3.803  -1.946  1.00  0.00     0.053 A 
HETATM    8  C40 UNL     1       3.645  -5.091  -2.161  1.00  0.00     0.120 A 
HETATM    9  N12 UNL     1       2.280  -5.123  -2.014  1.00  0.00    -0.354 N 
HETATM   10  C41 UNL     1       1.482  -6.324  -2.159  1.00  0.00     0.156 C 
BRANCH   7  11
HETATM   11  N6  UNL     1       5.396  -3.427  -2.023  1.00  0.00    -0.320 N 
HETATM   12  C22 UNL     1       5.884  -2.165  -1.744  1.00  0.00     0.273 C 
HETATM   13  O5  UNL     1       5.218  -1.231  -1.310  1.00  0.00    -0.266 OA
HETATM   14  H59 UNL     1       6.063  -4.161  -2.214  1.00  0.00     0.169 HD
BRANCH  12  15
HETATM   15  C23 UNL     1       7.314  -2.050  -1.963  1.00  0.00     0.105 A 
HETATM   16  C24 UNL     1       8.240  -1.473  -1.104  1.00  0.00     0.066 A 
HETATM   17  C25 UNL     1       9.528  -1.589  -1.681  1.00  0.00     0.053 A 
HETATM   18  C38 UNL     1       9.357  -2.200  -2.900  1.00  0.00     0.120 A 
HETATM   19  N11 UNL     1       8.018  -2.435  -3.086  1.00  0.00    -0.354 N 
HETATM   20  C39 UNL     1       7.456  -2.929  -4.326  1.00  0.00     0.156 C 
BRANCH  17  21
HETATM   21  N7  UNL     1      10.700  -1.151  -1.093  1.00  0.00    -0.320 N 
HETATM   22  C26 UNL     1      11.969  -1.238  -1.638  1.00  0.00     0.273 C 
HETATM   23  O6  UNL     1      12.216  -1.718  -2.742  1.00  0.00    -0.266 OA
HETATM   24  H60 UNL     1      10.593  -0.712  -0.191  1.00  0.00     0.169 HD
BRANCH  22  25
HETATM   25  C27 UNL     1      13.025  -0.693  -0.784  1.00  0.00     0.105 A 
HETATM   26  C28 UNL     1      12.972  -0.247   0.534  1.00  0.00     0.066 A 
HETATM   27  C29 UNL     1      14.257   0.192   0.927  1.00  0.00     0.052 A 
HETATM   28  C36 UNL     1      15.087   0.004  -0.150  1.00  0.00     0.120 A 
HETATM   29  N10 UNL     1      14.346  -0.532  -1.175  1.00  0.00    -0.354 N 
HETATM   30  C37 UNL     1      14.893  -0.863  -2.475  1.00  0.00     0.156 C 
BRANCH  27  31
HETATM   31  N8  UNL     1      14.691   0.717   2.128  1.00  0.00    -0.326 N 
HETATM   32  C30 UNL     1      13.890   0.918   3.239  1.00  0.00     0.222 C 
HETATM   33  O7  UNL     1      12.696   0.647   3.327  1.00  0.00    -0.273 OA
HETATM   34  H61 UNL     1      15.672   0.954   2.184  1.00  0.00     0.169 HD
BRANCH  32  35
HETATM   35  C31 UNL     1      14.650   1.540   4.398  1.00  0.00     0.105 C 
BRANCH  35  36
HETATM   36  C32 UNL     1      15.000   3.007   4.144  1.00  0.00     0.039 C 
BRANCH  36  37
HETATM   37  C33 UNL     1      13.775   3.935   4.117  1.00  0.00     0.271 C 
BRANCH  37  38
HETATM   38  N9  UNL     1      13.021   3.935   5.379  1.00  0.00     0.080 N 
HETATM   39  C34 UNL     1      11.690   4.512   5.171  1.00  0.00     0.309 C 
HETATM   40  C35 UNL     1      13.717   4.665   6.439  1.00  0.00     0.309 C 
ENDBRANCH  37  38
ENDBRANCH  36  37
ENDBRANCH  35  36
ENDBRANCH  32  35
ENDBRANCH  27  31
ENDBRANCH  22  25
ENDBRANCH  17  21
ENDBRANCH  12  15
ENDBRANCH   7  11
ENDBRANCH   1   5
BRANCH   2  41
HETATM   41  C17 UNL     1      -1.066  -1.740  -0.660  1.00  0.00     0.053 A 
HETATM   42  C16 UNL     1      -2.366  -2.263  -0.848  1.00  0.00     0.066 A 
HETATM   43  C15 UNL     1      -3.301  -1.333  -0.398  1.00  0.00     0.105 A 
HETATM   44  N13 UNL     1      -2.561  -0.249   0.045  1.00  0.00    -0.354 N 
HETATM   45  C42 UNL     1      -1.218  -0.492  -0.107  1.00  0.00     0.120 A 
HETATM   46  C43 UNL     1      -3.097   0.976   0.605  1.00  0.00     0.156 C 
BRANCH  43  47
HETATM   47  C14 UNL     1      -4.762  -1.403  -0.376  1.00  0.00     0.273 C 
HETATM   48  N4  UNL     1      -5.276  -2.643  -0.712  1.00  0.00    -0.320 N 
HETATM   49  H57 UNL     1      -4.635  -3.396  -0.909  1.00  0.00     0.169 HD
HETATM   50  O3  UNL     1      -5.454  -0.435  -0.071  1.00  0.00    -0.266 OA
BRANCH  48  51
HETATM   51  C13 UNL     1      -6.619  -2.962  -0.774  1.00  0.00     0.053 A 
HETATM   52  C12 UNL     1      -7.765  -2.162  -0.559  1.00  0.00     0.066 A 
HETATM   53  C11 UNL     1      -8.905  -2.942  -0.736  1.00  0.00     0.105 A 
HETATM   54  N14 UNL     1      -8.442  -4.204  -1.072  1.00  0.00    -0.354 N 
HETATM   55  C44 UNL     1      -7.069  -4.220  -1.091  1.00  0.00     0.120 A 
HETATM   56  C45 UNL     1      -9.264  -5.364  -1.355  1.00  0.00     0.156 C 
BRANCH  53  57
HETATM   57  C10 UNL     1     -10.320  -2.582  -0.625  1.00  0.00     0.273 C 
HETATM   58  N3  UNL     1     -10.542  -1.329  -0.080  1.00  0.00    -0.320 N 
HETATM   59  H56 UNL     1      -9.744  -0.790   0.222  1.00  0.00     0.169 HD
HETATM   60  O2  UNL     1     -11.210  -3.348  -0.983  1.00  0.00    -0.266 OA
BRANCH  58  61
HETATM   61  C9  UNL     1     -11.773  -0.736   0.129  1.00  0.00     0.053 A 
HETATM   62  C8  UNL     1     -11.969   0.542   0.705  1.00  0.00     0.066 A 
HETATM   63  C7  UNL     1     -13.329   0.819   0.726  1.00  0.00     0.104 A 
HETATM   64  N15 UNL     1     -13.957  -0.312   0.245  1.00  0.00    -0.354 N 
HETATM   65  C46 UNL     1     -13.021  -1.232  -0.157  1.00  0.00     0.120 A 
HETATM   66  C47 UNL     1     -15.382  -0.569   0.237  1.00  0.00     0.156 C 
BRANCH  63  67
HETATM   67  C6  UNL     1     -13.947   2.034   1.213  1.00  0.00     0.268 C 
HETATM   68  N2  UNL     1     -14.992   2.489   0.436  1.00  0.00    -0.356 N 
HETATM   69  H55 UNL     1     -15.089   2.089  -0.487  1.00  0.00     0.162 HD
HETATM   70  O1  UNL     1     -13.543   2.646   2.196  1.00  0.00    -0.266 OA
BRANCH  68  71
HETATM   71  C5  UNL     1     -15.636   3.759   0.703  1.00  0.00     0.125 C 
BRANCH  71  72
HETATM   72  C4  UNL     1     -14.827   4.962   0.212  1.00  0.00     0.050 C 
BRANCH  72  73
HETATM   73  C3  UNL     1     -14.747   5.012  -1.322  1.00  0.00     0.273 C 
BRANCH  73  74
HETATM   74  N1  UNL     1     -14.011   6.139  -1.911  1.00  0.00     0.080 N 
HETATM   75  C1  UNL     1     -14.607   7.436  -1.605  1.00  0.00     0.309 C 
HETATM   76  C2  UNL     1     -12.590   6.123  -1.569  1.00  0.00     0.309 C 
ENDBRANCH  73  74
ENDBRANCH  72  73
ENDBRANCH  71  72
ENDBRANCH  68  71
ENDBRANCH  63  67
ENDBRANCH  58  61
ENDBRANCH  53  57
ENDBRANCH  48  51
ENDBRANCH  43  47
ENDBRANCH   2  41
TORSDOF 20
