REMARK  13 active torsions:
REMARK  status: ('A' for Active; 'I' for Inactive)
REMARK    1  A    between atoms: C5_5  and  C6_6 
REMARK    2  A    between atoms: C5_5  and  N2_29 
REMARK    3  A    between atoms: C6_6  and  O1_36 
REMARK    4  A    between atoms: C7_7  and  C8_8 
REMARK    5  A    between atoms: C7_7  and  N1_28 
REMARK    6  A    between atoms: C10_10  and  N4_32 
REMARK       I    between atoms: C14_14  and  N4_32 
REMARK       I    between atoms: C14_14  and  N5_33 
REMARK    7  A    between atoms: C15_15  and  N5_33 
REMARK    8  A    between atoms: C18_18  and  S1_42 
REMARK    9  A    between atoms: C21_21  and  C22_22 
REMARK   10  A    between atoms: C21_21  and  N6_34 
REMARK   11  A    between atoms: C25_25  and  S2_43 
REMARK   12  A    between atoms: N6_34  and  S1_42 
REMARK   13  A    between atoms: N7_35  and  S2_43 
ROOT
HETATM    1  C14 UNL     1       0.652   1.317   0.638  1.00  0.00     0.325 C 
HETATM    2  N4  UNL     1       0.829   1.240   2.012  1.00  0.00    -0.309 N 
HETATM    3  N5  UNL     1       1.837   1.708   0.040  1.00  0.00    -0.309 N 
HETATM    4  O2  UNL     1      -0.384   1.042   0.046  1.00  0.00    -0.247 OA
HETATM    5  H28 UNL     1       1.787   1.037   2.297  1.00  0.00     0.170 HD
HETATM    6  H29 UNL     1       2.525   2.089   0.676  1.00  0.00     0.170 HD
ENDROOT
BRANCH   3   7
HETATM    7  C15 UNL     1       2.220   1.563  -1.304  1.00  0.00     0.036 A 
HETATM    8  C16 UNL     1       1.439   0.919  -2.267  1.00  0.00     0.031 A 
HETATM    9  C17 UNL     1       1.976   0.607  -3.519  1.00  0.00     0.027 A 
HETATM   10  C18 UNL     1       3.299   0.949  -3.802  1.00  0.00     0.079 A 
HETATM   11  C19 UNL     1       4.054   1.693  -2.892  1.00  0.00     0.027 A 
HETATM   12  C20 UNL     1       3.511   1.993  -1.642  1.00  0.00     0.031 A 
BRANCH  10  13
HETATM   13  S1  UNL     1       4.084   0.341  -5.270  1.00  0.00     0.259 S 
HETATM   14  O3  UNL     1       3.130  -0.454  -6.010  1.00  0.00    -0.201 OA
HETATM   15  O4  UNL     1       4.799   1.444  -5.872  1.00  0.00    -0.201 OA
BRANCH  13  16
HETATM   16  N6  UNL     1       5.244  -0.700  -4.666  1.00  0.00    -0.311 N 
HETATM   17  H30 UNL     1       6.194  -0.342  -4.638  1.00  0.00     0.172 HD
BRANCH  16  18
HETATM   18  C21 UNL     1       4.883  -1.905  -3.930  1.00  0.00     0.170 C 
BRANCH  18  19
HETATM   19  C22 UNL     1       4.869  -1.696  -2.431  1.00  0.00    -0.040 A 
HETATM   20  C23 UNL     1       6.018  -1.254  -1.756  1.00  0.00     0.010 A 
HETATM   21  C24 UNL     1       5.970  -0.948  -0.393  1.00  0.00     0.025 A 
HETATM   22  C25 UNL     1       4.768  -1.090   0.303  1.00  0.00     0.074 A 
HETATM   23  C26 UNL     1       3.627  -1.574  -0.340  1.00  0.00     0.025 A 
HETATM   24  C27 UNL     1       3.685  -1.887  -1.700  1.00  0.00     0.010 A 
BRANCH  22  25
HETATM   25  S2  UNL     1       4.658  -0.591   1.999  1.00  0.00     0.239 S 
HETATM   26  O5  UNL     1       3.528   0.302   2.141  1.00  0.00    -0.206 OA
HETATM   27  O6  UNL     1       5.979  -0.230   2.459  1.00  0.00    -0.206 OA
BRANCH  25  28
HETATM   28  N7  UNL     1       4.295  -2.032   2.784  1.00  0.00    -0.225 NA
HETATM   29  H31 UNL     1       5.062  -2.260   3.423  1.00  0.00     0.136 HD
HETATM   30  H32 UNL     1       4.110  -2.809   2.149  1.00  0.00     0.136 HD
ENDBRANCH  25  28
ENDBRANCH  22  25
ENDBRANCH  18  19
ENDBRANCH  16  18
ENDBRANCH  13  16
ENDBRANCH  10  13
ENDBRANCH   3   7
BRANCH   2  31
HETATM   31  C10 UNL     1      -0.172   1.003   2.972  1.00  0.00     0.037 A 
HETATM   32  C9  UNL     1      -1.528   1.220   2.729  1.00  0.00     0.044 A 
HETATM   33  C8  UNL     1      -2.469   0.946   3.727  1.00  0.00     0.009 A 
HETATM   34  C13 UNL     1      -2.062   0.483   4.981  1.00  0.00     0.015 A 
HETATM   35  C12 UNL     1      -0.706   0.292   5.236  1.00  0.00     0.003 A 
HETATM   36  C11 UNL     1       0.235   0.555   4.236  1.00  0.00     0.029 A 
BRANCH  33  37
HETATM   37  C7  UNL     1      -3.922   1.171   3.462  1.00  0.00     0.107 C 
HETATM   38  N3  UNL     1      -4.605   1.882   4.310  1.00  0.00    -0.385 N 
HETATM   39  H27 UNL     1      -4.003   2.229   5.061  1.00  0.00     0.157 HD
ATOM     40  H3  UNL     1      -5.605   2.068   4.236  1.00  0.00     0.157 HD
BRANCH  37  41
HETATM   41  N1  UNL     1      -4.534   0.648   2.337  1.00  0.00    -0.364 N 
HETATM   42  C2  UNL     1      -3.969  -0.445   1.529  1.00  0.00     0.154 C 
HETATM   43  C1  UNL     1      -5.077  -1.349   0.945  1.00  0.00     0.292 C 
HETATM   44  N2  UNL     1      -6.091  -0.662   0.113  1.00  0.00     0.093 N 
HETATM   45  C4  UNL     1      -6.235   0.755   0.530  1.00  0.00     0.292 C 
HETATM   46  C3  UNL     1      -5.925   1.013   2.020  1.00  0.00     0.154 C 
BRANCH  44  47
HETATM   47  C5  UNL     1      -5.782  -0.776  -1.321  1.00  0.00     0.298 C 
BRANCH  47  48
HETATM   48  C6  UNL     1      -6.881  -0.223  -2.242  1.00  0.00     0.194 C 
BRANCH  48  49
HETATM   49  O1  UNL     1      -6.584  -0.521  -3.604  1.00  0.00    -0.399 OA
HETATM   50  H33 UNL     1      -6.647  -1.487  -3.706  1.00  0.00     0.209 HD
ENDBRANCH  48  49
ENDBRANCH  47  48
ENDBRANCH  44  47
ENDBRANCH  37  41
ENDBRANCH  33  37
ENDBRANCH   2  31
TORSDOF 13
