REMARK  0 active torsions:
REMARK  status: ('A' for Active; 'I' for Inactive)
REMARK       I    between atoms: C2_2  and  O29_97 
REMARK       I    between atoms: C3_3  and  C56_56 
REMARK       I    between atoms: C6_6  and  O25_93 
REMARK       I    between atoms: C8_8  and  O24_92 
REMARK       I    between atoms: C9_9  and  C10_10 
REMARK       I    between atoms: C10_10  and  C11_11 
REMARK       I    between atoms: C12_12  and  O23_91 
REMARK       I    between atoms: C15_15  and  C17_17 
REMARK       I    between atoms: C16_16  and  O2_70 
REMARK       I    between atoms: C17_17  and  C18_18 
REMARK       I    between atoms: C19_19  and  O13_81 
REMARK       I    between atoms: C23_23  and  O3_71 
REMARK       I    between atoms: C25_25  and  O8_76 
REMARK       I    between atoms: C26_26  and  C27_27 
REMARK       I    between atoms: C29_29  and  O7_75 
REMARK       I    between atoms: C30_30  and  O6_74 
REMARK       I    between atoms: C31_31  and  O5_73 
REMARK       I    between atoms: C33_33  and  C34_34 
REMARK       I    between atoms: C33_33  and  O8_76 
REMARK       I    between atoms: C36_36  and  O12_80 
REMARK       I    between atoms: C37_37  and  O11_79 
REMARK       I    between atoms: C38_38  and  O10_78 
REMARK       I    between atoms: C40_40  and  C50_50 
REMARK       I    between atoms: C41_41  and  O15_83 
REMARK       I    between atoms: C43_43  and  C44_44 
REMARK       I    between atoms: C43_43  and  O15_83 
REMARK       I    between atoms: C46_46  and  O19_87 
REMARK       I    between atoms: C47_47  and  O18_86 
REMARK       I    between atoms: C48_48  and  O17_85 
REMARK       I    between atoms: C52_52  and  O22_90 
REMARK       I    between atoms: C53_53  and  O21_89 
REMARK       I    between atoms: C54_54  and  O20_88 
REMARK       I    between atoms: C58_58  and  O28_96 
REMARK       I    between atoms: C59_59  and  O27_95 
REMARK       I    between atoms: C60_60  and  O26_94 
REMARK       I    between atoms: C62_62  and  C63_63 
REMARK       I    between atoms: C62_62  and  O29_97 
REMARK       I    between atoms: C65_65  and  O33_101 
REMARK       I    between atoms: C66_66  and  O32_100 
REMARK       I    between atoms: C67_67  and  O31_99 
ROOT
HETATM    1  C1  UNL     1       6.191  -1.992   2.047  1.00  0.00     0.079 C 
HETATM    2  C2  UNL     1       6.271  -1.496   0.606  1.00  0.00     0.166 C 
HETATM    3  C3  UNL     1       5.008  -1.834  -0.210  1.00  0.00     0.166 C 
HETATM    4  C4  UNL     1       3.686  -1.745   1.795  1.00  0.00     0.087 A 
HETATM    5  C5  UNL     1       4.798  -2.022   2.605  1.00  0.00     0.012 A 
HETATM    6  C6  UNL     1       4.572  -2.346   3.949  1.00  0.00     0.077 A 
HETATM    7  C7  UNL     1       3.286  -2.384   4.477  1.00  0.00     0.074 A 
HETATM    8  C8  UNL     1       2.200  -2.079   3.665  1.00  0.00     0.077 A 
HETATM    9  C9  UNL     1       2.373  -1.746   2.315  1.00  0.00     0.013 A 
HETATM   10  C10 UNL     1       1.177  -1.411   1.438  1.00  0.00     0.088 C 
HETATM   11  C11 UNL     1       0.710   0.031   1.518  1.00  0.00     0.014 A 
HETATM   12  C12 UNL     1       1.285   1.043   0.734  1.00  0.00     0.084 A 
HETATM   13  C13 UNL     1       0.814   2.366   0.766  1.00  0.00     0.012 A 
HETATM   14  C14 UNL     1      -0.289   2.683   1.569  1.00  0.00     0.088 A 
HETATM   15  C15 UNL     1      -0.919   1.697   2.350  1.00  0.00     0.014 A 
HETATM   16  C16 UNL     1      -0.372   0.399   2.342  1.00  0.00     0.084 A 
HETATM   17  C17 UNL     1      -2.172   2.014   3.160  1.00  0.00     0.088 C 
HETATM   18  C18 UNL     1      -3.483   1.710   2.450  1.00  0.00     0.013 A 
HETATM   19  C19 UNL     1      -4.131   2.699   1.698  1.00  0.00     0.077 A 
HETATM   20  C20 UNL     1      -5.313   2.441   1.003  1.00  0.00     0.074 A 
HETATM   21  C21 UNL     1      -5.902   1.182   1.072  1.00  0.00     0.081 A 
HETATM   22  C22 UNL     1      -5.321   0.182   1.849  1.00  0.00     0.012 A 
HETATM   23  C23 UNL     1      -4.106   0.449   2.507  1.00  0.00     0.084 A 
HETATM   24  C24 UNL     1      -5.957  -1.173   1.932  1.00  0.00     0.080 C 
HETATM   25  C25 UNL     1      -7.443  -1.092   1.611  1.00  0.00     0.170 C 
HETATM   26  C26 UNL     1      -7.681  -0.256   0.333  1.00  0.00     0.192 C 
HETATM   27  C27 UNL     1      -7.412  -0.985  -0.983  1.00  0.00    -0.021 A 
HETATM   28  C28 UNL     1      -8.496  -1.550  -1.690  1.00  0.00     0.049 A 
HETATM   29  C29 UNL     1      -8.276  -2.247  -2.875  1.00  0.00     0.102 A 
HETATM   30  C30 UNL     1      -6.987  -2.389  -3.370  1.00  0.00     0.132 A 
HETATM   31  C31 UNL     1      -5.914  -1.832  -2.690  1.00  0.00     0.102 A 
HETATM   32  C32 UNL     1      -6.114  -1.128  -1.508  1.00  0.00     0.049 A 
HETATM   33  C33 UNL     1      -9.293  -2.588   1.540  1.00  0.00     0.294 C 
HETATM   34  C34 UNL     1      -9.663  -4.023   1.412  1.00  0.00     0.045 A 
HETATM   35  C35 UNL     1     -11.028  -4.353   1.423  1.00  0.00     0.057 A 
HETATM   36  C36 UNL     1     -11.412  -5.681   1.283  1.00  0.00     0.102 A 
HETATM   37  C37 UNL     1     -10.460  -6.681   1.136  1.00  0.00     0.132 A 
HETATM   38  C38 UNL     1      -9.108  -6.359   1.160  1.00  0.00     0.102 A 
HETATM   39  C39 UNL     1      -8.699  -5.036   1.277  1.00  0.00     0.057 A 
HETATM   40  C40 UNL     1      -0.283   4.984   0.813  1.00  0.00     0.192 C 
HETATM   41  C41 UNL     1       1.207   4.805   0.468  1.00  0.00     0.170 C 
HETATM   42  C42 UNL     1       1.453   3.417  -0.099  1.00  0.00     0.080 C 
HETATM   43  C43 UNL     1       1.908   7.023  -0.010  1.00  0.00     0.294 C 
HETATM   44  C44 UNL     1       2.430   7.911  -1.079  1.00  0.00     0.045 A 
HETATM   45  C45 UNL     1       2.901   9.183  -0.702  1.00  0.00     0.057 A 
HETATM   46  C46 UNL     1       3.387  10.050  -1.675  1.00  0.00     0.102 A 
HETATM   47  C47 UNL     1       3.401   9.663  -3.010  1.00  0.00     0.132 A 
HETATM   48  C48 UNL     1       2.932   8.410  -3.382  1.00  0.00     0.102 A 
HETATM   49  C49 UNL     1       2.444   7.525  -2.429  1.00  0.00     0.057 A 
HETATM   50  C50 UNL     1      -1.212   5.243  -0.373  1.00  0.00    -0.021 A 
HETATM   51  C51 UNL     1      -1.537   6.574  -0.716  1.00  0.00     0.049 A 
HETATM   52  C52 UNL     1      -2.384   6.835  -1.790  1.00  0.00     0.102 A 
HETATM   53  C53 UNL     1      -2.920   5.788  -2.527  1.00  0.00     0.132 A 
HETATM   54  C54 UNL     1      -2.613   4.477  -2.197  1.00  0.00     0.102 A 
HETATM   55  C55 UNL     1      -1.765   4.196  -1.132  1.00  0.00     0.049 A 
HETATM   56  C56 UNL     1       4.830  -3.238  -0.876  1.00  0.00     0.049 C 
HETATM   57  C57 UNL     1       4.719  -4.425   0.123  1.00  0.00     0.078 C 
HETATM   58  C58 UNL     1       5.102  -5.767  -0.450  1.00  0.00     0.080 C 
HETATM   59  C59 UNL     1       5.829  -5.871  -1.569  1.00  0.00     0.128 C 
HETATM   60  C60 UNL     1       6.262  -4.713  -2.305  1.00  0.00     0.098 C 
HETATM   61  C61 UNL     1       5.801  -3.490  -2.019  1.00  0.00     0.020 C 
HETATM   62  C62 UNL     1       8.645  -1.540   0.344  1.00  0.00     0.294 C 
HETATM   63  C63 UNL     1       9.730  -2.200  -0.429  1.00  0.00     0.045 A 
HETATM   64  C64 UNL     1      11.046  -2.126   0.047  1.00  0.00     0.057 A 
HETATM   65  C65 UNL     1      12.058  -2.772  -0.654  1.00  0.00     0.102 A 
HETATM   66  C66 UNL     1      11.776  -3.487  -1.813  1.00  0.00     0.132 A 
HETATM   67  C67 UNL     1      10.475  -3.556  -2.290  1.00  0.00     0.102 A 
HETATM   68  C68 UNL     1       9.455  -2.902  -1.614  1.00  0.00     0.057 A 
HETATM   69  O1  UNL     1       3.798  -1.446   0.463  1.00  0.00    -0.341 OA
HETATM   70  O2  UNL     1      -0.947  -0.519   3.186  1.00  0.00    -0.359 OA
HETATM   71  O3  UNL     1      -3.570  -0.587   3.225  1.00  0.00    -0.359 OA
HETATM   72  O4  UNL     1      -7.049   1.035   0.345  1.00  0.00    -0.338 OA
HETATM   73  O5  UNL     1      -4.648  -1.976  -3.180  1.00  0.00    -0.358 OA
HETATM   74  O6  UNL     1      -6.760  -3.076  -4.532  1.00  0.00    -0.356 OA
HETATM   75  O7  UNL     1      -9.299  -2.811  -3.585  1.00  0.00    -0.358 OA
HETATM   76  O8  UNL     1      -7.949  -2.442   1.528  1.00  0.00    -0.309 OA
HETATM   77  O9  UNL     1     -10.107  -1.683   1.613  1.00  0.00    -0.259 OA
HETATM   78  O10 UNL     1      -8.163  -7.340   1.087  1.00  0.00    -0.358 OA
HETATM   79  O11 UNL     1     -10.880  -7.967   0.936  1.00  0.00    -0.356 OA
HETATM   80  O12 UNL     1     -12.741  -5.991   1.271  1.00  0.00    -0.358 OA
HETATM   81  O13 UNL     1      -3.622   3.966   1.661  1.00  0.00    -0.360 OA
HETATM   82  O14 UNL     1      -0.801   3.949   1.660  1.00  0.00    -0.337 OA
HETATM   83  O15 UNL     1       1.704   5.772  -0.480  1.00  0.00    -0.309 OA
HETATM   84  O16 UNL     1       1.695   7.403   1.130  1.00  0.00    -0.259 OA
HETATM   85  O17 UNL     1       2.946   8.037  -4.694  1.00  0.00    -0.358 OA
HETATM   86  O18 UNL     1       3.874  10.509  -3.975  1.00  0.00    -0.356 OA
HETATM   87  O19 UNL     1       3.860  11.294  -1.368  1.00  0.00    -0.358 OA
HETATM   88  O20 UNL     1      -3.150   3.448  -2.913  1.00  0.00    -0.358 OA
HETATM   89  O21 UNL     1      -3.760   6.035  -3.578  1.00  0.00    -0.356 OA
HETATM   90  O22 UNL     1      -2.724   8.108  -2.152  1.00  0.00    -0.358 OA
HETATM   91  O23 UNL     1       2.330   0.802  -0.119  1.00  0.00    -0.359 OA
HETATM   92  O24 UNL     1       0.937  -2.117   4.191  1.00  0.00    -0.360 OA
HETATM   93  O25 UNL     1       5.575  -2.657   4.823  1.00  0.00    -0.360 OA
HETATM   94  O26 UNL     1       7.145  -4.943  -3.338  1.00  0.00    -0.358 OA
HETATM   95  O27 UNL     1       6.229  -7.085  -2.082  1.00  0.00    -0.356 OA
HETATM   96  O28 UNL     1       4.721  -6.907   0.235  1.00  0.00    -0.362 OA
HETATM   97  O29 UNL     1       7.439  -2.015  -0.057  1.00  0.00    -0.309 OA
HETATM   98  O30 UNL     1       8.830  -0.731   1.236  1.00  0.00    -0.259 OA
HETATM   99  O31 UNL     1      10.225  -4.284  -3.420  1.00  0.00    -0.358 OA
HETATM  100  O32 UNL     1      12.794  -4.120  -2.472  1.00  0.00    -0.356 OA
HETATM  101  O33 UNL     1      13.339  -2.707  -0.188  1.00  0.00    -0.358 OA
HETATM  102  H33 UNL     1      -0.242  -1.137   3.478  1.00  0.00     0.217 HD
HETATM  103  H34 UNL     1      -2.597  -0.473   3.241  1.00  0.00     0.217 HD
HETATM  104  H35 UNL     1      -4.764  -2.473  -4.015  1.00  0.00     0.217 HD
HETATM  105  H36 UNL     1      -7.654  -3.355  -4.819  1.00  0.00     0.218 HD
HETATM  106  H37 UNL     1     -10.134  -2.597  -3.132  1.00  0.00     0.217 HD
HETATM  107  H38 UNL     1      -8.437  -8.038   1.710  1.00  0.00     0.217 HD
HETATM  108  H39 UNL     1     -10.183  -8.396   0.403  1.00  0.00     0.218 HD
HETATM  109  H40 UNL     1     -12.777  -6.964   1.180  1.00  0.00     0.217 HD
HETATM  110  H41 UNL     1      -3.898   4.378   0.824  1.00  0.00     0.217 HD
HETATM  111  H42 UNL     1       3.327   8.803  -5.170  1.00  0.00     0.217 HD
HETATM  112  H43 UNL     1       4.147  11.311  -3.484  1.00  0.00     0.218 HD
HETATM  113  H44 UNL     1       3.812  11.415  -0.403  1.00  0.00     0.217 HD
HETATM  114  H45 UNL     1      -3.695   3.877  -3.603  1.00  0.00     0.217 HD
HETATM  115  H46 UNL     1      -3.810   7.012  -3.621  1.00  0.00     0.218 HD
HETATM  116  H47 UNL     1      -2.274   8.727  -1.551  1.00  0.00     0.217 HD
HETATM  117  H48 UNL     1       2.732  -0.060   0.086  1.00  0.00     0.217 HD
HETATM  118  H49 UNL     1       1.002  -2.405   5.122  1.00  0.00     0.217 HD
HETATM  119  H50 UNL     1       6.439  -2.416   4.451  1.00  0.00     0.217 HD
HETATM  120  H51 UNL     1       7.164  -5.924  -3.413  1.00  0.00     0.217 HD
HETATM  121  H52 UNL     1       5.847  -7.743  -1.465  1.00  0.00     0.218 HD
HETATM  122  H53 UNL     1       4.214  -6.638   1.023  1.00  0.00     0.217 HD
HETATM  123  H54 UNL     1       9.254  -4.325  -3.548  1.00  0.00     0.217 HD
HETATM  124  H55 UNL     1      12.358  -4.539  -3.243  1.00  0.00     0.218 HD
HETATM  125  H56 UNL     1      13.865  -3.223  -0.834  1.00  0.00     0.217 HD
ENDROOT
TORSDOF 40
