REMARK  22 active torsions:
REMARK  status: ('A' for Active; 'I' for Inactive)
REMARK    1  A    between atoms: C2_2  and  C3_3 
REMARK    2  A    between atoms: C7_7  and  C61_61 
REMARK    3  A    between atoms: C11_11  and  O1_68 
REMARK    4  A    between atoms: C15_15  and  C16_16 
REMARK       I    between atoms: C15_15  and  N1_62 
REMARK    5  A    between atoms: C22_22  and  N3_64 
REMARK    6  A    between atoms: C24_24  and  C25_25 
REMARK       I    between atoms: C24_24  and  N3_64 
REMARK    7  A    between atoms: C27_27  and  N5_66 
REMARK    8  A    between atoms: C30_30  and  C31_31 
REMARK       I    between atoms: C30_30  and  N5_66 
REMARK    9  A    between atoms: C31_31  and  C32_32 
REMARK   10  A    between atoms: C32_32  and  C33_33 
REMARK   11  A    between atoms: C33_33  and  N6_67 
REMARK   12  A    between atoms: C34_34  and  N6_67 
REMARK   13  A    between atoms: C36_36  and  O7_74 
REMARK   14  A    between atoms: C38_38  and  O6_73 
REMARK   15  A    between atoms: C40_40  and  O7_74 
REMARK   16  A    between atoms: C42_42  and  C59_59 
REMARK   17  A    between atoms: C42_42  and  O15_82 
REMARK   18  A    between atoms: C45_45  and  O12_79 
REMARK   19  A    between atoms: C48_48  and  O8_75 
REMARK   20  A    between atoms: C57_57  and  O11_78 
REMARK   21  A    between atoms: C59_59  and  C60_60 
REMARK   22  A    between atoms: C60_60  and  O14_81 
ROOT
HETATM    1  C32 UNL     1      -3.656  -3.370   0.485  1.00  0.00     0.039 C 
ENDROOT
BRANCH   1   2
HETATM    2  C31 UNL     1      -2.230  -3.879   0.280  1.00  0.00     0.105 C 
BRANCH   2   3
HETATM    3  C30 UNL     1      -1.189  -2.763   0.261  1.00  0.00     0.222 C 
HETATM    4  N5  UNL     1       0.094  -3.277   0.180  1.00  0.00    -0.326 N 
HETATM    5  H54 UNL     1       0.212  -4.282   0.143  1.00  0.00     0.169 HD
HETATM    6  O4  UNL     1      -1.498  -1.575   0.289  1.00  0.00    -0.273 OA
BRANCH   4   7
HETATM    7  C27 UNL     1       1.259  -2.534   0.157  1.00  0.00     0.052 A 
HETATM    8  C26 UNL     1       2.564  -3.073   0.060  1.00  0.00     0.066 A 
HETATM    9  C25 UNL     1       3.475  -2.026   0.040  1.00  0.00     0.105 A 
HETATM   10  N4  UNL     1       2.740  -0.871   0.216  1.00  0.00    -0.354 N 
HETATM   11  C28 UNL     1       1.401  -1.170   0.236  1.00  0.00     0.120 A 
HETATM   12  C29 UNL     1       3.267   0.458   0.445  1.00  0.00     0.156 C 
BRANCH   9  13
HETATM   13  C24 UNL     1       4.920  -2.139  -0.074  1.00  0.00     0.273 C 
HETATM   14  N3  UNL     1       5.454  -1.255  -0.992  1.00  0.00    -0.322 N 
HETATM   15  H53 UNL     1       4.784  -0.756  -1.561  1.00  0.00     0.169 HD
HETATM   16  O3  UNL     1       5.546  -2.979   0.559  1.00  0.00    -0.266 OA
BRANCH  14  17
HETATM   17  C22 UNL     1       6.812  -1.057  -1.318  1.00  0.00     0.035 A 
HETATM   18  C21 UNL     1       7.088  -0.161  -2.358  1.00  0.00     0.032 A 
HETATM   19  C20 UNL     1       8.399   0.121  -2.763  1.00  0.00     0.033 A 
HETATM   20  C19 UNL     1       9.433  -0.525  -2.083  1.00  0.00     0.043 A 
HETATM   21  C18 UNL     1       9.201  -1.421  -1.043  1.00  0.00    -0.005 A 
HETATM   22  N2  UNL     1      10.794  -0.461  -2.265  1.00  0.00    -0.351 N 
HETATM   23  C17 UNL     1      10.470  -1.887  -0.602  1.00  0.00     0.049 A 
HETATM   24  C23 UNL     1       7.871  -1.690  -0.655  1.00  0.00     0.043 A 
HETATM   25  C16 UNL     1      11.448  -1.242  -1.338  1.00  0.00     0.102 A 
HETATM   26  H52 UNL     1      11.257   0.080  -2.984  1.00  0.00     0.166 HD
BRANCH  25  27
HETATM   27  C15 UNL     1      12.887  -1.394  -1.273  1.00  0.00     0.275 C 
HETATM   28  N1  UNL     1      13.605  -0.208  -1.162  1.00  0.00    -0.311 N 
HETATM   29  C8  UNL     1      13.092   1.042  -0.576  1.00  0.00     0.143 C 
HETATM   30  C9  UNL     1      15.005  -0.080  -1.287  1.00  0.00     0.048 A 
HETATM   31  C7  UNL     1      14.196   2.099  -0.744  1.00  0.00     0.054 C 
HETATM   32  C6  UNL     1      15.406   1.236  -1.017  1.00  0.00    -0.013 A 
HETATM   33  C5  UNL     1      16.761   1.614  -1.033  1.00  0.00    -0.014 A 
HETATM   34  C4  UNL     1      17.194   2.917  -0.702  1.00  0.00     0.020 A 
HETATM   35  C12 UNL     1      17.724   0.633  -1.384  1.00  0.00     0.008 A 
HETATM   36  C3  UNL     1      18.549   3.271  -0.717  1.00  0.00    -0.058 A 
HETATM   37  C14 UNL     1      19.493   2.301  -1.047  1.00  0.00     0.008 A 
HETATM   38  C13 UNL     1      19.087   1.004  -1.371  1.00  0.00     0.015 A 
HETATM   39  C11 UNL     1      17.272  -0.674  -1.709  1.00  0.00     0.079 A 
HETATM   40  C10 UNL     1      15.928  -1.041  -1.645  1.00  0.00     0.067 A 
HETATM   41  O2  UNL     1      13.399  -2.508  -1.331  1.00  0.00    -0.265 OA
BRANCH  31  42
HETATM   42  C61 UNL     1      13.882   3.117  -1.850  1.00  0.00     0.125 C 
HETATM   43 CL1  UNL     1      13.421   2.393  -3.417  1.00  0.00    -0.130 Cl
ENDBRANCH  31  42
BRANCH  36  44
HETATM   44  C2  UNL     1      18.983   4.665  -0.339  1.00  0.00     0.034 C 
HETATM   45  C1  UNL     1      19.207   4.801   1.159  1.00  0.00     0.010 C 
ENDBRANCH  36  44
BRANCH  39  46
HETATM   46  O1  UNL     1      18.130  -1.667  -2.113  1.00  0.00    -0.360 OA
HETATM   47  H56 UNL     1      18.885  -1.254  -2.560  1.00  0.00     0.217 HD
ENDBRANCH  39  46
ENDBRANCH  25  27
ENDBRANCH  14  17
ENDBRANCH   9  13
ENDBRANCH   4   7
ENDBRANCH   2   3
ENDBRANCH   1   2
BRANCH   1  48
HETATM   48  C33 UNL     1      -4.171  -2.597  -0.733  1.00  0.00     0.270 C 
BRANCH  48  49
HETATM   49  N6  UNL     1      -5.418  -1.891  -0.471  1.00  0.00     0.090 N 
HETATM   50  H55 UNL     1      -5.929  -2.284   0.320  1.00  0.00     0.316 HD
BRANCH  49  51
HETATM   51  C34 UNL     1      -5.296  -0.425  -0.345  1.00  0.00     0.256 C 
HETATM   52  C35 UNL     1      -6.650   0.195  -0.753  1.00  0.00     0.099 C 
HETATM   53  C36 UNL     1      -7.461   0.727   0.434  1.00  0.00     0.263 C 
HETATM   54  O5  UNL     1      -7.332  -0.158   1.537  1.00  0.00    -0.354 OA
HETATM   55  C37 UNL     1      -6.010  -0.193   2.088  1.00  0.00     0.151 C 
HETATM   56  C38 UNL     1      -4.903   0.112   1.055  1.00  0.00     0.180 C 
HETATM   57  C39 UNL     1      -5.946   0.753   3.285  1.00  0.00     0.042 C 
BRANCH  53  58
HETATM   58  O7  UNL     1      -8.813   0.867   0.003  1.00  0.00    -0.351 OA
BRANCH  58  59
HETATM   59  C40 UNL     1      -9.714   1.325   1.026  1.00  0.00     0.164 C 
HETATM   60  C41 UNL     1      -9.463   2.827   1.235  1.00  0.00     0.083 C 
HETATM   61  C42 UNL     1     -10.681   3.628   1.679  1.00  0.00     0.127 C 
HETATM   62  C43 UNL     1     -11.824   3.405   0.683  1.00  0.00     0.088 C 
HETATM   63  C44 UNL     1     -12.117   1.952   0.404  1.00  0.00    -0.009 A 
HETATM   64  C45 UNL     1     -13.390   1.575  -0.056  1.00  0.00     0.088 A 
HETATM   65  C49 UNL     1     -11.125   0.967   0.574  1.00  0.00     0.014 A 
HETATM   66  C46 UNL     1     -13.707   0.230  -0.313  1.00  0.00     0.066 A 
HETATM   67  C47 UNL     1     -12.754  -0.757  -0.097  1.00  0.00     0.066 A 
HETATM   68  C53 UNL     1     -15.048  -0.140  -0.795  1.00  0.00     0.197 A 
HETATM   69  C48 UNL     1     -11.474  -0.384   0.358  1.00  0.00     0.090 A 
HETATM   70  C50 UNL     1     -13.090  -2.182  -0.339  1.00  0.00     0.200 A 
HETATM   71  C51 UNL     1     -14.436  -2.561  -0.851  1.00  0.00     0.062 A 
HETATM   72  O9  UNL     1     -12.222  -3.017  -0.101  1.00  0.00    -0.286 OA
HETATM   73  C52 UNL     1     -15.377  -1.550  -1.065  1.00  0.00     0.032 A 
HETATM   74  C57 UNL     1     -14.790  -3.902  -1.123  1.00  0.00     0.083 A 
HETATM   75  C54 UNL     1     -16.660  -1.854  -1.541  1.00  0.00     0.017 A 
HETATM   76  C55 UNL     1     -17.008  -3.172  -1.808  1.00  0.00     0.004 A 
HETATM   77  C56 UNL     1     -16.078  -4.190  -1.601  1.00  0.00     0.038 A 
HETATM   78  O10 UNL     1     -15.889   0.738  -0.972  1.00  0.00    -0.286 OA
BRANCH  61  79
HETATM   79  C59 UNL     1     -11.116   3.277   3.122  1.00  0.00     0.184 C 
HETATM   80  O13 UNL     1     -11.002   2.146   3.600  1.00  0.00    -0.292 OA
BRANCH  79  81
HETATM   81  C60 UNL     1     -11.698   4.406   3.969  1.00  0.00     0.245 C 
BRANCH  81  82
HETATM   82  O14 UNL     1     -12.643   5.200   3.271  1.00  0.00    -0.393 OA
HETATM   83  H60 UNL     1     -13.484   4.706   3.269  1.00  0.00     0.209 HD
ENDBRANCH  81  82
ENDBRANCH  79  81
ENDBRANCH  61  79
BRANCH  61  84
HETATM   84  O15 UNL     1     -10.286   5.010   1.623  1.00  0.00    -0.382 OA
HETATM   85  H61 UNL     1     -11.088   5.552   1.780  1.00  0.00     0.211 HD
ENDBRANCH  61  84
BRANCH  64  86
HETATM   86  O12 UNL     1     -14.308   2.582  -0.232  1.00  0.00    -0.359 OA
HETATM   87  H59 UNL     1     -15.142   2.188  -0.578  1.00  0.00     0.217 HD
ENDBRANCH  64  86
BRANCH  69  88
HETATM   88  O8  UNL     1     -10.516  -1.328   0.636  1.00  0.00    -0.359 OA
HETATM   89  H58 UNL     1     -10.866  -2.220   0.415  1.00  0.00     0.217 HD
ENDBRANCH  69  88
BRANCH  74  90
HETATM   90  O11 UNL     1     -13.844  -4.867  -0.908  1.00  0.00    -0.355 OA
HETATM   91  C58 UNL     1     -14.176  -6.224  -1.161  1.00  0.00     0.210 C 
ENDBRANCH  74  90
ENDBRANCH  58  59
ENDBRANCH  53  58
BRANCH  56  92
HETATM   92  O6  UNL     1      -3.652  -0.350   1.550  1.00  0.00    -0.391 OA
HETATM   93  H57 UNL     1      -3.036  -0.518   0.807  1.00  0.00     0.210 HD
ENDBRANCH  56  92
ENDBRANCH  49  51
ENDBRANCH  48  49
ENDBRANCH   1  48
TORSDOF 22
