REMARK  0 active torsions:
REMARK  status: ('A' for Active; 'I' for Inactive)
REMARK       I    between atoms: C2_2  and  N1_89 
REMARK       I    between atoms: C3_3  and  N1_89 
REMARK       I    between atoms: C4_4  and  O20_88 
REMARK       I    between atoms: C6_6  and  C25_25 
REMARK       I    between atoms: C6_6  and  O8_76 
REMARK       I    between atoms: C7_7  and  C8_8 
REMARK       I    between atoms: C8_8  and  C9_9 
REMARK       I    between atoms: C8_8  and  O5_73 
REMARK       I    between atoms: C9_9  and  C10_10 
REMARK       I    between atoms: C9_9  and  O4_72 
REMARK       I    between atoms: C10_10  and  N2_90 
REMARK       I    between atoms: C11_11  and  C12_12 
REMARK       I    between atoms: C11_11  and  N2_90 
REMARK       I    between atoms: C12_12  and  C13_13 
REMARK       I    between atoms: C16_16  and  C19_19 
REMARK       I    between atoms: C25_25  and  O7_75 
REMARK       I    between atoms: C26_26  and  C27_27 
REMARK       I    between atoms: C26_26  and  O8_76 
REMARK       I    between atoms: C27_27  and  C28_28 
REMARK       I    between atoms: C28_28  and  S1_95 
REMARK       I    between atoms: C29_29  and  C30_30 
REMARK       I    between atoms: C29_29  and  S1_95 
REMARK       I    between atoms: C30_30  and  N3_91 
REMARK       I    between atoms: C31_31  and  C32_32 
REMARK       I    between atoms: C31_31  and  N3_91 
REMARK       I    between atoms: C35_35  and  C38_38 
REMARK       I    between atoms: C38_38  and  N4_92 
REMARK       I    between atoms: C39_39  and  C40_40 
REMARK       I    between atoms: C39_39  and  N4_92 
REMARK       I    between atoms: C40_40  and  S2_96 
REMARK       I    between atoms: C41_41  and  C42_42 
REMARK       I    between atoms: C41_41  and  S2_96 
REMARK       I    between atoms: C42_42  and  C43_43 
REMARK       I    between atoms: C43_43  and  O11_79 
REMARK       I    between atoms: C44_44  and  C68_68 
REMARK       I    between atoms: C44_44  and  O11_79 
REMARK       I    between atoms: C46_46  and  O17_85 
REMARK       I    between atoms: C47_47  and  N6_94 
REMARK       I    between atoms: C48_48  and  C49_49 
REMARK       I    between atoms: C49_49  and  C50_50 
REMARK       I    between atoms: C49_49  and  O15_83 
REMARK       I    between atoms: C50_50  and  C51_51 
REMARK       I    between atoms: C50_50  and  O14_82 
REMARK       I    between atoms: C51_51  and  N5_93 
REMARK       I    between atoms: C52_52  and  C53_53 
REMARK       I    between atoms: C52_52  and  N5_93 
REMARK       I    between atoms: C53_53  and  C54_54 
REMARK       I    between atoms: C57_57  and  C60_60 
REMARK       I    between atoms: C66_66  and  N6_94 
REMARK       I    between atoms: C68_68  and  O19_87 
ROOT
HETATM    1  C1  UNL     1     -14.252   2.658  -1.935  1.00  0.00     0.117 C 
HETATM    2  C2  UNL     1     -13.136   2.204  -1.032  1.00  0.00     0.214 C 
HETATM    3  C3  UNL     1     -10.834   2.793  -0.235  1.00  0.00     0.145 C 
HETATM    4  C4  UNL     1      -9.715   3.735  -0.709  1.00  0.00     0.149 C 
HETATM    5  C5  UNL     1      -8.474   3.496   0.128  1.00  0.00     0.114 C 
HETATM    6  C6  UNL     1      -7.936   2.076  -0.119  1.00  0.00     0.255 C 
HETATM    7  C7  UNL     1     -10.298   1.340  -0.095  1.00  0.00     0.182 C 
HETATM    8  C8  UNL     1     -10.529   0.780   1.337  1.00  0.00     0.179 C 
HETATM    9  C9  UNL     1     -10.339  -0.747   1.506  1.00  0.00     0.167 C 
HETATM   10  C10 UNL     1     -11.193  -1.589   0.544  1.00  0.00     0.157 C 
HETATM   11  C11 UNL     1     -13.377  -1.905   1.645  1.00  0.00     0.221 C 
HETATM   12  C12 UNL     1     -14.812  -1.412   1.703  1.00  0.00     0.141 C 
HETATM   13  C13 UNL     1     -15.616  -1.752   0.471  1.00  0.00    -0.049 A 
HETATM   14  C14 UNL     1     -16.120  -0.740  -0.353  1.00  0.00     0.008 A 
HETATM   15  C15 UNL     1     -16.861  -1.058  -1.495  1.00  0.00     0.013 A 
HETATM   16  C16 UNL     1     -17.120  -2.393  -1.844  1.00  0.00    -0.026 A 
HETATM   17  C17 UNL     1     -16.614  -3.400  -1.008  1.00  0.00     0.013 A 
HETATM   18  C18 UNL     1     -15.873  -3.086   0.136  1.00  0.00     0.008 A 
HETATM   19  C19 UNL     1     -17.898  -2.725  -3.049  1.00  0.00    -0.026 A 
HETATM   20  C20 UNL     1     -19.173  -2.176  -3.262  1.00  0.00     0.012 A 
HETATM   21  C21 UNL     1     -19.912  -2.491  -4.406  1.00  0.00     0.001 A 
HETATM   22  C22 UNL     1     -19.386  -3.361  -5.358  1.00  0.00     0.000 A 
HETATM   23  C23 UNL     1     -18.123  -3.916  -5.167  1.00  0.00     0.001 A 
HETATM   24  C24 UNL     1     -17.386  -3.601  -4.021  1.00  0.00     0.012 A 
HETATM   25  C25 UNL     1      -6.952   2.111  -1.335  1.00  0.00     0.205 C 
HETATM   26  C26 UNL     1      -6.202   2.212   1.560  1.00  0.00     0.172 C 
HETATM   27  C27 UNL     1      -5.700   1.438   2.776  1.00  0.00     0.036 C 
HETATM   28  C28 UNL     1      -4.429   2.063   3.336  1.00  0.00     0.076 C 
HETATM   29  C29 UNL     1      -3.557  -0.443   4.338  1.00  0.00     0.093 C 
HETATM   30  C30 UNL     1      -2.513  -0.570   3.230  1.00  0.00     0.133 C 
HETATM   31  C31 UNL     1      -0.149  -0.077   2.768  1.00  0.00     0.251 C 
HETATM   32  C32 UNL     1       1.040   0.752   3.111  1.00  0.00     0.032 A 
HETATM   33  C33 UNL     1       1.270   1.228   4.409  1.00  0.00     0.018 A 
HETATM   34  C34 UNL     1       2.407   1.996   4.680  1.00  0.00     0.018 A 
HETATM   35  C35 UNL     1       3.331   2.279   3.666  1.00  0.00     0.032 A 
HETATM   36  C36 UNL     1       3.098   1.808   2.369  1.00  0.00     0.018 A 
HETATM   37  C37 UNL     1       1.962   1.040   2.096  1.00  0.00     0.018 A 
HETATM   38  C38 UNL     1       4.529   3.095   4.003  1.00  0.00     0.251 C 
HETATM   39  C39 UNL     1       6.935   3.432   3.674  1.00  0.00     0.133 C 
HETATM   40  C40 UNL     1       8.028   3.349   2.607  1.00  0.00     0.093 C 
HETATM   41  C41 UNL     1       6.491   4.779   0.654  1.00  0.00     0.076 C 
HETATM   42  C42 UNL     1       6.371   3.918  -0.603  1.00  0.00     0.036 C 
HETATM   43  C43 UNL     1       6.508   2.426  -0.346  1.00  0.00     0.172 C 
HETATM   44  C44 UNL     1       6.264   0.288  -1.428  1.00  0.00     0.255 C 
HETATM   45  C45 UNL     1       5.516  -0.389  -0.260  1.00  0.00     0.114 C 
HETATM   46  C46 UNL     1       6.352  -0.716   0.978  1.00  0.00     0.149 C 
HETATM   47  C47 UNL     1       7.863  -0.928   0.718  1.00  0.00     0.145 C 
HETATM   48  C48 UNL     1       8.110  -1.142  -0.782  1.00  0.00     0.182 C 
HETATM   49  C49 UNL     1       9.618  -1.285  -1.114  1.00  0.00     0.179 C 
HETATM   50  C50 UNL     1       9.811  -1.922  -2.504  1.00  0.00     0.167 C 
HETATM   51  C51 UNL     1      11.263  -1.852  -3.023  1.00  0.00     0.157 C 
HETATM   52  C52 UNL     1      12.458  -3.616  -1.730  1.00  0.00     0.221 C 
HETATM   53  C53 UNL     1      13.604  -3.895  -0.772  1.00  0.00     0.141 C 
HETATM   54  C54 UNL     1      14.894  -3.191  -1.121  1.00  0.00    -0.049 A 
HETATM   55  C55 UNL     1      15.393  -2.169  -0.307  1.00  0.00     0.008 A 
HETATM   56  C56 UNL     1      16.579  -1.510  -0.645  1.00  0.00     0.013 A 
HETATM   57  C57 UNL     1      17.297  -1.853  -1.802  1.00  0.00    -0.026 A 
HETATM   58  C58 UNL     1      16.788  -2.882  -2.609  1.00  0.00     0.013 A 
HETATM   59  C59 UNL     1      15.604  -3.545  -2.275  1.00  0.00     0.008 A 
HETATM   60  C60 UNL     1      18.544  -1.156  -2.157  1.00  0.00    -0.026 A 
HETATM   61  C61 UNL     1      18.712  -0.570  -3.423  1.00  0.00     0.012 A 
HETATM   62  C62 UNL     1      19.895   0.093  -3.760  1.00  0.00     0.001 A 
HETATM   63  C63 UNL     1      20.933   0.181  -2.835  1.00  0.00     0.000 A 
HETATM   64  C64 UNL     1      20.788  -0.393  -1.575  1.00  0.00     0.001 A 
HETATM   65  C65 UNL     1      19.604  -1.055  -1.239  1.00  0.00     0.012 A 
HETATM   66  C66 UNL     1       8.454  -1.891   2.923  1.00  0.00     0.214 C 
HETATM   67  C67 UNL     1       9.002  -3.096   3.635  1.00  0.00     0.117 C 
HETATM   68  C68 UNL     1       5.652  -0.252  -2.757  1.00  0.00     0.205 C 
HETATM   69  O1  UNL     1     -13.272   1.259  -0.260  1.00  0.00    -0.274 OA
HETATM   70  O2  UNL     1      -8.963   1.183  -0.593  1.00  0.00    -0.336 OA
HETATM   71  O3  UNL     1     -12.931  -2.731   2.437  1.00  0.00    -0.273 OA
HETATM   72  O4  UNL     1      -8.953  -1.085   1.364  1.00  0.00    -0.391 OA
HETATM   73  O5  UNL     1      -9.677   1.451   2.277  1.00  0.00    -0.390 OA
HETATM   74  O6  UNL     1      -6.856   3.007  -2.165  1.00  0.00    -0.646 OA
HETATM   75  O7  UNL     1      -6.161   1.019  -1.439  1.00  0.00    -0.772 OA
HETATM   76  O8  UNL     1      -7.355   1.535   1.066  1.00  0.00    -0.346 OA
HETATM   77  O9  UNL     1      -0.124  -0.820   1.793  1.00  0.00    -0.268 OA
HETATM   78  O10 UNL     1       4.476   3.905   4.921  1.00  0.00    -0.268 OA
HETATM   79  O11 UNL     1       6.046   1.708  -1.484  1.00  0.00    -0.346 OA
HETATM   80  O12 UNL     1       7.669   0.040  -1.469  1.00  0.00    -0.336 OA
HETATM   81  O13 UNL     1      11.687  -4.499  -2.103  1.00  0.00    -0.273 OA
HETATM   82  O14 UNL     1       9.328  -3.274  -2.456  1.00  0.00    -0.391 OA
HETATM   83  O15 UNL     1      10.244   0.003  -1.045  1.00  0.00    -0.390 OA
HETATM   84  O16 UNL     1       8.068  -0.886   3.515  1.00  0.00    -0.274 OA
HETATM   85  O17 UNL     1       6.165   0.281   1.997  1.00  0.00    -0.393 OA
HETATM   86  O18 UNL     1       6.230  -0.891  -3.625  1.00  0.00    -0.646 OA
HETATM   87  O19 UNL     1       4.333   0.023  -2.902  1.00  0.00    -0.772 OA
HETATM   88  O20 UNL     1     -10.157   5.091  -0.576  1.00  0.00    -0.393 OA
HETATM   89  N1  UNL     1     -11.974   2.927  -1.166  1.00  0.00    -0.352 N 
HETATM   90  N2  UNL     1     -12.611  -1.326   0.658  1.00  0.00    -0.358 N 
HETATM   91  N3  UNL     1      -1.258   0.074   3.573  1.00  0.00    -0.356 N 
HETATM   92  N4  UNL     1       5.669   2.849   3.261  1.00  0.00    -0.356 N 
HETATM   93  N5  UNL     1      12.274  -2.300  -2.076  1.00  0.00    -0.358 N 
HETATM   94  N6  UNL     1       8.379  -2.017   1.554  1.00  0.00    -0.352 N 
HETATM   95  S1  UNL     1      -3.860   1.283   4.886  1.00  0.00    -0.167 SA
HETATM   96  S2  UNL     1       8.137   4.762   1.440  1.00  0.00    -0.167 SA
HETATM   97  H71 UNL     1      -8.863  -2.023   1.608  1.00  0.00     0.210 HD
HETATM   98  H72 UNL     1      -8.791   1.047   2.125  1.00  0.00     0.210 HD
HETATM   99  H73 UNL     1      -5.668   1.143  -2.274  1.00  0.00     0.167 HD
HETATM  100  H74 UNL     1      10.110  -3.871  -2.433  1.00  0.00     0.210 HD
HETATM  101  H75 UNL     1       9.608   0.626  -1.455  1.00  0.00     0.210 HD
HETATM  102  H76 UNL     1       6.723  -0.023   2.756  1.00  0.00     0.210 HD
HETATM  103  H77 UNL     1       4.117  -0.329  -3.791  1.00  0.00     0.167 HD
HETATM  104  H78 UNL     1      -9.436   5.665  -0.893  1.00  0.00     0.210 HD
HETATM  105  H79 UNL     1     -12.071   3.860  -1.555  1.00  0.00     0.163 HD
HETATM  106  H80 UNL     1     -13.002  -0.520   0.162  1.00  0.00     0.162 HD
HETATM  107  H81 UNL     1      -1.320   0.894   4.165  1.00  0.00     0.162 HD
HETATM  108  H82 UNL     1       5.710   1.949   2.781  1.00  0.00     0.162 HD
HETATM  109  H83 UNL     1      12.944  -1.610  -1.755  1.00  0.00     0.162 HD
HETATM  110  H84 UNL     1       8.522  -2.934   1.143  1.00  0.00     0.163 HD
ENDROOT
TORSDOF 44
