REMARK  18 active torsions:
REMARK  status: ('A' for Active; 'I' for Inactive)
REMARK    1  A    between atoms: C3_3  and  C35_35 
REMARK    2  A    between atoms: C5_5  and  N2_47 
REMARK    3  A    between atoms: C6_6  and  C7_7 
REMARK       I    between atoms: C6_6  and  N2_47 
REMARK    4  A    between atoms: C9_9  and  N4_49 
REMARK       I    between atoms: C11_11  and  N4_49 
REMARK       I    between atoms: C11_11  and  N5_50 
REMARK    5  A    between atoms: C12_12  and  N5_50 
REMARK    6  A    between atoms: C14_14  and  C17_17 
REMARK       I    between atoms: C17_17  and  N7_52 
REMARK    7  A    between atoms: C18_18  and  N7_52 
REMARK    8  A    between atoms: C20_20  and  C23_23 
REMARK       I    between atoms: C23_23  and  N9_54 
REMARK    9  A    between atoms: C24_24  and  N9_54 
REMARK   10  A    between atoms: C26_26  and  S2_74 
REMARK   11  A    between atoms: C30_30  and  S1_73 
REMARK       I    between atoms: C35_35  and  N10_55 
REMARK   12  A    between atoms: C36_36  and  N10_55 
REMARK   13  A    between atoms: C38_38  and  S4_76 
REMARK   14  A    between atoms: C42_42  and  S3_75 
REMARK   15  A    between atoms: O7_62  and  S1_73 
REMARK   16  A    between atoms: O10_65  and  S2_74 
REMARK   17  A    between atoms: O14_69  and  S3_75 
REMARK   18  A    between atoms: O17_72  and  S4_76 
ROOT
HETATM    1  C11 UNL     1      -0.308   0.380  -0.556  1.00  0.00     0.327 C 
HETATM    2  N4  UNL     1      -1.269   1.194  -1.148  1.00  0.00    -0.294 N 
HETATM    3  N5  UNL     1       0.926   0.606  -1.159  1.00  0.00    -0.294 N 
HETATM    4  O2  UNL     1      -0.508  -0.409   0.358  1.00  0.00    -0.247 OA
HETATM    5  H32 UNL     1      -1.030   1.588  -2.045  1.00  0.00     0.172 HD
HETATM    6  H33 UNL     1       1.088   1.569  -1.417  1.00  0.00     0.172 HD
ENDROOT
BRANCH   2   7
HETATM    7  C9  UNL     1      -2.575   1.287  -0.698  1.00  0.00     0.111 A 
HETATM    8  C10 UNL     1      -3.176   0.805   0.448  1.00  0.00     0.067 A 
HETATM    9  C7  UNL     1      -4.555   1.176   0.444  1.00  0.00     0.051 A 
HETATM   10  C8  UNL     1      -4.744   1.901  -0.721  1.00  0.00     0.109 A 
HETATM   11  N3  UNL     1      -3.549   1.964  -1.398  1.00  0.00    -0.346 N 
HETATM   12  C34 UNL     1      -3.371   2.652  -2.658  1.00  0.00     0.157 C 
BRANCH   9  13
HETATM   13  C6  UNL     1      -5.535   0.865   1.493  1.00  0.00     0.258 C 
HETATM   14  N2  UNL     1      -6.847   1.052   1.098  1.00  0.00    -0.309 N 
HETATM   15  H31 UNL     1      -6.999   1.110   0.101  1.00  0.00     0.170 HD
HETATM   16  O1  UNL     1      -5.167   0.436   2.580  1.00  0.00    -0.267 OA
BRANCH  14  17
HETATM   17  C5  UNL     1      -7.977   0.863   1.877  1.00  0.00     0.110 A 
HETATM   18  C4  UNL     1      -9.244   0.617   1.371  1.00  0.00     0.067 A 
HETATM   19  C3  UNL     1     -10.154   0.439   2.454  1.00  0.00     0.051 A 
HETATM   20  C2  UNL     1      -9.402   0.644   3.596  1.00  0.00     0.109 A 
HETATM   21  N1  UNL     1      -8.102   0.930   3.248  1.00  0.00    -0.346 N 
HETATM   22  C1  UNL     1      -7.137   1.380   4.229  1.00  0.00     0.157 C 
BRANCH  19  23
HETATM   23  C35 UNL     1     -11.590   0.134   2.465  1.00  0.00     0.257 C 
HETATM   24  N10 UNL     1     -12.071  -0.330   1.253  1.00  0.00    -0.323 N 
HETATM   25  H36 UNL     1     -11.386  -0.460   0.524  1.00  0.00     0.169 HD
HETATM   26  O11 UNL     1     -12.258   0.288   3.481  1.00  0.00    -0.267 OA
BRANCH  24  27
HETATM   27  C36 UNL     1     -13.397  -0.685   0.926  1.00  0.00     0.037 A 
HETATM   28  C37 UNL     1     -14.467  -0.614   1.811  1.00  0.00     0.055 A 
HETATM   29  C38 UNL     1     -15.759  -0.970   1.389  1.00  0.00     0.085 A 
HETATM   30  C39 UNL     1     -16.022  -1.412   0.065  1.00  0.00    -0.002 A 
HETATM   31  C40 UNL     1     -17.298  -1.780  -0.442  1.00  0.00     0.015 A 
HETATM   32  C44 UNL     1     -14.919  -1.490  -0.820  1.00  0.00    -0.021 A 
HETATM   33  C41 UNL     1     -17.475  -2.207  -1.760  1.00  0.00     0.026 A 
HETATM   34  C42 UNL     1     -16.373  -2.277  -2.602  1.00  0.00     0.073 A 
HETATM   35  C43 UNL     1     -15.103  -1.925  -2.142  1.00  0.00     0.037 A 
HETATM   36  C45 UNL     1     -13.633  -1.128  -0.380  1.00  0.00     0.042 A 
BRANCH  29  37
HETATM   37  S4  UNL     1     -17.081  -0.854   2.570  1.00  0.00     0.130 S 
HETATM   38  O15 UNL     1     -17.601  -2.186   2.781  1.00  0.00    -0.598 OA
HETATM   39  O16 UNL     1     -17.929   0.246   2.162  1.00  0.00    -0.598 OA
BRANCH  37  40
HETATM   40  O17 UNL     1     -16.415  -0.374   3.957  1.00  0.00    -0.292 OA
HETATM   41  H40 UNL     1     -16.830   0.477   4.212  1.00  0.00     0.232 HD
ENDBRANCH  37  40
ENDBRANCH  29  37
BRANCH  34  42
HETATM   42  S3  UNL     1     -16.552  -2.834  -4.272  1.00  0.00     0.129 S 
HETATM   43  O12 UNL     1     -16.147  -1.751  -5.139  1.00  0.00    -0.598 OA
HETATM   44  O13 UNL     1     -17.833  -3.492  -4.405  1.00  0.00    -0.598 OA
BRANCH  42  45
HETATM   45  O14 UNL     1     -15.462  -4.016  -4.409  1.00  0.00    -0.292 OA
HETATM   46  H39 UNL     1     -15.949  -4.834  -4.649  1.00  0.00     0.232 HD
ENDBRANCH  42  45
ENDBRANCH  34  42
ENDBRANCH  24  27
ENDBRANCH  19  23
ENDBRANCH  14  17
ENDBRANCH   9  13
ENDBRANCH   2   7
BRANCH   3  47
HETATM   47  C12 UNL     1       2.063  -0.148  -0.912  1.00  0.00     0.111 A 
HETATM   48  C13 UNL     1       3.364   0.322  -0.968  1.00  0.00     0.067 A 
HETATM   49  C14 UNL     1       4.256  -0.746  -0.654  1.00  0.00     0.051 A 
HETATM   50  C15 UNL     1       3.451  -1.855  -0.472  1.00  0.00     0.109 A 
HETATM   51  N6  UNL     1       2.134  -1.498  -0.645  1.00  0.00    -0.346 N 
HETATM   52  C16 UNL     1       1.072  -2.482  -0.674  1.00  0.00     0.157 C 
BRANCH  49  53
HETATM   53  C17 UNL     1       5.720  -0.767  -0.559  1.00  0.00     0.258 C 
HETATM   54  N7  UNL     1       6.266   0.483  -0.314  1.00  0.00    -0.309 N 
HETATM   55  H34 UNL     1       5.626   1.236  -0.116  1.00  0.00     0.170 HD
HETATM   56  O3  UNL     1       6.342  -1.818  -0.665  1.00  0.00    -0.267 OA
BRANCH  54  57
HETATM   57  C18 UNL     1       7.628   0.723  -0.228  1.00  0.00     0.110 A 
HETATM   58  C19 UNL     1       8.713  -0.101  -0.449  1.00  0.00     0.067 A 
HETATM   59  C20 UNL     1       9.916   0.635  -0.223  1.00  0.00     0.051 A 
HETATM   60  C21 UNL     1       9.510   1.914   0.125  1.00  0.00     0.109 A 
HETATM   61  N8  UNL     1       8.135   1.955   0.119  1.00  0.00    -0.346 N 
HETATM   62  C22 UNL     1       7.362   3.137   0.436  1.00  0.00     0.157 C 
BRANCH  59  63
HETATM   63  C23 UNL     1      11.281   0.112  -0.369  1.00  0.00     0.257 C 
HETATM   64  N9  UNL     1      12.258   0.923   0.182  1.00  0.00    -0.323 N 
HETATM   65  H35 UNL     1      11.926   1.733   0.685  1.00  0.00     0.169 HD
HETATM   66  O4  UNL     1      11.480  -0.963  -0.922  1.00  0.00    -0.267 OA
BRANCH  64  67
HETATM   67  C24 UNL     1      13.655   0.724   0.173  1.00  0.00     0.037 A 
HETATM   68  C25 UNL     1      14.434   1.653   0.860  1.00  0.00     0.055 A 
HETATM   69  C26 UNL     1      15.833   1.527   0.889  1.00  0.00     0.085 A 
HETATM   70  C27 UNL     1      16.502   0.472   0.217  1.00  0.00    -0.002 A 
HETATM   71  C28 UNL     1      17.910   0.286   0.173  1.00  0.00     0.015 A 
HETATM   72  C32 UNL     1      15.694  -0.467  -0.473  1.00  0.00    -0.021 A 
HETATM   73  C29 UNL     1      18.490  -0.785  -0.511  1.00  0.00     0.026 A 
HETATM   74  C30 UNL     1      17.672  -1.698  -1.164  1.00  0.00     0.073 A 
HETATM   75  C31 UNL     1      16.286  -1.541  -1.156  1.00  0.00     0.037 A 
HETATM   76  C33 UNL     1      14.293  -0.328  -0.484  1.00  0.00     0.042 A 
BRANCH  69  77
HETATM   77  S2  UNL     1      16.748   2.735   1.812  1.00  0.00     0.130 S 
HETATM   78  O8  UNL     1      17.341   3.653   0.868  1.00  0.00    -0.598 OA
HETATM   79  O9  UNL     1      17.532   2.046   2.813  1.00  0.00    -0.598 OA
BRANCH  77  80
HETATM   80  O10 UNL     1      15.654   3.566   2.661  1.00  0.00    -0.292 OA
HETATM   81  H38 UNL     1      16.028   3.693   3.560  1.00  0.00     0.232 HD
ENDBRANCH  77  80
ENDBRANCH  69  77
BRANCH  74  82
HETATM   82  S1  UNL     1      18.400  -3.044  -2.051  1.00  0.00     0.129 S 
HETATM   83  O5  UNL     1      18.303  -4.224  -1.222  1.00  0.00    -0.598 OA
HETATM   84  O6  UNL     1      19.664  -2.599  -2.595  1.00  0.00    -0.598 OA
BRANCH  82  85
HETATM   85  O7  UNL     1      17.421  -3.302  -3.308  1.00  0.00    -0.292 OA
HETATM   86  H37 UNL     1      17.488  -4.250  -3.548  1.00  0.00     0.232 HD
ENDBRANCH  82  85
ENDBRANCH  74  82
ENDBRANCH  64  67
ENDBRANCH  59  63
ENDBRANCH  54  57
ENDBRANCH  49  53
ENDBRANCH   3  47
TORSDOF 18
