REMARK  19 active torsions:
REMARK  status: ('A' for Active; 'I' for Inactive)
REMARK    1  A    between atoms: C2_2  and  C3_3 
REMARK       I    between atoms: C2_2  and  N1_52 
REMARK    2  A    between atoms: C5_5  and  N3_54 
REMARK    3  A    between atoms: C8_8  and  C9_9 
REMARK       I    between atoms: C8_8  and  N3_54 
REMARK    4  A    between atoms: C15_15  and  C16_16 
REMARK    5  A    between atoms: C17_17  and  N8_61 
REMARK    6  A    between atoms: C20_20  and  C21_21 
REMARK       I    between atoms: C20_20  and  N8_61 
REMARK    7  A    between atoms: C23_23  and  N10_63 
REMARK    8  A    between atoms: C26_26  and  C27_27 
REMARK       I    between atoms: C26_26  and  N10_63 
REMARK    9  A    between atoms: C27_27  and  C28_28 
REMARK   10  A    between atoms: C27_27  and  N21_76 
REMARK   11  A    between atoms: C28_28  and  C29_29 
REMARK   12  A    between atoms: C29_29  and  N11_64 
REMARK   13  A    between atoms: C30_30  and  C31_31 
REMARK       I    between atoms: C30_30  and  N11_64 
REMARK   14  A    between atoms: C33_33  and  N13_66 
REMARK   15  A    between atoms: C36_36  and  C37_37 
REMARK       I    between atoms: C36_36  and  N13_66 
REMARK   16  A    between atoms: C39_39  and  N15_68 
REMARK   17  A    between atoms: C42_42  and  C43_43 
REMARK       I    between atoms: C42_42  and  N15_68 
REMARK   18  A    between atoms: C44_44  and  N18_72 
REMARK   19  A    between atoms: C47_47  and  C48_48 
REMARK       I    between atoms: C47_47  and  N18_72 
ROOT
HETATM    1  C27 UNL     1       0.307  -4.189  -6.116  1.00  0.00     0.310 C 
ENDROOT
BRANCH   1   2
HETATM    2  C26 UNL     1      -1.065  -3.483  -6.007  1.00  0.00     0.255 C 
HETATM    3  N10 UNL     1      -1.299  -2.982  -4.736  1.00  0.00    -0.324 N 
HETATM    4  H49 UNL     1      -0.603  -3.166  -4.011  1.00  0.00     0.169 HD
HETATM    5  O4  UNL     1      -1.810  -3.388  -6.981  1.00  0.00    -0.271 OA
BRANCH   3   6
HETATM    6  C23 UNL     1      -2.426  -2.293  -4.334  1.00  0.00     0.052 A 
HETATM    7  C22 UNL     1      -2.656  -1.807  -3.024  1.00  0.00     0.066 A 
HETATM    8  C21 UNL     1      -3.890  -1.163  -2.990  1.00  0.00     0.105 A 
HETATM    9  N9  UNL     1      -4.410  -1.287  -4.268  1.00  0.00    -0.354 N 
HETATM   10  C24 UNL     1      -3.524  -1.948  -5.080  1.00  0.00     0.120 A 
HETATM   11  C25 UNL     1      -5.691  -0.780  -4.718  1.00  0.00     0.156 C 
BRANCH   8  12
HETATM   12  C20 UNL     1      -4.574  -0.500  -1.880  1.00  0.00     0.274 C 
HETATM   13  N8  UNL     1      -3.721  -0.132  -0.859  1.00  0.00    -0.306 N 
HETATM   14  H48 UNL     1      -2.732  -0.268  -0.980  1.00  0.00     0.170 HD
HETATM   15  O3  UNL     1      -5.782  -0.288  -1.904  1.00  0.00    -0.266 OA
BRANCH  13  16
HETATM   16  C17 UNL     1      -4.113   0.485   0.302  1.00  0.00     0.125 A 
HETATM   17  C18 UNL     1      -3.258   0.897   1.298  1.00  0.00     0.140 A 
HETATM   18  N7  UNL     1      -4.069   1.452   2.255  1.00  0.00    -0.341 N 
HETATM   19  C16 UNL     1      -5.362   1.352   1.808  1.00  0.00     0.153 A 
HETATM   20  C19 UNL     1      -3.629   2.035   3.498  1.00  0.00     0.157 C 
HETATM   21  N6  UNL     1      -5.404   0.766   0.628  1.00  0.00    -0.324 N 
ATOM     22  H6  UNL     1      -6.235   0.564   0.072  1.00  0.00     0.169 HD
BRANCH  19  23
HETATM   23  C15 UNL     1      -6.531   1.803   2.486  1.00  0.00     0.151 A 
HETATM   24  N4  UNL     1      -6.598   2.374   3.671  1.00  0.00    -0.338 N 
HETATM   25  C12 UNL     1      -7.935   2.619   3.875  1.00  0.00     0.060 A 
ATOM     26  H4  UNL     1      -5.825   2.588   4.301  1.00  0.00     0.167 HD
HETATM   27  C11 UNL     1      -8.697   2.181   2.796  1.00  0.00     0.061 A 
HETATM   28  C13 UNL     1      -8.576   3.223   4.966  1.00  0.00     0.033 A 
HETATM   29  C10 UNL     1     -10.089   2.301   2.734  1.00  0.00     0.049 A 
HETATM   30  N5  UNL     1      -7.773   1.672   1.921  1.00  0.00    -0.337 N 
HETATM   31  C9  UNL     1     -10.719   2.894   3.843  1.00  0.00     0.034 A 
HETATM   32  C14 UNL     1      -9.971   3.360   4.935  1.00  0.00     0.019 A 
HETATM   33  H47 UNL     1      -7.935   1.261   1.011  1.00  0.00     0.167 HD
BRANCH  31  34
HETATM   34  C8  UNL     1     -12.200   3.075   3.882  1.00  0.00     0.256 C 
HETATM   35  N3  UNL     1     -12.923   2.044   3.310  1.00  0.00    -0.322 N 
HETATM   36  H46 UNL     1     -12.435   1.216   2.997  1.00  0.00     0.169 HD
HETATM   37  O2  UNL     1     -12.650   4.075   4.429  1.00  0.00    -0.267 OA
BRANCH  35  38
HETATM   38  C5  UNL     1     -14.300   2.003   3.189  1.00  0.00     0.053 A 
HETATM   39  C4  UNL     1     -15.038   0.921   2.654  1.00  0.00     0.066 A 
HETATM   40  C3  UNL     1     -16.391   1.229   2.717  1.00  0.00     0.104 A 
HETATM   41  N2  UNL     1     -16.467   2.519   3.204  1.00  0.00    -0.354 N 
HETATM   42  C6  UNL     1     -15.213   2.970   3.530  1.00  0.00     0.120 A 
HETATM   43  C7  UNL     1     -17.655   3.342   3.284  1.00  0.00     0.156 C 
BRANCH  40  44
HETATM   44  C2  UNL     1     -17.482   0.375   2.294  1.00  0.00     0.268 C 
HETATM   45  N1  UNL     1     -18.595   0.426   3.108  1.00  0.00    -0.360 N 
HETATM   46  C1  UNL     1     -19.686  -0.492   2.905  1.00  0.00     0.149 C 
HETATM   47  H45 UNL     1     -18.454   0.790   4.040  1.00  0.00     0.162 HD
HETATM   48  O1  UNL     1     -17.405  -0.383   1.332  1.00  0.00    -0.266 OA
ENDBRANCH  40  44
ENDBRANCH  35  38
ENDBRANCH  31  34
ENDBRANCH  19  23
ENDBRANCH  13  16
ENDBRANCH   8  12
ENDBRANCH   3   6
ENDBRANCH   1   2
BRANCH   1  49
HETATM   49  C28 UNL     1       0.338  -5.460  -5.259  1.00  0.00     0.065 C 
BRANCH  49  50
HETATM   50  C29 UNL     1       1.737  -5.830  -4.773  1.00  0.00     0.125 C 
BRANCH  50  51
HETATM   51  N11 UNL     1       2.477  -4.815  -4.036  1.00  0.00    -0.356 N 
HETATM   52  C30 UNL     1       1.953  -3.969  -3.084  1.00  0.00     0.268 C 
HETATM   53  O5  UNL     1       0.743  -3.831  -2.919  1.00  0.00    -0.266 OA
HETATM   54  H50 UNL     1       3.480  -4.942  -4.022  1.00  0.00     0.162 HD
BRANCH  52  55
HETATM   55  C31 UNL     1       2.942  -3.238  -2.308  1.00  0.00     0.104 A 
HETATM   56  C32 UNL     1       4.289  -3.011  -2.575  1.00  0.00     0.066 A 
HETATM   57  C33 UNL     1       4.842  -2.241  -1.527  1.00  0.00     0.053 A 
HETATM   58  C34 UNL     1       3.825  -1.996  -0.636  1.00  0.00     0.120 A 
HETATM   59  N12 UNL     1       2.684  -2.593  -1.111  1.00  0.00    -0.354 N 
HETATM   60  C35 UNL     1       1.411  -2.565  -0.421  1.00  0.00     0.156 C 
BRANCH  57  61
HETATM   61  N13 UNL     1       6.128  -1.772  -1.339  1.00  0.00    -0.320 N 
HETATM   62  C36 UNL     1       7.193  -1.988  -2.196  1.00  0.00     0.273 C 
HETATM   63  O6  UNL     1       7.110  -2.628  -3.242  1.00  0.00    -0.266 OA
HETATM   64  H51 UNL     1       6.280  -1.218  -0.510  1.00  0.00     0.169 HD
BRANCH  62  65
HETATM   65  C37 UNL     1       8.449  -1.380  -1.759  1.00  0.00     0.105 A 
HETATM   66  C38 UNL     1       8.773  -0.757  -0.555  1.00  0.00     0.066 A 
HETATM   67  C39 UNL     1      10.119  -0.328  -0.605  1.00  0.00     0.053 A 
HETATM   68  C40 UNL     1      10.608  -0.698  -1.834  1.00  0.00     0.120 A 
HETATM   69  N14 UNL     1       9.605  -1.333  -2.523  1.00  0.00    -0.354 N 
HETATM   70  C41 UNL     1       9.762  -1.858  -3.864  1.00  0.00     0.156 C 
BRANCH  67  71
HETATM   71  N15 UNL     1      10.879   0.331   0.334  1.00  0.00    -0.319 N 
HETATM   72  C42 UNL     1      10.456   0.738   1.585  1.00  0.00     0.290 C 
HETATM   73  O7  UNL     1       9.330   0.575   2.047  1.00  0.00    -0.264 OA
HETATM   74  H52 UNL     1      11.847   0.551   0.108  1.00  0.00     0.169 HD
BRANCH  72  75
HETATM   75  C43 UNL     1      11.528   1.404   2.313  1.00  0.00     0.178 A 
HETATM   76  N16 UNL     1      12.736   1.577   1.797  1.00  0.00    -0.323 N 
HETATM   77  C44 UNL     1      13.464   2.226   2.747  1.00  0.00     0.125 A 
ATOM     78  H16 UNL     1      13.056   1.283   0.874  1.00  0.00     0.169 HD
HETATM   79  C45 UNL     1      12.705   2.461   3.867  1.00  0.00     0.140 A 
HETATM   80  N17 UNL     1      11.475   1.934   3.580  1.00  0.00    -0.339 N 
HETATM   81  C46 UNL     1      10.330   1.937   4.458  1.00  0.00     0.157 C 
BRANCH  77  82
HETATM   82  N18 UNL     1      14.772   2.590   2.597  1.00  0.00    -0.305 N 
HETATM   83  C47 UNL     1      15.543   2.360   1.479  1.00  0.00     0.291 C 
HETATM   84  O8  UNL     1      15.185   1.797   0.448  1.00  0.00    -0.264 OA
HETATM   85  H53 UNL     1      15.234   3.071   3.361  1.00  0.00     0.170 HD
BRANCH  83  86
HETATM   86  C48 UNL     1      16.894   2.882   1.663  1.00  0.00     0.176 A 
HETATM   87  N19 UNL     1      17.284   3.491   2.778  1.00  0.00    -0.346 N 
HETATM   88  C49 UNL     1      18.595   3.834   2.576  1.00  0.00     0.107 A 
ATOM     89  H19 UNL     1      16.723   3.667   3.612  1.00  0.00     0.167 HD
HETATM   90  C50 UNL     1      19.018   3.435   1.331  1.00  0.00     0.109 A 
HETATM   91  N20 UNL     1      17.931   2.833   0.760  1.00  0.00    -0.342 N 
HETATM   92  C51 UNL     1      17.888   2.249  -0.559  1.00  0.00     0.157 C 
ENDBRANCH  83  86
ENDBRANCH  77  82
ENDBRANCH  72  75
ENDBRANCH  67  71
ENDBRANCH  62  65
ENDBRANCH  57  61
ENDBRANCH  52  55
ENDBRANCH  50  51
ENDBRANCH  49  50
ENDBRANCH   1  49
BRANCH   1  93
HETATM   93  N21 UNL     1       0.611  -4.518  -7.530  1.00  0.00     0.092 N 
HETATM   94  H54 UNL     1      -0.199  -5.028  -7.898  1.00  0.00     0.313 HD
HETATM   95  H55 UNL     1       0.576  -3.641  -8.057  1.00  0.00     0.313 HD
ENDBRANCH   1  93
TORSDOF 19
