REMARK  0 active torsions:
REMARK  status: ('A' for Active; 'I' for Inactive)
REMARK       I    between atoms: C2_2  and  C3_3 
REMARK       I    between atoms: C3_3  and  C5_5 
REMARK       I    between atoms: C5_5  and  C6_6 
REMARK       I    between atoms: C5_5  and  N3_85 
REMARK       I    between atoms: C6_6  and  C7_7 
REMARK       I    between atoms: C6_6  and  O5_72 
REMARK       I    between atoms: C7_7  and  C8_8 
REMARK       I    between atoms: C8_8  and  N1_83 
REMARK       I    between atoms: C12_12  and  C13_13 
REMARK       I    between atoms: C13_13  and  C14_14 
REMARK       I    between atoms: C13_13  and  O4_71 
REMARK       I    between atoms: C17_17  and  C18_18 
REMARK       I    between atoms: C28_28  and  C29_29 
REMARK       I    between atoms: C28_28  and  N3_85 
REMARK       I    between atoms: C29_29  and  C30_30 
REMARK       I    between atoms: C29_29  and  N4_86 
REMARK       I    between atoms: C33_33  and  C34_34 
REMARK       I    between atoms: C33_33  and  N4_86 
REMARK       I    between atoms: C34_34  and  C35_35 
REMARK       I    between atoms: C34_34  and  N5_87 
REMARK       I    between atoms: C39_39  and  O9_76 
REMARK       I    between atoms: C39_39  and  N5_87 
REMARK       I    between atoms: C40_40  and  C41_41 
REMARK       I    between atoms: C40_40  and  O9_76 
REMARK       I    between atoms: C44_44  and  N6_88 
REMARK       I    between atoms: C47_47  and  C48_48 
REMARK       I    between atoms: C47_47  and  N6_88 
REMARK       I    between atoms: C48_48  and  C49_49 
REMARK       I    between atoms: C48_48  and  N9_91 
REMARK       I    between atoms: C49_49  and  C50_50 
REMARK       I    between atoms: C50_50  and  C51_51 
REMARK       I    between atoms: C51_51  and  N7_89 
REMARK       I    between atoms: C52_52  and  N7_89 
REMARK       I    between atoms: C52_52  and  N8_90 
REMARK       I    between atoms: C53_53  and  C54_54 
REMARK       I    between atoms: C53_53  and  N9_91 
REMARK       I    between atoms: C54_54  and  C55_55 
REMARK       I    between atoms: C54_54  and  N10_92 
REMARK       I    between atoms: C58_58  and  C59_59 
REMARK       I    between atoms: C58_58  and  N10_92 
REMARK       I    between atoms: C59_59  and  C60_60 
REMARK       I    between atoms: C60_60  and  C61_61 
REMARK       I    between atoms: C61_61  and  C62_62 
REMARK       I    between atoms: C62_62  and  C63_63 
REMARK       I    between atoms: C63_63  and  N11_93 
ROOT
HETATM    1  C1  UNL     1      -2.079  -1.966   5.824  1.00  0.00     0.005 C 
HETATM    2  C2  UNL     1      -2.831  -2.107   4.507  1.00  0.00     0.002 C 
HETATM    3  C3  UNL     1      -2.260  -1.236   3.361  1.00  0.00     0.006 C 
HETATM    4  C4  UNL     1      -2.268   0.247   3.746  1.00  0.00     0.012 C 
HETATM    5  C5  UNL     1      -2.985  -1.584   2.008  1.00  0.00     0.119 C 
HETATM    6  C6  UNL     1      -4.097  -0.582   1.542  1.00  0.00     0.152 C 
HETATM    7  C7  UNL     1      -4.866  -1.127   0.320  1.00  0.00     0.137 C 
HETATM    8  C8  UNL     1      -5.115  -0.066  -0.743  1.00  0.00     0.222 C 
HETATM    9  C9  UNL     1      -6.303  -1.825  -2.104  1.00  0.00     0.126 C 
HETATM   10  C10 UNL     1      -7.069  -1.732  -3.407  1.00  0.00     0.022 C 
HETATM   11  C11 UNL     1      -6.333  -0.629  -4.155  1.00  0.00     0.029 C 
HETATM   12  C12 UNL     1      -5.895   0.362  -3.065  1.00  0.00     0.119 C 
HETATM   13  C13 UNL     1      -6.776   1.639  -2.910  1.00  0.00     0.181 C 
HETATM   14  C14 UNL     1      -6.256   2.828  -3.760  1.00  0.00     0.245 C 
HETATM   15  C15 UNL     1      -6.245   2.577  -5.293  1.00  0.00     0.249 C 
HETATM   16  C16 UNL     1      -4.024   3.679  -5.360  1.00  0.00     0.114 C 
HETATM   17  C17 UNL     1      -4.354   4.258  -3.961  1.00  0.00     0.178 C 
HETATM   18  C18 UNL     1      -3.133   4.781  -3.227  1.00  0.00    -0.027 A 
HETATM   19  C19 UNL     1      -2.509   5.964  -3.659  1.00  0.00     0.010 A 
HETATM   20  C20 UNL     1      -1.365   6.442  -3.016  1.00  0.00     0.001 A 
HETATM   21  C21 UNL     1      -0.828   5.747  -1.935  1.00  0.00     0.000 A 
HETATM   22  C22 UNL     1      -1.441   4.578  -1.491  1.00  0.00     0.001 A 
HETATM   23  C23 UNL     1      -2.586   4.100  -2.128  1.00  0.00     0.010 A 
HETATM   24  C24 UNL     1      -3.010   2.530  -5.323  1.00  0.00     0.035 C 
HETATM   25  C25 UNL     1      -8.920   1.141  -2.003  1.00  0.00     0.202 C 
HETATM   26  C26 UNL     1      -5.813   0.754   2.533  1.00  0.00     0.202 C 
HETATM   27  C27 UNL     1      -1.598  -3.345   0.922  1.00  0.00     0.153 C 
HETATM   28  C28 UNL     1      -1.311  -0.943   0.253  1.00  0.00     0.243 C 
HETATM   29  C29 UNL     1      -0.362  -1.324  -0.938  1.00  0.00     0.180 C 
HETATM   30  C30 UNL     1       0.117  -0.073  -1.734  1.00  0.00     0.009 C 
HETATM   31  C31 UNL     1       1.302  -0.399  -2.648  1.00  0.00     0.012 C 
HETATM   32  C32 UNL     1      -0.977   0.624  -2.544  1.00  0.00     0.012 C 
HETATM   33  C33 UNL     1      -1.914  -2.516  -2.516  1.00  0.00     0.241 C 
HETATM   34  C34 UNL     1      -1.991  -3.710  -3.504  1.00  0.00     0.184 C 
HETATM   35  C35 UNL     1      -2.997  -3.464  -4.659  1.00  0.00     0.010 C 
HETATM   36  C36 UNL     1      -3.082  -4.683  -5.587  1.00  0.00     0.012 C 
HETATM   37  C37 UNL     1      -2.597  -2.243  -5.498  1.00  0.00     0.012 C 
HETATM   38  C38 UNL     1      -3.621  -5.046  -2.105  1.00  0.00     0.156 C 
HETATM   39  C39 UNL     1      -1.280  -5.709  -2.166  1.00  0.00     0.363 C 
HETATM   40  C40 UNL     1       1.047  -6.197  -2.255  1.00  0.00     0.219 C 
HETATM   41  C41 UNL     1       1.954  -5.178  -1.619  1.00  0.00    -0.034 A 
HETATM   42  C42 UNL     1       1.827  -4.868  -0.261  1.00  0.00     0.011 A 
HETATM   43  C43 UNL     1       2.577  -3.830   0.299  1.00  0.00     0.030 A 
HETATM   44  C44 UNL     1       3.470  -3.090  -0.485  1.00  0.00     0.034 A 
HETATM   45  C45 UNL     1       3.631  -3.432  -1.828  1.00  0.00     0.030 A 
HETATM   46  C46 UNL     1       2.870  -4.459  -2.394  1.00  0.00     0.011 A 
HETATM   47  C47 UNL     1       4.991  -1.093  -0.418  1.00  0.00     0.245 C 
HETATM   48  C48 UNL     1       5.383   0.076   0.544  1.00  0.00     0.177 C 
HETATM   49  C49 UNL     1       6.537   0.905  -0.051  1.00  0.00     0.036 C 
HETATM   50  C50 UNL     1       7.838   0.104  -0.249  1.00  0.00     0.022 C 
HETATM   51  C51 UNL     1       9.075   0.949   0.035  1.00  0.00     0.124 C 
HETATM   52  C52 UNL     1       9.809   2.307   1.944  1.00  0.00     0.291 C 
HETATM   53  C53 UNL     1       4.732  -0.623   2.862  1.00  0.00     0.241 C 
HETATM   54  C54 UNL     1       5.215  -0.612   4.332  1.00  0.00     0.180 C 
HETATM   55  C55 UNL     1       4.385  -1.559   5.232  1.00  0.00     0.009 C 
HETATM   56  C56 UNL     1       5.153  -1.874   6.521  1.00  0.00     0.012 C 
HETATM   57  C57 UNL     1       2.988  -1.042   5.593  1.00  0.00     0.012 C 
HETATM   58  C58 UNL     1       6.256   1.628   4.601  1.00  0.00     0.218 C 
HETATM   59  C59 UNL     1       5.992   3.033   5.106  1.00  0.00     0.103 C 
HETATM   60  C60 UNL     1       6.561   4.150   4.233  1.00  0.00     0.009 C 
HETATM   61  C61 UNL     1       6.261   4.104   2.728  1.00  0.00     0.002 C 
HETATM   62  C62 UNL     1       4.881   3.617   2.292  1.00  0.00     0.020 C 
HETATM   63  C63 UNL     1       3.704   4.420   2.846  1.00  0.00     0.135 C 
HETATM   64  C64 UNL     1       2.109   2.610   3.421  1.00  0.00     0.226 A 
HETATM   65  C65 UNL     1       0.791   2.085   2.942  1.00  0.00     0.112 A 
HETATM   66  C66 UNL     1       0.474   2.919   1.715  1.00  0.00     0.112 A 
HETATM   67  C67 UNL     1       1.597   3.909   1.630  1.00  0.00     0.226 A 
HETATM   68  O1  UNL     1      -4.707   1.089  -0.630  1.00  0.00    -0.273 OA
HETATM   69  O2  UNL     1      -7.101   1.958  -5.918  1.00  0.00    -0.271 OA
HETATM   70  O3  UNL     1      -5.006   3.240  -3.192  1.00  0.00    -0.362 OA
HETATM   71  O4  UNL     1      -8.166   1.394  -3.180  1.00  0.00    -0.386 OA
HETATM   72  O5  UNL     1      -5.037  -0.437   2.635  1.00  0.00    -0.388 OA
HETATM   73  O6  UNL     1      -1.351   0.228   0.646  1.00  0.00    -0.271 OA
HETATM   74  O7  UNL     1      -2.855  -1.753  -2.324  1.00  0.00    -0.271 OA
HETATM   75  O8  UNL     1      -1.441  -6.515  -1.258  1.00  0.00    -0.238 OA
HETATM   76  O9  UNL     1      -0.084  -5.476  -2.763  1.00  0.00    -0.299 OA
HETATM   77  O10 UNL     1       5.334  -1.084  -1.599  1.00  0.00    -0.271 OA
HETATM   78  O11 UNL     1      10.231   3.245   1.289  1.00  0.00    -0.254 OA
HETATM   79  O12 UNL     1       3.584  -0.892   2.514  1.00  0.00    -0.271 OA
HETATM   80  O13 UNL     1       7.312   1.282   4.079  1.00  0.00    -0.274 OA
HETATM   81  O14 UNL     1       2.759   2.124   4.338  1.00  0.00    -0.273 OA
HETATM   82  O15 UNL     1       1.712   4.751   0.752  1.00  0.00    -0.273 OA
HETATM   83  N1  UNL     1      -5.852  -0.470  -1.845  1.00  0.00    -0.345 N 
HETATM   84  N2  UNL     1      -5.249   3.212  -6.002  1.00  0.00    -0.352 N 
HETATM   85  N3  UNL     1      -1.984  -1.941   0.957  1.00  0.00    -0.347 N 
HETATM   86  N4  UNL     1      -0.741  -2.453  -1.795  1.00  0.00    -0.346 N 
HETATM   87  N5  UNL     1      -2.294  -4.919  -2.693  1.00  0.00    -0.319 N 
HETATM   88  N6  UNL     1       4.120  -2.009   0.138  1.00  0.00    -0.325 N 
HETATM   89  N7  UNL     1       9.199   1.190   1.457  1.00  0.00    -0.348 N 
HETATM   90  N8  UNL     1       9.881   2.277   3.300  1.00  0.00    -0.254 NA
HETATM   91  N9  UNL     1       5.700  -0.278   1.940  1.00  0.00    -0.346 N 
HETATM   92  N10 UNL     1       5.201   0.768   4.808  1.00  0.00    -0.347 N 
HETATM   93  N11 UNL     1       2.459   3.692   2.664  1.00  0.00    -0.288 N 
HETATM   94  H96 UNL     1      -5.247   3.003  -6.993  1.00  0.00     0.163 HD
HETATM   95  H97 UNL     1       0.015  -3.066  -2.081  1.00  0.00     0.163 HD
HETATM   96  H98 UNL     1       3.827  -1.810   1.094  1.00  0.00     0.169 HD
HETATM   97  H99 UNL     1       9.312   0.386   2.059  1.00  0.00     0.163 HD
HETATM   98  HA0 UNL     1       9.053   1.890   3.750  1.00  0.00     0.128 HD
HETATM   99  HA1 UNL     1      10.188   3.156   3.694  1.00  0.00     0.128 HD
HETATM  100  HA2 UNL     1       6.518   0.181   2.342  1.00  0.00     0.163 HD
HETATM  101  HA3 UNL     1       4.277   1.202   4.889  1.00  0.00     0.163 HD
ENDROOT
TORSDOF 36
