REMARK  0 active torsions:
REMARK  status: ('A' for Active; 'I' for Inactive)
REMARK       I    between atoms: C4_4  and  C57_57 
REMARK       I    between atoms: C6_6  and  C50_50 
REMARK       I    between atoms: C10_10  and  C15_15 
REMARK       I    between atoms: C13_13  and  N6_86 
REMARK       I    between atoms: C15_15  and  N7_87 
REMARK       I    between atoms: C16_16  and  C17_17 
REMARK       I    between atoms: C16_16  and  C19_19 
REMARK       I    between atoms: C16_16  and  N7_87 
REMARK       I    between atoms: C17_17  and  C18_18 
REMARK       I    between atoms: C18_18  and  N8_88 
REMARK       I    between atoms: C19_19  and  N9_89 
REMARK       I    between atoms: C23_23  and  C24_24 
REMARK       I    between atoms: C24_24  and  N10_90 
REMARK       I    between atoms: C25_25  and  C27_27 
REMARK       I    between atoms: C25_25  and  N10_90 
REMARK       I    between atoms: C27_27  and  N11_91 
REMARK       I    between atoms: C28_28  and  C30_30 
REMARK       I    between atoms: C28_28  and  N11_91 
REMARK       I    between atoms: C30_30  and  N12_92 
REMARK       I    between atoms: C31_31  and  C32_32 
REMARK       I    between atoms: C31_31  and  C34_34 
REMARK       I    between atoms: C31_31  and  N12_92 
REMARK       I    between atoms: C32_32  and  O12_71 
REMARK       I    between atoms: C34_34  and  N13_93 
REMARK       I    between atoms: C35_35  and  C36_36 
REMARK       I    between atoms: C35_35  and  N13_93 
REMARK       I    between atoms: C36_36  and  N14_94 
REMARK       I    between atoms: C37_37  and  C38_38 
REMARK       I    between atoms: C37_37  and  C39_39 
REMARK       I    between atoms: C37_37  and  N14_94 
REMARK       I    between atoms: C38_38  and  S3_98 
REMARK       I    between atoms: C39_39  and  N15_95 
REMARK       I    between atoms: C40_40  and  C41_41 
REMARK       I    between atoms: C40_40  and  C48_48 
REMARK       I    between atoms: C40_40  and  N15_95 
REMARK       I    between atoms: C41_41  and  C42_42 
REMARK       I    between atoms: C45_45  and  O16_75 
REMARK       I    between atoms: C48_48  and  O18_77 
REMARK       I    between atoms: C50_50  and  C51_51 
REMARK       I    between atoms: C54_54  and  O19_78 
REMARK       I    between atoms: C57_57  and  C58_58 
REMARK       I    between atoms: C58_58  and  C59_59 
REMARK       I    between atoms: C59_59  and  O21_80 
REMARK       I    between atoms: S3_98  and  S4_99 
REMARK       I    between atoms: S4_99  and  S5_100 
ROOT
HETATM    1  C1  UNL     1      -9.439  -3.711  -3.310  1.00  0.00     0.042 C 
HETATM    2  C2  UNL     1      -9.460  -2.254  -2.873  1.00  0.00     0.172 C 
HETATM    3  C3  UNL     1      -9.681  -2.160  -1.354  1.00  0.00     0.240 C 
HETATM    4  C4  UNL     1     -11.405  -2.090   0.444  1.00  0.00     0.177 C 
HETATM    5  C5  UNL     1     -11.388  -0.573   0.728  1.00  0.00     0.241 C 
HETATM    6  C6  UNL     1      -9.953   1.422   1.060  1.00  0.00     0.180 C 
HETATM    7  C7  UNL     1      -8.487   1.775   0.727  1.00  0.00     0.241 C 
HETATM    8  C8  UNL     1      -6.977   3.616  -0.000  1.00  0.00     0.172 C 
HETATM    9  C9  UNL     1      -6.781   3.206  -1.481  1.00  0.00     0.240 C 
HETATM   10  C10 UNL     1      -5.342   3.353  -3.495  1.00  0.00     0.186 C 
HETATM   11  C11 UNL     1      -6.139   4.251  -4.443  1.00  0.00     0.120 C 
HETATM   12  C12 UNL     1      -6.428   0.529  -5.752  1.00  0.00     0.131 C 
HETATM   13  C13 UNL     1      -6.610  -0.258  -4.446  1.00  0.00     0.318 C 
HETATM   14  C14 UNL     1      -7.912  -1.086  -4.421  1.00  0.00     0.252 C 
HETATM   15  C15 UNL     1      -3.823   3.451  -3.709  1.00  0.00     0.242 C 
HETATM   16  C16 UNL     1      -1.676   2.990  -2.576  1.00  0.00     0.185 C 
HETATM   17  C17 UNL     1      -1.369   4.391  -2.030  1.00  0.00     0.137 C 
HETATM   18  C18 UNL     1      -2.200   4.699  -0.806  1.00  0.00     0.217 C 
HETATM   19  C19 UNL     1      -1.045   1.881  -1.700  1.00  0.00     0.243 C 
HETATM   20  C20 UNL     1      -1.897   0.101  -3.297  1.00  0.00     0.127 C 
HETATM   21  C21 UNL     1      -1.589  -1.385  -3.375  1.00  0.00     0.022 C 
HETATM   22  C22 UNL     1      -1.422  -1.768  -1.908  1.00  0.00     0.037 C 
HETATM   23  C23 UNL     1      -0.691  -0.562  -1.314  1.00  0.00     0.179 C 
HETATM   24  C24 UNL     1       0.847  -0.713  -1.415  1.00  0.00     0.241 C 
HETATM   25  C25 UNL     1       2.982   0.444  -0.995  1.00  0.00     0.172 C 
HETATM   26  C26 UNL     1       3.460   1.750  -0.374  1.00  0.00     0.042 C 
HETATM   27  C27 UNL     1       3.856  -0.711  -0.454  1.00  0.00     0.240 C 
HETATM   28  C28 UNL     1       3.817  -2.674   1.087  1.00  0.00     0.172 C 
HETATM   29  C29 UNL     1       3.623  -3.768   0.040  1.00  0.00     0.042 C 
HETATM   30  C30 UNL     1       5.255  -2.620   1.649  1.00  0.00     0.240 C 
HETATM   31  C31 UNL     1       7.671  -2.546   1.102  1.00  0.00     0.205 C 
HETATM   32  C32 UNL     1       8.603  -3.241   0.091  1.00  0.00     0.146 C 
HETATM   33  C33 UNL     1       8.561  -2.659  -1.318  1.00  0.00     0.042 C 
HETATM   34  C34 UNL     1       8.116  -1.084   1.324  1.00  0.00     0.243 C 
HETATM   35  C35 UNL     1       7.345   1.245   1.217  1.00  0.00     0.225 C 
HETATM   36  C36 UNL     1       8.519   2.143   0.813  1.00  0.00     0.236 C 
HETATM   37  C37 UNL     1      10.784   2.214  -0.208  1.00  0.00     0.186 C 
HETATM   38  C38 UNL     1      10.826   2.691  -1.664  1.00  0.00     0.121 C 
HETATM   39  C39 UNL     1      11.959   1.267   0.117  1.00  0.00     0.242 C 
HETATM   40  C40 UNL     1      12.721  -0.593   1.567  1.00  0.00     0.186 C 
HETATM   41  C41 UNL     1      12.503  -1.016   3.029  1.00  0.00     0.074 C 
HETATM   42  C42 UNL     1      13.777  -1.436   3.725  1.00  0.00    -0.056 A 
HETATM   43  C43 UNL     1      14.121  -2.790   3.839  1.00  0.00     0.010 A 
HETATM   44  C44 UNL     1      15.306  -3.171   4.473  1.00  0.00     0.037 A 
HETATM   45  C45 UNL     1      16.148  -2.195   4.994  1.00  0.00     0.065 A 
HETATM   46  C46 UNL     1      15.825  -0.848   4.890  1.00  0.00     0.037 A 
HETATM   47  C47 UNL     1      14.642  -0.468   4.255  1.00  0.00     0.010 A 
HETATM   48  C48 UNL     1      12.619  -1.821   0.648  1.00  0.00     0.163 C 
HETATM   49  C49 UNL     1      -5.807   3.224   0.897  1.00  0.00     0.042 C 
HETATM   50  C50 UNL     1     -10.388   1.993   2.422  1.00  0.00     0.073 C 
HETATM   51  C51 UNL     1      -9.620   1.460   3.612  1.00  0.00    -0.056 A 
HETATM   52  C52 UNL     1     -10.011   0.265   4.232  1.00  0.00     0.010 A 
HETATM   53  C53 UNL     1      -9.296  -0.236   5.320  1.00  0.00     0.037 A 
HETATM   54  C54 UNL     1      -8.191   0.458   5.795  1.00  0.00     0.065 A 
HETATM   55  C55 UNL     1      -7.787   1.647   5.198  1.00  0.00     0.037 A 
HETATM   56  C56 UNL     1      -8.501   2.147   4.107  1.00  0.00     0.010 A 
HETATM   57  C57 UNL     1     -10.684  -2.915   1.518  1.00  0.00     0.045 C 
HETATM   58  C58 UNL     1     -10.809  -4.418   1.273  1.00  0.00     0.112 C 
HETATM   59  C59 UNL     1     -10.209  -5.210   2.401  1.00  0.00     0.139 C 
HETATM   60  O1  UNL     1      -8.752  -1.949  -0.575  1.00  0.00    -0.271 OA
HETATM   61  O2  UNL     1     -12.416   0.102   0.680  1.00  0.00    -0.271 OA
HETATM   62  O3  UNL     1      -7.595   0.930   0.677  1.00  0.00    -0.271 OA
HETATM   63  O4  UNL     1      -7.624   2.572  -2.115  1.00  0.00    -0.271 OA
HETATM   64  O5  UNL     1      -8.583  -1.351  -5.412  1.00  0.00    -0.271 OA
HETATM   65  O6  UNL     1      -3.278   3.993  -4.662  1.00  0.00    -0.271 OA
HETATM   66  O7  UNL     1      -3.380   5.041  -0.862  1.00  0.00    -0.274 OA
HETATM   67  O8  UNL     1      -0.389   2.151  -0.686  1.00  0.00    -0.271 OA
HETATM   68  O9  UNL     1       1.411  -1.606  -2.040  1.00  0.00    -0.271 OA
HETATM   69  O10 UNL     1       5.003  -0.921  -0.853  1.00  0.00    -0.271 OA
HETATM   70  O11 UNL     1       5.483  -2.453   2.845  1.00  0.00    -0.271 OA
HETATM   71  O12 UNL     1       8.269  -4.633  -0.004  1.00  0.00    -0.393 OA
HETATM   72  O13 UNL     1       9.169  -0.787   1.889  1.00  0.00    -0.271 OA
HETATM   73  O14 UNL     1       8.560   3.328   1.142  1.00  0.00    -0.272 OA
HETATM   74  O15 UNL     1      13.045   1.321  -0.454  1.00  0.00    -0.271 OA
HETATM   75  O16 UNL     1      17.314  -2.524   5.620  1.00  0.00    -0.361 OA
HETATM   76  O17 UNL     1      13.292  -2.838   0.715  1.00  0.00    -0.648 OA
HETATM   77  O18 UNL     1      11.676  -1.733  -0.321  1.00  0.00    -0.775 OA
HETATM   78  O19 UNL     1      -7.523  -0.064   6.863  1.00  0.00    -0.361 OA
HETATM   79  O20 UNL     1      -9.906  -4.807   3.510  1.00  0.00    -0.650 OA
HETATM   80  O21 UNL     1     -10.053  -6.509   2.077  1.00  0.00    -0.776 OA
HETATM   81  N1  UNL     1     -10.983  -2.328  -0.938  1.00  0.00    -0.346 N 
HETATM   82  N2  UNL     1     -10.151  -0.019   0.946  1.00  0.00    -0.346 N 
HETATM   83  N3  UNL     1      -8.267   3.123   0.490  1.00  0.00    -0.346 N 
HETATM   84  N4  UNL     1      -5.615   3.642  -2.074  1.00  0.00    -0.345 N 
HETATM   85  N5  UNL     1      -8.205  -1.575  -3.163  1.00  0.00    -0.346 N 
HETATM   86  N6  UNL     1      -5.465  -1.193  -4.241  1.00  0.00     0.092 N 
HETATM   87  N7  UNL     1      -3.108   2.775  -2.735  1.00  0.00    -0.346 N 
HETATM   88  N8  UNL     1      -1.573   4.517   0.389  1.00  0.00    -0.370 N 
HETATM   89  N9  UNL     1      -1.167   0.572  -2.120  1.00  0.00    -0.337 N 
HETATM   90  N10 UNL     1       1.558   0.244  -0.707  1.00  0.00    -0.346 N 
HETATM   91  N11 UNL     1       3.329  -1.373   0.635  1.00  0.00    -0.346 N 
HETATM   92  N12 UNL     1       6.262  -2.682   0.706  1.00  0.00    -0.344 N 
HETATM   93  N13 UNL     1       7.341  -0.120   0.707  1.00  0.00    -0.350 N 
HETATM   94  N14 UNL     1       9.513   1.540   0.084  1.00  0.00    -0.346 N 
HETATM   95  N15 UNL     1      11.736   0.432   1.197  1.00  0.00    -0.345 N 
HETATM   96  S1  UNL     1      -6.337   3.575  -6.140  1.00  0.00    -0.095 SA
HETATM   97  S2  UNL     1      -7.583   1.951  -5.884  1.00  0.00    -0.095 SA
HETATM   98  S3  UNL     1      11.741   4.261  -1.892  1.00  0.00    -0.084 SA
HETATM   99  S4  UNL     1      10.302   5.686  -1.537  1.00  0.00    -0.028 SA
HETATM  100  S5  UNL     1      10.344   6.039   0.481  1.00  0.00    -0.099 SA
HETATM  101  H62 UNL     1       7.296  -4.695  -0.007  1.00  0.00     0.210 HD
HETATM  102  H63 UNL     1      17.417  -3.489   5.587  1.00  0.00     0.217 HD
HETATM  103  H64 UNL     1      11.830  -2.557  -0.833  1.00  0.00     0.167 HD
HETATM  104  H65 UNL     1      -6.783   0.525   7.082  1.00  0.00     0.217 HD
HETATM  105  H66 UNL     1      -9.672  -6.909   2.887  1.00  0.00     0.167 HD
HETATM  106  H67 UNL     1     -11.705  -2.217  -1.641  1.00  0.00     0.163 HD
HETATM  107  H68 UNL     1      -9.316  -0.579   0.750  1.00  0.00     0.163 HD
HETATM  108  H69 UNL     1      -9.076   3.641   0.167  1.00  0.00     0.163 HD
HETATM  109  H70 UNL     1      -5.025   4.332  -1.599  1.00  0.00     0.163 HD
HETATM  110  H71 UNL     1      -7.714  -1.185  -2.360  1.00  0.00     0.163 HD
HETATM  111  H72 UNL     1      -5.679  -1.772  -3.425  1.00  0.00     0.313 HD
HETATM  112  H73 UNL     1      -5.459  -1.851  -5.026  1.00  0.00     0.313 HD
HETATM  113  H74 UNL     1      -3.643   2.487  -1.919  1.00  0.00     0.163 HD
HETATM  114  H75 UNL     1      -0.782   3.879   0.446  1.00  0.00     0.159 HD
HETATM  115  H76 UNL     1      -2.134   4.613   1.226  1.00  0.00     0.159 HD
HETATM  116  H77 UNL     1       1.014   1.083  -0.495  1.00  0.00     0.163 HD
HETATM  117  H78 UNL     1       2.341  -1.195   0.781  1.00  0.00     0.163 HD
HETATM  118  H79 UNL     1       5.992  -2.356  -0.224  1.00  0.00     0.163 HD
HETATM  119  H80 UNL     1       6.448  -0.442   0.339  1.00  0.00     0.163 HD
HETATM  120  H81 UNL     1       9.415   0.555  -0.136  1.00  0.00     0.163 HD
HETATM  121  H82 UNL     1      10.769   0.254   1.466  1.00  0.00     0.163 HD
HETATM  122  H83 UNL     1       9.544   5.037   0.895  1.00  0.00     0.115 HD
ENDROOT
TORSDOF 36
