REMARK  10 active torsions:
REMARK  status: ('A' for Active; 'I' for Inactive)
REMARK    1  A    between atoms: C3_3  and  C22_22 
REMARK    2  A    between atoms: C6_6  and  N1_34 
REMARK    3  A    between atoms: C8_8  and  C9_9 
REMARK       I    between atoms: C8_8  and  N1_34 
REMARK    4  A    between atoms: C11_11  and  C13_13 
REMARK    5  A    between atoms: C15_15  and  C16_16 
REMARK    6  A    between atoms: C17_17  and  N4_38 
REMARK    7  A    between atoms: C19_19  and  N7_43 
REMARK       I    between atoms: C22_22  and  N8_44 
REMARK    8  A    between atoms: C27_27  and  C28_28 
REMARK       I    between atoms: C27_27  and  N9_45 
REMARK    9  A    between atoms: C28_28  and  N10_46 
REMARK   10  A    between atoms: C31_31  and  O4_50 
ROOT
HETATM    1  C8  UNL     1       2.957   1.042   1.112  1.00  0.00     0.290 C 
HETATM    2  N1  UNL     1       2.064   1.534   0.177  1.00  0.00    -0.320 N 
HETATM    3  O1  UNL     1       2.734   0.912   2.311  1.00  0.00    -0.264 OA
HETATM    4  H35 UNL     1       2.435   1.528  -0.772  1.00  0.00     0.169 HD
ENDROOT
BRANCH   1   5
HETATM    5  C9  UNL     1       4.221   0.661   0.487  1.00  0.00     0.177 C 
HETATM    6  N2  UNL     1       4.423   0.763  -0.818  1.00  0.00    -0.345 N 
HETATM    7  C10 UNL     1       5.686   0.283  -1.030  1.00  0.00     0.120 C 
ATOM      8  H2  UNL     1       3.774   1.123  -1.517  1.00  0.00     0.167 HD
HETATM    9  C11 UNL     1       6.261  -0.169   0.143  1.00  0.00     0.065 C 
HETATM   10  N3  UNL     1       5.355   0.183   1.118  1.00  0.00    -0.331 N 
HETATM   11  C12 UNL     1       5.593   0.302   2.537  1.00  0.00     0.158 C 
BRANCH   9  12
HETATM   12  C13 UNL     1       7.643  -0.892   0.232  1.00  0.00     0.043 A 
HETATM   13  C14 UNL     1       8.558  -0.845  -0.799  1.00  0.00     0.134 A 
HETATM   14  N4  UNL     1       9.678  -1.539  -0.396  1.00  0.00    -0.250 N 
HETATM   15  N5  UNL     1       9.493  -2.070   0.838  1.00  0.00    -0.288 N 
HETATM   16  C15 UNL     1       8.246  -1.725   1.213  1.00  0.00     0.146 A 
ATOM     17  H5  UNL     1      10.164  -2.620   1.375  1.00  0.00     0.187 HD
BRANCH  14  18
HETATM   18  C17 UNL     1      10.911  -1.732  -1.107  1.00  0.00     0.126 A 
HETATM   19  C21 UNL     1      11.090  -1.176  -2.372  1.00  0.00     0.052 A 
HETATM   20  C20 UNL     1      12.306  -1.379  -3.034  1.00  0.00     0.028 A 
HETATM   21  C19 UNL     1      13.333  -2.092  -2.423  1.00  0.00     0.021 A 
HETATM   22  C18 UNL     1      13.038  -2.658  -1.187  1.00  0.00     0.113 A 
HETATM   23  N6  UNL     1      11.878  -2.478  -0.513  1.00  0.00    -0.349 N 
ATOM     24  H6  UNL     1      11.735  -2.889   0.410  1.00  0.00     0.167 HD
BRANCH  21  25
HETATM   25  N7  UNL     1      14.498  -2.406  -3.128  1.00  0.00    -0.302 NA
HETATM   26  H36 UNL     1      15.287  -2.662  -2.540  1.00  0.00     0.124 HD
HETATM   27  H37 UNL     1      14.756  -1.728  -3.838  1.00  0.00     0.124 HD
ENDBRANCH  21  25
ENDBRANCH  14  18
BRANCH  16  28
HETATM   28  C16 UNL     1       7.657  -2.289   2.475  1.00  0.00     0.434 C 
HETATM   29  F1  UNL     1       6.320  -2.519   2.349  1.00  0.00    -0.165 F 
HETATM   30  F2  UNL     1       8.203  -3.477   2.850  1.00  0.00    -0.165 F 
HETATM   31  F3  UNL     1       7.800  -1.445   3.532  1.00  0.00    -0.165 F 
ENDBRANCH  16  28
ENDBRANCH   9  12
ENDBRANCH   1   5
BRANCH   2  32
HETATM   32  C6  UNL     1       0.756   2.007   0.373  1.00  0.00     0.035 A 
HETATM   33  C5  UNL     1       0.152   2.122   1.624  1.00  0.00     0.030 A 
HETATM   34  C4  UNL     1      -1.154   2.607   1.734  1.00  0.00     0.020 A 
HETATM   35  C3  UNL     1      -1.878   2.960   0.587  1.00  0.00     0.038 A 
HETATM   36  C2  UNL     1      -1.285   2.861  -0.682  1.00  0.00    -0.044 A 
HETATM   37  C1  UNL     1      -2.002   3.281  -1.935  1.00  0.00     0.049 C 
HETATM   38  C7  UNL     1       0.037   2.390  -0.769  1.00  0.00     0.037 A 
BRANCH  35  39
HETATM   39  C22 UNL     1      -3.260   3.478   0.758  1.00  0.00     0.254 C 
HETATM   40  N8  UNL     1      -4.165   2.715   1.503  1.00  0.00    -0.345 N 
HETATM   41  C23 UNL     1      -5.504   3.270   1.695  1.00  0.00     0.146 C 
HETATM   42  C26 UNL     1      -4.152   1.252   1.488  1.00  0.00     0.146 C 
HETATM   43  C24 UNL     1      -6.443   2.805   0.575  1.00  0.00     0.145 C 
HETATM   44  N9  UNL     1      -6.415   1.337   0.384  1.00  0.00    -0.348 N 
HETATM   45  C25 UNL     1      -5.071   0.723   0.368  1.00  0.00     0.145 C 
HETATM   46  C27 UNL     1      -7.539   0.751  -0.190  1.00  0.00     0.246 C 
HETATM   47  O3  UNL     1      -8.587   1.378  -0.364  1.00  0.00    -0.272 OA
HETATM   48  O2  UNL     1      -3.558   4.554   0.250  1.00  0.00    -0.267 OA
BRANCH  46  49
HETATM   49  C28 UNL     1      -7.449  -0.738  -0.583  1.00  0.00     0.339 C 
BRANCH  49  50
HETATM   50  N10 UNL     1      -8.723  -1.341  -1.262  1.00  0.00    -0.060 N 
HETATM   51  C29 UNL     1      -9.947  -1.174  -0.332  1.00  0.00     0.240 C 
HETATM   52  C30 UNL     1     -10.579  -2.555  -0.250  1.00  0.00     0.061 C 
HETATM   53  C31 UNL     1      -9.387  -3.485  -0.310  1.00  0.00     0.145 C 
HETATM   54  C32 UNL     1      -8.546  -2.871  -1.429  1.00  0.00     0.269 C 
HETATM   55  C33 UNL     1      -8.967  -0.685  -2.609  1.00  0.00     0.273 C 
BRANCH  53  56
HETATM   56  O4  UNL     1      -8.670  -3.436   0.922  1.00  0.00    -0.394 OA
HETATM   57  H38 UNL     1      -9.148  -3.991   1.570  1.00  0.00     0.210 HD
ENDBRANCH  53  56
ENDBRANCH  49  50
ENDBRANCH  46  49
ENDBRANCH  35  39
ENDBRANCH   2  32
TORSDOF 10
