REMARK  18 active torsions:
REMARK  status: ('A' for Active; 'I' for Inactive)
REMARK    1  A    between atoms: C3_3  and  N1_55 
REMARK    2  A    between atoms: C4_4  and  O2_43 
REMARK    3  A    between atoms: C5_5  and  O1_42 
REMARK    4  A    between atoms: C7_7  and  C8_8 
REMARK       I    between atoms: C7_7  and  N1_55 
REMARK    5  A    between atoms: C10_10  and  C35_35 
REMARK    6  A    between atoms: C12_12  and  N2_56 
REMARK       I    between atoms: C14_14  and  N2_56 
REMARK       I    between atoms: C14_14  and  N3_57 
REMARK    7  A    between atoms: C15_15  and  N3_57 
REMARK    8  A    between atoms: C17_17  and  C28_28 
REMARK    9  A    between atoms: C19_19  and  C21_21 
REMARK       I    between atoms: C21_21  and  N4_58 
REMARK   10  A    between atoms: C22_22  and  N4_58 
REMARK   11  A    between atoms: C23_23  and  O7_48 
REMARK   12  A    between atoms: C24_24  and  O6_47 
REMARK       I    between atoms: C28_28  and  N5_59 
REMARK   13  A    between atoms: C29_29  and  N5_59 
REMARK   14  A    between atoms: C30_30  and  O10_51 
REMARK   15  A    between atoms: C31_31  and  O9_50 
REMARK       I    between atoms: C35_35  and  N6_60 
REMARK   16  A    between atoms: C36_36  and  N6_60 
REMARK   17  A    between atoms: C37_37  and  O13_54 
REMARK   18  A    between atoms: C38_38  and  O12_53 
ROOT
HETATM    1  C14 UNL     1       0.286   0.495  -1.655  1.00  0.00     0.281 C 
HETATM    2  O4  UNL     1       0.295  -0.040  -0.552  1.00  0.00    -0.260 OA
HETATM    3  N2  UNL     1      -0.854   0.781  -2.394  1.00  0.00    -0.212 NA
HETATM    4  N3  UNL     1       1.420   0.908  -2.345  1.00  0.00    -0.212 NA
HETATM    5  H22 UNL     1      -0.710   0.499  -3.361  1.00  0.00     0.138 HD
HETATM    6  H23 UNL     1       1.270   1.839  -2.722  1.00  0.00     0.138 HD
ENDROOT
BRANCH   3   7
HETATM    7  C12 UNL     1      -2.135   0.456  -1.866  1.00  0.00     0.051 A 
HETATM    8  C11 UNL     1      -2.624   1.048  -0.681  1.00  0.00     0.046 A 
HETATM    9  C10 UNL     1      -3.850   0.616  -0.132  1.00  0.00     0.068 A 
HETATM   10  I5  UNL     1      -1.617   2.749   0.177  1.00  0.00    -0.042 I 
HETATM   11  C9  UNL     1      -4.620  -0.365  -0.785  1.00  0.00     0.040 A 
HETATM   12  C8  UNL     1      -4.168  -0.894  -2.008  1.00  0.00     0.068 A 
HETATM   13  I6  UNL     1      -6.456  -1.041   0.071  1.00  0.00    -0.042 I 
HETATM   14  C13 UNL     1      -2.934  -0.484  -2.550  1.00  0.00     0.046 A 
HETATM   15  I1  UNL     1      -2.220  -1.304  -4.394  1.00  0.00    -0.042 I 
BRANCH   9  16
HETATM   16  C35 UNL     1      -4.345   1.224   1.119  1.00  0.00     0.258 C 
HETATM   17  O11 UNL     1      -5.136   2.154   1.036  1.00  0.00    -0.267 OA
HETATM   18  N6  UNL     1      -3.842   0.652   2.263  1.00  0.00    -0.320 N 
HETATM   19  H26 UNL     1      -3.194  -0.117   2.132  1.00  0.00     0.169 HD
BRANCH  18  20
HETATM   20  C36 UNL     1      -4.096   0.988   3.617  1.00  0.00     0.071 A 
HETATM   21  C37 UNL     1      -4.929   2.003   4.104  1.00  0.00     0.126 A 
HETATM   22  C38 UNL     1      -5.060   2.199   5.486  1.00  0.00     0.101 A 
HETATM   23  C39 UNL     1      -4.386   1.412   6.406  1.00  0.00     0.039 A 
HETATM   24  C40 UNL     1      -3.557   0.401   5.939  1.00  0.00     0.005 A 
HETATM   25  C41 UNL     1      -3.415   0.193   4.561  1.00  0.00     0.032 A 
BRANCH  21  26
HETATM   26  O13 UNL     1      -5.670   2.877   3.354  1.00  0.00    -0.356 OA
HETATM   27  H20 UNL     1      -5.535   2.670   2.405  1.00  0.00     0.218 HD
ENDBRANCH  21  26
BRANCH  22  28
HETATM   28  O12 UNL     1      -5.876   3.196   5.951  1.00  0.00    -0.358 OA
HETATM   29  H19 UNL     1      -6.236   3.602   5.135  1.00  0.00     0.217 HD
ENDBRANCH  22  28
ENDBRANCH  18  20
ENDBRANCH   9  16
BRANCH  12  30
HETATM   30  C7  UNL     1      -4.955  -1.936  -2.697  1.00  0.00     0.258 C 
HETATM   31  O3  UNL     1      -4.711  -3.102  -2.419  1.00  0.00    -0.267 OA
HETATM   32  N1  UNL     1      -5.877  -1.436  -3.585  1.00  0.00    -0.320 N 
HETATM   33  H21 UNL     1      -5.970  -0.429  -3.701  1.00  0.00     0.169 HD
BRANCH  32  34
HETATM   34  C3  UNL     1      -6.771  -2.163  -4.394  1.00  0.00     0.071 A 
HETATM   35  C2  UNL     1      -6.862  -3.554  -4.424  1.00  0.00     0.032 A 
HETATM   36  C1  UNL     1      -7.791  -4.182  -5.267  1.00  0.00     0.005 A 
HETATM   37  C6  UNL     1      -8.635  -3.428  -6.087  1.00  0.00     0.039 A 
HETATM   38  C5  UNL     1      -8.541  -2.043  -6.057  1.00  0.00     0.101 A 
HETATM   39  C4  UNL     1      -7.619  -1.419  -5.220  1.00  0.00     0.126 A 
BRANCH  38  40
HETATM   40  O1  UNL     1      -9.336  -1.246  -6.833  1.00  0.00    -0.358 OA
HETATM   41  H13 UNL     1      -9.928  -1.820  -7.350  1.00  0.00     0.217 HD
ENDBRANCH  38  40
BRANCH  39  42
HETATM   42  O2  UNL     1      -7.543  -0.046  -5.208  1.00  0.00    -0.356 OA
HETATM   43  H14 UNL     1      -8.231   0.233  -5.848  1.00  0.00     0.218 HD
ENDBRANCH  39  42
ENDBRANCH  32  34
ENDBRANCH  12  30
ENDBRANCH   3   7
BRANCH   4  44
HETATM   44  C15 UNL     1       2.700   0.706  -1.756  1.00  0.00     0.051 A 
HETATM   45  C16 UNL     1       3.209  -0.590  -1.518  1.00  0.00     0.046 A 
HETATM   46  C17 UNL     1       4.423  -0.752  -0.820  1.00  0.00     0.068 A 
HETATM   47  I4  UNL     1       2.236  -2.301  -2.393  1.00  0.00    -0.042 I 
HETATM   48  C18 UNL     1       5.164   0.373  -0.406  1.00  0.00     0.040 A 
HETATM   49  C19 UNL     1       4.689   1.663  -0.710  1.00  0.00     0.068 A 
HETATM   50  I3  UNL     1       6.981   0.136   0.690  1.00  0.00    -0.042 I 
HETATM   51  C20 UNL     1       3.468   1.831  -1.391  1.00  0.00     0.046 A 
HETATM   52  I2  UNL     1       2.710   3.786  -1.822  1.00  0.00    -0.042 I 
BRANCH  46  53
HETATM   53  C28 UNL     1       4.941  -2.110  -0.549  1.00  0.00     0.258 C 
HETATM   54  O8  UNL     1       5.784  -2.548  -1.319  1.00  0.00    -0.267 OA
HETATM   55  N5  UNL     1       4.312  -2.738   0.511  1.00  0.00    -0.320 N 
HETATM   56  H25 UNL     1       3.403  -2.381   0.774  1.00  0.00     0.169 HD
BRANCH  55  57
HETATM   57  C29 UNL     1       4.654  -4.003   1.037  1.00  0.00     0.071 A 
HETATM   58  C30 UNL     1       5.950  -4.524   1.080  1.00  0.00     0.126 A 
HETATM   59  C31 UNL     1       6.184  -5.805   1.592  1.00  0.00     0.101 A 
HETATM   60  C32 UNL     1       5.143  -6.574   2.097  1.00  0.00     0.039 A 
HETATM   61  C33 UNL     1       3.854  -6.043   2.107  1.00  0.00     0.005 A 
HETATM   62  C34 UNL     1       3.614  -4.763   1.591  1.00  0.00     0.032 A 
BRANCH  58  63
HETATM   63  O10 UNL     1       7.040  -3.776   0.725  1.00  0.00    -0.356 OA
HETATM   64  H18 UNL     1       7.795  -4.392   0.756  1.00  0.00     0.218 HD
ENDBRANCH  58  63
BRANCH  59  65
HETATM   65  O9  UNL     1       7.477  -6.259   1.599  1.00  0.00    -0.358 OA
HETATM   66  H17 UNL     1       7.481  -7.163   1.958  1.00  0.00     0.217 HD
ENDBRANCH  59  65
ENDBRANCH  55  57
ENDBRANCH  46  53
BRANCH  49  67
HETATM   67  C21 UNL     1       5.479   2.855  -0.338  1.00  0.00     0.258 C 
HETATM   68  O5  UNL     1       6.258   3.309  -1.165  1.00  0.00    -0.267 OA
HETATM   69  N4  UNL     1       5.223   3.339   0.924  1.00  0.00    -0.320 N 
HETATM   70  H24 UNL     1       4.551   2.821   1.477  1.00  0.00     0.169 HD
BRANCH  69  71
HETATM   71  C22 UNL     1       5.780   4.468   1.576  1.00  0.00     0.071 A 
HETATM   72  C23 UNL     1       6.722   5.371   1.069  1.00  0.00     0.126 A 
HETATM   73  C24 UNL     1       7.159   6.445   1.858  1.00  0.00     0.101 A 
HETATM   74  C25 UNL     1       6.687   6.651   3.143  1.00  0.00     0.039 A 
HETATM   75  C26 UNL     1       5.753   5.764   3.662  1.00  0.00     0.005 A 
HETATM   76  C27 UNL     1       5.306   4.687   2.886  1.00  0.00     0.032 A 
BRANCH  72  77
HETATM   77  O7  UNL     1       7.300   5.333  -0.172  1.00  0.00    -0.356 OA
HETATM   78  H16 UNL     1       6.970   4.542  -0.650  1.00  0.00     0.218 HD
ENDBRANCH  72  77
BRANCH  73  79
HETATM   79  O6  UNL     1       8.080   7.322   1.350  1.00  0.00    -0.358 OA
HETATM   80  H15 UNL     1       8.262   6.975   0.451  1.00  0.00     0.217 HD
ENDBRANCH  73  79
ENDBRANCH  69  71
ENDBRANCH  49  67
ENDBRANCH   4  44
TORSDOF 18
