REMARK  0 active torsions:
REMARK  status: ('A' for Active; 'I' for Inactive)
REMARK       I    between atoms: C2_2  and  C3_3 
REMARK       I    between atoms: C2_2  and  O17_66 
REMARK       I    between atoms: C3_3  and  C4_4 
REMARK       I    between atoms: C3_3  and  N12_79 
REMARK       I    between atoms: C4_4  and  N1_67 
REMARK       I    between atoms: C5_5  and  C6_6 
REMARK       I    between atoms: C5_5  and  C9_9 
REMARK       I    between atoms: C5_5  and  N1_67 
REMARK       I    between atoms: C9_9  and  N2_68 
REMARK       I    between atoms: C10_10  and  C11_11 
REMARK       I    between atoms: C10_10  and  C15_15 
REMARK       I    between atoms: C10_10  and  N2_68 
REMARK       I    between atoms: C11_11  and  C12_12 
REMARK       I    between atoms: C12_12  and  C13_13 
REMARK       I    between atoms: C13_13  and  N3_69 
REMARK       I    between atoms: C14_14  and  N4_71 
REMARK       I    between atoms: C14_14  and  N5_72 
REMARK       I    between atoms: C15_15  and  N6_73 
REMARK       I    between atoms: C16_16  and  C17_17 
REMARK       I    between atoms: C16_16  and  C24_24 
REMARK       I    between atoms: C16_16  and  N6_73 
REMARK       I    between atoms: C17_17  and  C18_18 
REMARK       I    between atoms: C24_24  and  N7_74 
REMARK       I    between atoms: C25_25  and  C26_26 
REMARK       I    between atoms: C25_25  and  C29_29 
REMARK       I    between atoms: C25_25  and  N7_74 
REMARK       I    between atoms: C26_26  and  C27_27 
REMARK       I    between atoms: C27_27  and  C28_28 
REMARK       I    between atoms: C28_28  and  N8_75 
REMARK       I    between atoms: C29_29  and  N9_76 
REMARK       I    between atoms: C30_30  and  C31_31 
REMARK       I    between atoms: C30_30  and  C32_32 
REMARK       I    between atoms: C30_30  and  N9_76 
REMARK       I    between atoms: C31_31  and  O7_56 
REMARK       I    between atoms: C32_32  and  N10_77 
REMARK       I    between atoms: C33_33  and  C34_34 
REMARK       I    between atoms: C33_33  and  C36_36 
REMARK       I    between atoms: C33_33  and  N10_77 
REMARK       I    between atoms: C34_34  and  C35_35 
REMARK       I    between atoms: C35_35  and  O10_59 
REMARK       I    between atoms: C36_36  and  N11_78 
REMARK       I    between atoms: C37_37  and  C38_38 
REMARK       I    between atoms: C37_37  and  N12_79 
REMARK       I    between atoms: C38_38  and  C39_39 
REMARK       I    between atoms: C38_38  and  N13_80 
REMARK       I    between atoms: C39_39  and  C40_40 
REMARK       I    between atoms: C40_40  and  C41_41 
REMARK       I    between atoms: C41_41  and  O14_63 
REMARK       I    between atoms: C42_42  and  C43_43 
REMARK       I    between atoms: C42_42  and  N13_80 
REMARK       I    between atoms: C43_43  and  C44_44 
REMARK       I    between atoms: C43_43  and  N17_85 
REMARK       I    between atoms: C44_44  and  C45_45 
REMARK       I    between atoms: C45_45  and  C46_46 
REMARK       I    between atoms: C46_46  and  N14_81 
REMARK       I    between atoms: C47_47  and  N15_83 
REMARK       I    between atoms: C47_47  and  N16_84 
REMARK       I    between atoms: C48_48  and  N17_85 
ROOT
HETATM    1  C1  UNL     1      -4.167  -3.484   3.047  1.00  0.00     0.042 C 
HETATM    2  C2  UNL     1      -3.575  -2.572   1.977  1.00  0.00     0.146 C 
HETATM    3  C3  UNL     1      -4.225  -1.171   2.016  1.00  0.00     0.205 C 
HETATM    4  C4  UNL     1      -3.306  -0.169   1.286  1.00  0.00     0.243 C 
HETATM    5  C5  UNL     1      -1.131   0.971   1.383  1.00  0.00     0.180 C 
HETATM    6  C6  UNL     1      -0.368   1.936   2.315  1.00  0.00     0.009 C 
HETATM    7  C7  UNL     1       0.197   1.261   3.569  1.00  0.00     0.012 C 
HETATM    8  C8  UNL     1      -1.257   3.117   2.716  1.00  0.00     0.012 C 
HETATM    9  C9  UNL     1      -0.200  -0.116   0.807  1.00  0.00     0.241 C 
HETATM   10  C10 UNL     1       1.418  -0.619  -1.004  1.00  0.00     0.176 C 
HETATM   11  C11 UNL     1       0.790  -0.918  -2.376  1.00  0.00     0.036 C 
HETATM   12  C12 UNL     1      -0.649  -1.447  -2.333  1.00  0.00     0.022 C 
HETATM   13  C13 UNL     1      -0.763  -2.872  -1.794  1.00  0.00     0.121 C 
HETATM   14  C14 UNL     1      -2.964  -3.472  -2.459  1.00  0.00     0.121 C 
HETATM   15  C15 UNL     1       2.792   0.051  -1.203  1.00  0.00     0.241 C 
HETATM   16  C16 UNL     1       5.166  -0.347  -1.815  1.00  0.00     0.180 C 
HETATM   17  C17 UNL     1       5.370   0.546  -3.054  1.00  0.00     0.073 C 
HETATM   18  C18 UNL     1       5.348  -0.079  -4.435  1.00  0.00    -0.056 A 
HETATM   19  C19 UNL     1       6.049   0.572  -5.467  1.00  0.00     0.007 A 
HETATM   20  C20 UNL     1       6.056   0.062  -6.766  1.00  0.00     0.001 A 
HETATM   21  C21 UNL     1       5.353  -1.102  -7.060  1.00  0.00     0.000 A 
HETATM   22  C22 UNL     1       4.638  -1.749  -6.055  1.00  0.00     0.001 A 
HETATM   23  C23 UNL     1       4.629  -1.237  -4.754  1.00  0.00     0.007 A 
HETATM   24  C24 UNL     1       6.077  -1.593  -1.780  1.00  0.00     0.241 C 
HETATM   25  C25 UNL     1       8.413  -2.434  -1.784  1.00  0.00     0.177 C 
HETATM   26  C26 UNL     1       8.661  -3.051  -3.172  1.00  0.00     0.044 C 
HETATM   27  C27 UNL     1       8.797  -2.057  -4.326  1.00  0.00     0.105 C 
HETATM   28  C28 UNL     1       9.725  -0.908  -4.016  1.00  0.00     0.215 C 
HETATM   29  C29 UNL     1       9.718  -1.959  -1.104  1.00  0.00     0.241 C 
HETATM   30  C30 UNL     1      10.593  -0.512   0.726  1.00  0.00     0.200 C 
HETATM   31  C31 UNL     1      11.432   0.510  -0.054  1.00  0.00     0.199 C 
HETATM   32  C32 UNL     1       9.956   0.174   1.946  1.00  0.00     0.243 C 
HETATM   33  C33 UNL     1      10.458   1.338   4.084  1.00  0.00     0.186 C 
HETATM   34  C34 UNL     1      11.296   0.980   5.304  1.00  0.00     0.144 C 
HETATM   35  C35 UNL     1      10.672   1.556   6.540  1.00  0.00     0.141 C 
HETATM   36  C36 UNL     1      10.689   2.827   3.747  1.00  0.00     0.238 C 
HETATM   37  C37 UNL     1      -6.429  -0.184   1.470  1.00  0.00     0.241 C 
HETATM   38  C38 UNL     1      -7.697  -0.289   0.588  1.00  0.00     0.177 C 
HETATM   39  C39 UNL     1      -7.428  -0.703  -0.866  1.00  0.00     0.045 C 
HETATM   40  C40 UNL     1      -6.557   0.289  -1.642  1.00  0.00     0.112 C 
HETATM   41  C41 UNL     1      -5.886  -0.372  -2.817  1.00  0.00     0.139 C 
HETATM   42  C42 UNL     1      -9.741   1.114   0.417  1.00  0.00     0.241 C 
HETATM   43  C43 UNL     1     -10.326   2.507   0.721  1.00  0.00     0.176 C 
HETATM   44  C44 UNL     1     -10.338   2.823   2.227  1.00  0.00     0.036 C 
HETATM   45  C45 UNL     1     -10.811   1.713   3.183  1.00  0.00     0.022 C 
HETATM   46  C46 UNL     1     -12.174   1.082   2.900  1.00  0.00     0.121 C 
HETATM   47  C47 UNL     1     -14.403   1.775   2.623  1.00  0.00     0.121 C 
HETATM   48  C48 UNL     1     -12.197   3.843  -0.188  1.00  0.00     0.214 C 
HETATM   49  C49 UNL     1     -13.630   3.778  -0.644  1.00  0.00     0.117 C 
HETATM   50  O1  UNL     1      -3.489   0.185   0.122  1.00  0.00    -0.271 OA
HETATM   51  O2  UNL     1      -0.169  -1.261   1.258  1.00  0.00    -0.271 OA
HETATM   52  O3  UNL     1       2.973   1.256  -1.032  1.00  0.00    -0.271 OA
HETATM   53  O4  UNL     1       5.610  -2.729  -1.674  1.00  0.00    -0.271 OA
HETATM   54  O5  UNL     1       9.346   0.120  -3.461  1.00  0.00    -0.274 OA
HETATM   55  O6  UNL     1      10.831  -2.402  -1.377  1.00  0.00    -0.271 OA
HETATM   56  O7  UNL     1      12.522   1.002   0.739  1.00  0.00    -0.398 OA
HETATM   57  O8  UNL     1       8.754   0.427   2.000  1.00  0.00    -0.271 OA
HETATM   58  O9  UNL     1       9.525   1.387   6.916  1.00  0.00    -0.650 OA
HETATM   59  O10 UNL     1      11.537   2.289   7.265  1.00  0.00    -0.776 OA
HETATM   60  O11 UNL     1      10.204   3.746   4.401  1.00  0.00    -0.271 OA
HETATM   61  O12 UNL     1      -6.269   0.748   2.261  1.00  0.00    -0.271 OA
HETATM   62  O13 UNL     1      -5.828  -1.569  -3.057  1.00  0.00    -0.650 OA
HETATM   63  O14 UNL     1      -5.288   0.521  -3.629  1.00  0.00    -0.776 OA
HETATM   64  O15 UNL     1     -10.426   0.178   0.003  1.00  0.00    -0.271 OA
HETATM   65  O16 UNL     1     -11.584   4.904  -0.122  1.00  0.00    -0.274 OA
HETATM   66  O17 UNL     1      -3.834  -3.192   0.705  1.00  0.00    -0.393 OA
HETATM   67  N1  UNL     1      -2.233   0.276   2.045  1.00  0.00    -0.346 N 
HETATM   68  N2  UNL     1       0.589   0.298  -0.237  1.00  0.00    -0.346 N 
HETATM   69  N3  UNL     1      -2.158  -3.201  -1.503  1.00  0.00    -0.372 N 
ATOM     70  H3  UNL     1      -2.488  -3.214  -0.538  1.00  0.00     0.161 HD
HETATM   71  N4  UNL     1      -2.752  -3.530  -3.792  1.00  0.00    -0.279 NA
HETATM   72  N5  UNL     1      -4.257  -3.761  -2.193  1.00  0.00    -0.279 NA
HETATM   73  N6  UNL     1       3.782  -0.796  -1.641  1.00  0.00    -0.346 N 
HETATM   74  N7  UNL     1       7.429  -1.351  -1.805  1.00  0.00    -0.346 N 
HETATM   75  N8  UNL     1      11.033  -1.113  -4.329  1.00  0.00    -0.370 N 
HETATM   76  N9  UNL     1       9.515  -1.065  -0.081  1.00  0.00    -0.344 N 
HETATM   77  N10 UNL     1      10.849   0.494   2.946  1.00  0.00    -0.345 N 
HETATM   78  N11 UNL     1      11.610   3.103   2.773  1.00  0.00    -0.368 N 
HETATM   79  N12 UNL     1      -5.533  -1.216   1.363  1.00  0.00    -0.344 N 
HETATM   80  N13 UNL     1      -8.395   0.990   0.672  1.00  0.00    -0.346 N 
HETATM   81  N14 UNL     1     -13.185   2.125   2.785  1.00  0.00    -0.372 N 
ATOM     82  H14 UNL     1     -12.927   3.111   2.833  1.00  0.00     0.161 HD
HETATM   83  N15 UNL     1     -14.949   0.544   2.528  1.00  0.00    -0.279 NA
HETATM   84  N16 UNL     1     -15.363   2.719   2.520  1.00  0.00    -0.279 NA
HETATM   85  N17 UNL     1     -11.646   2.625   0.121  1.00  0.00    -0.348 N 
HETATM   86  H55 UNL     1      13.173   1.364   0.106  1.00  0.00     0.209 HD
HETATM   87  H56 UNL     1      10.991   2.644   7.999  1.00  0.00     0.167 HD
HETATM   88  H57 UNL     1      -4.828  -0.025  -4.299  1.00  0.00     0.167 HD
HETATM   89  H58 UNL     1      -3.026  -3.063   0.148  1.00  0.00     0.210 HD
HETATM   90  H59 UNL     1      -1.959  -0.316   2.820  1.00  0.00     0.163 HD
HETATM   91  H60 UNL     1       0.638   1.281  -0.487  1.00  0.00     0.163 HD
HETATM   92  H61 UNL     1      -1.786  -3.663  -4.056  1.00  0.00     0.126 HD
HETATM   93  H62 UNL     1      -3.354  -4.217  -4.231  1.00  0.00     0.126 HD
HETATM   94  H63 UNL     1      -4.891  -3.133  -2.695  1.00  0.00     0.126 HD
HETATM   95  H64 UNL     1      -4.443  -3.657  -1.195  1.00  0.00     0.126 HD
HETATM   96  H65 UNL     1       3.661  -1.800  -1.527  1.00  0.00     0.163 HD
HETATM   97  H66 UNL     1       7.770  -0.444  -2.124  1.00  0.00     0.163 HD
HETATM   98  H67 UNL     1      11.393  -2.058  -4.392  1.00  0.00     0.159 HD
HETATM   99  H68 UNL     1      11.686  -0.416  -3.996  1.00  0.00     0.159 HD
HETATM  100  H69 UNL     1       8.562  -0.797   0.162  1.00  0.00     0.163 HD
HETATM  101  H70 UNL     1      11.835   0.470   2.695  1.00  0.00     0.163 HD
HETATM  102  H71 UNL     1      11.691   4.080   2.520  1.00  0.00     0.159 HD
HETATM  103  H72 UNL     1      11.808   2.424   2.046  1.00  0.00     0.159 HD
HETATM  104  H73 UNL     1      -5.553  -1.831   0.558  1.00  0.00     0.163 HD
HETATM  105  H74 UNL     1      -7.920   1.719   1.200  1.00  0.00     0.163 HD
HETATM  106  H75 UNL     1     -15.715   0.508   1.865  1.00  0.00     0.126 HD
HETATM  107  H76 UNL     1     -14.285  -0.201   2.358  1.00  0.00     0.126 HD
HETATM  108  H77 UNL     1     -16.155   2.521   3.119  1.00  0.00     0.126 HD
HETATM  109  H78 UNL     1     -14.968   3.626   2.756  1.00  0.00     0.126 HD
HETATM  110  H79 UNL     1     -12.250   1.816   0.191  1.00  0.00     0.163 HD
ENDROOT
TORSDOF 43
