REMARK  24 active torsions:
REMARK  status: ('A' for Active; 'I' for Inactive)
REMARK    1  A    between atoms: C9_9  and  C11_11 
REMARK    2  A    between atoms: C11_11  and  C12_12 
REMARK    3  A    between atoms: C12_12  and  C13_13 
REMARK    4  A    between atoms: C13_13  and  N4_90 
REMARK       I    between atoms: C14_14  and  N5_91 
REMARK       I    between atoms: C14_14  and  N6_93 
REMARK    5  A    between atoms: C15_15  and  C63_63 
REMARK    6  A    between atoms: C17_17  and  C61_61 
REMARK    7  A    between atoms: C21_21  and  C53_53 
REMARK    8  A    between atoms: C23_23  and  C43_43 
REMARK    9  A    between atoms: C26_26  and  N15_103 
REMARK   10  A    between atoms: C28_28  and  C30_30 
REMARK   11  A    between atoms: C30_30  and  C31_31 
REMARK   12  A    between atoms: C34_34  and  C35_35 
REMARK       I    between atoms: C34_34  and  N15_103 
REMARK   13  A    between atoms: C35_35  and  C36_36 
REMARK   14  A    between atoms: C35_35  and  N16_104 
REMARK   15  A    between atoms: C36_36  and  C37_37 
REMARK   16  A    between atoms: C40_40  and  O11_82 
REMARK       I    between atoms: C43_43  and  N17_105 
REMARK   17  A    between atoms: C44_44  and  C45_45 
REMARK   18  A    between atoms: C44_44  and  C52_52 
REMARK   19  A    between atoms: C44_44  and  N17_105 
REMARK   20  A    between atoms: C45_45  and  C46_46 
REMARK   21  A    between atoms: C49_49  and  O13_84 
REMARK       I    between atoms: C52_52  and  N18_106 
REMARK   22  A    between atoms: C53_53  and  C54_54 
REMARK   23  A    between atoms: C61_61  and  C62_62 
REMARK       I    between atoms: C62_62  and  N19_107 
REMARK   24  A    between atoms: C63_63  and  C64_64 
ROOT
HETATM    1  C1  UNL     1      -0.294  -0.945   4.538  1.00  0.00     0.042 C 
HETATM    2  C2  UNL     1      -0.156  -0.434   3.108  1.00  0.00     0.172 C 
HETATM    3  C3  UNL     1      -1.140   0.729   2.866  1.00  0.00     0.240 C 
HETATM    4  C4  UNL     1      -3.504   1.368   3.164  1.00  0.00     0.185 C 
HETATM    5  C5  UNL     1      -4.751   0.751   3.843  1.00  0.00     0.109 C 
HETATM    6  C6  UNL     1      -7.012  -0.621   2.830  1.00  0.00     0.176 C 
HETATM    7  C7  UNL     1      -7.141   0.321   1.642  1.00  0.00     0.229 C 
HETATM    8  C8  UNL     1      -6.310   0.981  -0.569  1.00  0.00     0.152 C 
HETATM    9  C9  UNL     1      -5.361   2.092  -0.036  1.00  0.00     0.102 C 
HETATM   10  C10 UNL     1      -3.942   2.230   1.966  1.00  0.00     0.241 C 
HETATM   11  C15 UNL     1      -6.685  -1.484  -0.063  1.00  0.00     0.183 C 
HETATM   12  C16 UNL     1      -5.431  -1.938  -0.845  1.00  0.00     0.241 C 
HETATM   13  C17 UNL     1      -2.963  -2.220  -0.684  1.00  0.00     0.185 C 
HETATM   14  C18 UNL     1      -2.134  -2.684   0.527  1.00  0.00     0.241 C 
HETATM   15  C19 UNL     1      -0.267  -4.160   1.255  1.00  0.00     0.172 C 
HETATM   16  C20 UNL     1       0.996  -4.739   0.592  1.00  0.00     0.240 C 
HETATM   17  C21 UNL     1       3.477  -4.703   0.619  1.00  0.00     0.180 C 
HETATM   18  C22 UNL     1       3.816  -4.675  -0.889  1.00  0.00     0.241 C 
HETATM   19  C23 UNL     1       3.827  -3.161  -2.875  1.00  0.00     0.186 C 
HETATM   20  C24 UNL     1       2.857  -2.146  -3.513  1.00  0.00     0.120 C 
HETATM   21  C25 UNL     1       3.113   1.341  -2.339  1.00  0.00     0.120 C 
HETATM   22  C26 UNL     1       2.119   0.967  -1.229  1.00  0.00     0.186 C 
HETATM   23  C27 UNL     1       2.817   0.098  -0.178  1.00  0.00     0.242 C 
HETATM   24  C28 UNL     1       3.557  -0.168   2.136  1.00  0.00     0.182 C 
HETATM   25  C29 UNL     1       2.255  -0.834   2.633  1.00  0.00     0.241 C 
HETATM   26  C60 UNL     1      -1.047  -5.293   1.917  1.00  0.00     0.042 C 
HETATM   27  O1  UNL     1      -0.771   1.896   2.731  1.00  0.00    -0.271 OA
HETATM   28  O2  UNL     1      -7.646   1.433   1.802  1.00  0.00    -0.273 OA
HETATM   29  O3  UNL     1      -4.118   3.442   2.088  1.00  0.00    -0.271 OA
HETATM   30  O4  UNL     1      -5.455  -2.473  -1.947  1.00  0.00    -0.271 OA
HETATM   31  O5  UNL     1      -2.420  -2.330   1.674  1.00  0.00    -0.271 OA
HETATM   32  O6  UNL     1       0.944  -5.643  -0.239  1.00  0.00    -0.271 OA
HETATM   33  O7  UNL     1       4.614  -5.448  -1.415  1.00  0.00    -0.271 OA
HETATM   34  O8  UNL     1       3.097  -1.081  -0.412  1.00  0.00    -0.271 OA
HETATM   35  O9  UNL     1       2.177  -2.047   2.828  1.00  0.00    -0.271 OA
HETATM   36  N1  UNL     1      -2.472   0.375   2.876  1.00  0.00    -0.345 N 
HETATM   37  N2  UNL     1      -6.577  -0.080   0.429  1.00  0.00    -0.336 N 
HETATM   38  N3  UNL     1      -4.313   1.535   0.830  1.00  0.00    -0.353 N 
HETATM   39  N7  UNL     1      -4.252  -1.758  -0.144  1.00  0.00    -0.346 N 
HETATM   40  N8  UNL     1      -1.070  -3.496   0.233  1.00  0.00    -0.346 N 
HETATM   41  N9  UNL     1       2.172  -4.112   0.938  1.00  0.00    -0.346 N 
HETATM   42  N10 UNL     1       3.331  -3.561  -1.547  1.00  0.00    -0.345 N 
HETATM   43  N11 UNL     1       3.202   0.695   0.998  1.00  0.00    -0.346 N 
HETATM   44  N12 UNL     1       1.194   0.019   2.826  1.00  0.00    -0.346 N 
HETATM   45  S1  UNL     1      -5.241  -0.916   3.211  1.00  0.00    -0.157 SA
HETATM   46  S2  UNL     1       3.612  -0.792  -4.488  1.00  0.00    -0.095 SA
HETATM   47  S3  UNL     1       2.480   0.862  -3.999  1.00  0.00    -0.095 SA
HETATM   48  H69 UNL     1      -2.721  -0.617   2.876  1.00  0.00     0.163 HD
HETATM   49  H70 UNL     1      -4.241   0.526   0.863  1.00  0.00     0.163 HD
HETATM   50  H75 UNL     1      -4.310  -1.676   0.870  1.00  0.00     0.163 HD
HETATM   51  H76 UNL     1      -0.884  -3.743  -0.744  1.00  0.00     0.163 HD
HETATM   52  H77 UNL     1       2.154  -3.503   1.760  1.00  0.00     0.163 HD
HETATM   53  H78 UNL     1       2.877  -2.861  -0.958  1.00  0.00     0.163 HD
HETATM   54  H79 UNL     1       2.745   1.567   1.261  1.00  0.00     0.163 HD
HETATM   55  H80 UNL     1       1.362   1.029   2.820  1.00  0.00     0.163 HD
ENDROOT
BRANCH  19  56
HETATM   56  C43 UNL     1       5.271  -2.648  -2.670  1.00  0.00     0.242 C 
HETATM   57  O12 UNL     1       6.210  -2.988  -3.387  1.00  0.00    -0.271 OA
HETATM   58  N17 UNL     1       5.428  -1.742  -1.639  1.00  0.00    -0.346 N 
HETATM   59  H85 UNL     1       4.650  -1.691  -0.982  1.00  0.00     0.163 HD
BRANCH  58  60
HETATM   60  C44 UNL     1       6.756  -1.441  -1.103  1.00  0.00     0.180 C 
BRANCH  60  61
HETATM   61  C45 UNL     1       6.771  -0.047  -0.469  1.00  0.00     0.073 C 
BRANCH  61  62
HETATM   62  C46 UNL     1       8.164   0.440  -0.150  1.00  0.00    -0.056 A 
HETATM   63  C47 UNL     1       8.701   0.270   1.134  1.00  0.00     0.010 A 
HETATM   64  C48 UNL     1       9.993   0.711   1.421  1.00  0.00     0.037 A 
HETATM   65  C49 UNL     1      10.752   1.316   0.427  1.00  0.00     0.065 A 
HETATM   66  C50 UNL     1      10.240   1.488  -0.855  1.00  0.00     0.037 A 
HETATM   67  C51 UNL     1       8.946   1.049  -1.142  1.00  0.00     0.010 A 
BRANCH  65  68
HETATM   68  O13 UNL     1      12.011   1.729   0.750  1.00  0.00    -0.361 OA
HETATM   69  H68 UNL     1      12.433   2.083  -0.049  1.00  0.00     0.217 HD
ENDBRANCH  65  68
ENDBRANCH  61  62
ENDBRANCH  60  61
BRANCH  60  70
HETATM   70  C52 UNL     1       7.003  -2.548  -0.060  1.00  0.00     0.238 C 
HETATM   71  O14 UNL     1       6.644  -2.482   1.114  1.00  0.00    -0.271 OA
HETATM   72  N18 UNL     1       7.523  -3.707  -0.570  1.00  0.00    -0.368 N 
HETATM   73  H86 UNL     1       7.412  -3.896  -1.565  1.00  0.00     0.159 HD
HETATM   74  H87 UNL     1       7.511  -4.519   0.033  1.00  0.00     0.159 HD
ENDBRANCH  60  70
ENDBRANCH  58  60
ENDBRANCH  19  56
BRANCH  17  75
HETATM   75  C53 UNL     1       3.704  -6.104   1.212  1.00  0.00     0.073 C 
BRANCH  75  76
HETATM   76  C54 UNL     1       3.494  -6.166   2.709  1.00  0.00    -0.056 A 
HETATM   77  C55 UNL     1       4.337  -5.462   3.581  1.00  0.00     0.007 A 
HETATM   78  C56 UNL     1       4.129  -5.512   4.960  1.00  0.00     0.001 A 
HETATM   79  C57 UNL     1       3.081  -6.269   5.481  1.00  0.00     0.000 A 
HETATM   80  C58 UNL     1       2.243  -6.979   4.624  1.00  0.00     0.001 A 
HETATM   81  C59 UNL     1       2.449  -6.930   3.245  1.00  0.00     0.007 A 
ENDBRANCH  75  76
ENDBRANCH  17  75
BRANCH  22  82
HETATM   82  N15 UNL     1       1.447   2.129  -0.653  1.00  0.00    -0.345 N 
HETATM   83  C34 UNL     1       0.181   2.514  -1.041  1.00  0.00     0.251 C 
HETATM   84  O10 UNL     1      -0.500   1.870  -1.839  1.00  0.00    -0.271 OA
HETATM   85  H82 UNL     1       1.952   2.823  -0.104  1.00  0.00     0.163 HD
BRANCH  83  86
HETATM   86  C35 UNL     1      -0.304   3.837  -0.411  1.00  0.00     0.313 C 
BRANCH  86  87
HETATM   87  C36 UNL     1       0.003   5.041  -1.323  1.00  0.00     0.083 C 
BRANCH  87  88
HETATM   88  C37 UNL     1       1.449   5.227  -1.734  1.00  0.00    -0.056 A 
HETATM   89  C38 UNL     1       2.417   5.650  -0.812  1.00  0.00     0.010 A 
HETATM   90  C39 UNL     1       3.750   5.806  -1.200  1.00  0.00     0.037 A 
HETATM   91  C40 UNL     1       4.114   5.549  -2.517  1.00  0.00     0.065 A 
HETATM   92  C41 UNL     1       3.168   5.143  -3.449  1.00  0.00     0.037 A 
HETATM   93  C42 UNL     1       1.837   4.982  -3.060  1.00  0.00     0.010 A 
BRANCH  91  94
HETATM   94  O11 UNL     1       5.405   5.682  -2.935  1.00  0.00    -0.361 OA
HETATM   95  H67 UNL     1       5.936   6.025  -2.198  1.00  0.00     0.217 HD
ENDBRANCH  91  94
ENDBRANCH  87  88
ENDBRANCH  86  87
BRANCH  86  96
HETATM   96  N16 UNL     1       0.267   3.995   0.952  1.00  0.00     0.092 N 
HETATM   97  H83 UNL     1      -0.191   4.800   1.382  1.00  0.00     0.313 HD
HETATM   98  H84 UNL     1      -0.064   3.201   1.527  1.00  0.00     0.313 HD
ENDBRANCH  86  96
ENDBRANCH  83  86
ENDBRANCH  22  82
BRANCH  24  99
HETATM   99  C30 UNL     1       4.310   0.566   3.248  1.00  0.00     0.093 C 
BRANCH  99 100
HETATM  100  C31 UNL     1       3.630   1.778   3.796  1.00  0.00     0.028 A 
HETATM  101  C32 UNL     1       3.825   2.398   5.010  1.00  0.00     0.114 A 
HETATM  102  N13 UNL     1       2.966   3.462   5.018  1.00  0.00    -0.360 N 
HETATM  103  C33 UNL     1       2.291   3.453   3.831  1.00  0.00     0.180 A 
HETATM  104  H81 UNL     1       2.849   4.138   5.761  1.00  0.00     0.166 HD
HETATM  105  N14 UNL     1       2.665   2.448   3.072  1.00  0.00    -0.354 N 
ATOM    106  H14 UNL     1       2.316   2.213   2.143  1.00  0.00     0.166 HD
ENDBRANCH  99 100
ENDBRANCH  24  99
BRANCH  13 107
HETATM  107  C61 UNL     1      -2.276  -1.074  -1.416  1.00  0.00     0.137 C 
BRANCH 107 108
HETATM  108  C62 UNL     1      -1.217  -1.549  -2.378  1.00  0.00     0.217 C 
HETATM  109  O15 UNL     1      -0.776  -2.692  -2.411  1.00  0.00    -0.274 OA
HETATM  110  N19 UNL     1      -0.760  -0.576  -3.218  1.00  0.00    -0.370 N 
HETATM  111  H88 UNL     1       0.015  -0.805  -3.828  1.00  0.00     0.159 HD
HETATM  112  H89 UNL     1      -0.812   0.405  -2.932  1.00  0.00     0.159 HD
ENDBRANCH 107 108
ENDBRANCH  13 107
BRANCH  11 113
HETATM  113  C63 UNL     1      -8.024  -1.833  -0.746  1.00  0.00     0.076 C 
BRANCH 113 114
HETATM  114  C64 UNL     1      -8.427  -1.021  -1.940  1.00  0.00    -0.028 A 
HETATM  115  C65 UNL     1      -8.008  -1.215  -3.242  1.00  0.00     0.096 A 
HETATM  116  N20 UNL     1      -8.627  -0.296  -4.043  1.00  0.00    -0.365 N 
HETATM  117  C66 UNL     1      -9.457   0.503  -3.294  1.00  0.00     0.042 A 
HETATM  118  H90 UNL     1      -8.505  -0.222  -5.044  1.00  0.00     0.165 HD
HETATM  119  C67 UNL     1     -10.279   1.565  -3.688  1.00  0.00     0.030 A 
HETATM  120  C71 UNL     1      -9.364   0.066  -1.972  1.00  0.00    -0.002 A 
HETATM  121  C68 UNL     1     -11.029   2.205  -2.698  1.00  0.00     0.002 A 
HETATM  122  C69 UNL     1     -10.959   1.797  -1.370  1.00  0.00     0.001 A 
HETATM  123  C70 UNL     1     -10.135   0.729  -0.994  1.00  0.00     0.014 A 
ENDBRANCH 113 114
ENDBRANCH  11 113
BRANCH   9 124
HETATM  124  C11 UNL     1      -4.795   2.997  -1.143  1.00  0.00     0.028 C 
BRANCH 124 125
HETATM  125  C12 UNL     1      -3.890   2.283  -2.151  1.00  0.00     0.022 C 
BRANCH 125 126
HETATM  126  C13 UNL     1      -3.205   3.256  -3.108  1.00  0.00     0.122 C 
BRANCH 126 127
HETATM  127  N4  UNL     1      -4.181   3.903  -3.973  1.00  0.00    -0.367 N 
HETATM  128  C14 UNL     1      -3.812   4.949  -4.747  1.00  0.00     0.143 C 
HETATM  129  N5  UNL     1      -2.679   5.545  -4.691  1.00  0.00    -0.376 N 
HETATM  130  N6  UNL     1      -4.801   5.306  -5.589  1.00  0.00    -0.274 NA
HETATM  131  H72 UNL     1      -2.644   6.286  -5.391  1.00  0.00     0.158 HD
ATOM    132  H5  UNL     1      -1.925   5.313  -4.044  1.00  0.00     0.158 HD
HETATM  133  H73 UNL     1      -5.715   5.229  -5.156  1.00  0.00     0.127 HD
HETATM  134  H74 UNL     1      -4.684   6.221  -6.006  1.00  0.00     0.127 HD
HETATM  135  H71 UNL     1      -4.756   3.239  -4.479  1.00  0.00     0.162 HD
ENDBRANCH 126 127
ENDBRANCH 125 126
ENDBRANCH 124 125
ENDBRANCH   9 124
TORSDOF 24
