REMARK  0 active torsions:
REMARK  status: ('A' for Active; 'I' for Inactive)
REMARK       I    between atoms: C2_2  and  C3_3 
REMARK       I    between atoms: C4_4  and  O30_101 
REMARK       I    between atoms: C5_5  and  O29_100 
REMARK       I    between atoms: C6_6  and  O28_99 
REMARK       I    between atoms: C7_7  and  C9_9 
REMARK       I    between atoms: C9_9  and  O2_73 
REMARK       I    between atoms: C10_10  and  C11_11 
REMARK       I    between atoms: C10_10  and  O2_73 
REMARK       I    between atoms: C12_12  and  C67_67 
REMARK       I    between atoms: C13_13  and  C19_19 
REMARK       I    between atoms: C14_14  and  O5_76 
REMARK       I    between atoms: C15_15  and  O4_75 
REMARK       I    between atoms: C19_19  and  O6_77 
REMARK       I    between atoms: C20_20  and  C21_21 
REMARK       I    between atoms: C20_20  and  O6_77 
REMARK       I    between atoms: C22_22  and  C65_65 
REMARK       I    between atoms: C23_23  and  O10_81 
REMARK       I    between atoms: C24_24  and  O9_80 
REMARK       I    between atoms: C25_25  and  O8_79 
REMARK       I    between atoms: C29_29  and  C30_30 
REMARK       I    between atoms: C29_29  and  O10_81 
REMARK       I    between atoms: C31_31  and  O25_96 
REMARK       I    between atoms: C32_32  and  O24_95 
REMARK       I    between atoms: C33_33  and  O23_94 
REMARK       I    between atoms: C34_34  and  C36_36 
REMARK       I    between atoms: C36_36  and  O12_83 
REMARK       I    between atoms: C37_37  and  C38_38 
REMARK       I    between atoms: C37_37  and  O12_83 
REMARK       I    between atoms: C39_39  and  C60_60 
REMARK       I    between atoms: C40_40  and  C46_46 
REMARK       I    between atoms: C41_41  and  O15_86 
REMARK       I    between atoms: C42_42  and  O14_85 
REMARK       I    between atoms: C46_46  and  O16_87 
REMARK       I    between atoms: C47_47  and  C48_48 
REMARK       I    between atoms: C47_47  and  O16_87 
REMARK       I    between atoms: C49_49  and  C58_58 
REMARK       I    between atoms: C50_50  and  C56_56 
REMARK       I    between atoms: C51_51  and  O19_90 
REMARK       I    between atoms: C52_52  and  O18_89 
REMARK       I    between atoms: C56_56  and  O20_91 
REMARK       I    between atoms: C58_58  and  O21_92 
REMARK       I    between atoms: C60_60  and  O22_93 
REMARK       I    between atoms: C65_65  and  O26_97 
REMARK       I    between atoms: C67_67  and  O27_98 
ROOT
HETATM    1  C1  UNL     1      16.891  -4.890   1.946  1.00  0.00     0.007 C 
HETATM    2  C2  UNL     1      16.097  -3.992   1.012  1.00  0.00     0.030 C 
HETATM    3  C3  UNL     1      16.738  -2.620   0.718  1.00  0.00     0.159 C 
HETATM    4  C4  UNL     1      16.927  -1.670   1.932  1.00  0.00     0.114 C 
HETATM    5  C5  UNL     1      17.481  -0.295   1.424  1.00  0.00     0.120 C 
HETATM    6  C6  UNL     1      16.704   0.304   0.188  1.00  0.00     0.120 C 
HETATM    7  C7  UNL     1      16.400  -0.816  -0.892  1.00  0.00     0.112 C 
HETATM    8  C8  UNL     1      17.638  -1.171  -1.756  1.00  0.00     0.051 C 
HETATM    9  C9  UNL     1      15.310  -0.414  -1.940  1.00  0.00     0.208 C 
HETATM   10  C10 UNL     1      12.964  -0.206  -2.300  1.00  0.00     0.182 C 
HETATM   11  C11 UNL     1      11.588  -0.122  -1.579  1.00  0.00     0.039 C 
HETATM   12  C12 UNL     1      11.521   1.083  -0.603  1.00  0.00     0.159 C 
HETATM   13  C13 UNL     1       9.025   1.240  -0.793  1.00  0.00     0.112 C 
HETATM   14  C14 UNL     1       8.988   0.134  -1.922  1.00  0.00     0.118 C 
HETATM   15  C15 UNL     1      10.398  -0.076  -2.617  1.00  0.00     0.099 C 
HETATM   16  C16 UNL     1      10.645   0.889  -3.796  1.00  0.00     0.050 C 
HETATM   17  C17 UNL     1       7.866   0.344  -2.960  1.00  0.00     0.052 C 
HETATM   18  C18 UNL     1       8.814   2.671  -1.320  1.00  0.00     0.051 C 
HETATM   19  C19 UNL     1       7.930   1.008   0.299  1.00  0.00     0.208 C 
HETATM   20  C20 UNL     1       5.634   0.764   0.807  1.00  0.00     0.182 C 
HETATM   21  C21 UNL     1       4.234   1.425   0.569  1.00  0.00     0.040 C 
HETATM   22  C22 UNL     1       3.273   0.771   1.618  1.00  0.00     0.162 C 
HETATM   23  C23 UNL     1       1.310   0.762   0.224  1.00  0.00     0.194 C 
HETATM   24  C24 UNL     1       2.096   1.401  -0.979  1.00  0.00     0.141 C 
HETATM   25  C25 UNL     1       3.658   1.162  -0.890  1.00  0.00     0.102 C 
HETATM   26  C26 UNL     1       4.346   2.004  -1.997  1.00  0.00     0.050 C 
HETATM   27  C27 UNL     1       1.496   0.941  -2.323  1.00  0.00     0.055 C 
HETATM   28  C28 UNL     1       1.167  -0.767   0.151  1.00  0.00     0.082 C 
HETATM   29  C29 UNL     1      -0.874   1.027   1.268  1.00  0.00     0.206 C 
HETATM   30  C30 UNL     1      -2.248   1.695   1.091  1.00  0.00     0.183 C 
HETATM   31  C31 UNL     1      -2.240   3.259   1.030  1.00  0.00     0.116 C 
HETATM   32  C32 UNL     1      -3.624   3.813   1.572  1.00  0.00     0.120 C 
HETATM   33  C33 UNL     1      -4.781   2.820   1.140  1.00  0.00     0.120 C 
HETATM   34  C34 UNL     1      -4.535   1.406   1.829  1.00  0.00     0.113 C 
HETATM   35  C35 UNL     1      -5.232   1.255   3.201  1.00  0.00     0.051 C 
HETATM   36  C36 UNL     1      -4.988   0.205   0.947  1.00  0.00     0.208 C 
HETATM   37  C37 UNL     1      -6.824  -0.844  -0.120  1.00  0.00     0.182 C 
HETATM   38  C38 UNL     1      -8.379  -0.915  -0.254  1.00  0.00     0.039 C 
HETATM   39  C39 UNL     1      -8.635  -1.782  -1.530  1.00  0.00     0.159 C 
HETATM   40  C40 UNL     1     -10.050  -3.473  -0.532  1.00  0.00     0.112 C 
HETATM   41  C41 UNL     1      -9.266  -3.145   0.813  1.00  0.00     0.118 C 
HETATM   42  C42 UNL     1      -9.103  -1.585   1.003  1.00  0.00     0.099 C 
HETATM   43  C43 UNL     1      -8.402  -1.243   2.335  1.00  0.00     0.050 C 
HETATM   44  C44 UNL     1      -9.918  -3.843   2.023  1.00  0.00     0.052 C 
HETATM   45  C45 UNL     1      -9.527  -4.766  -1.202  1.00  0.00     0.051 C 
HETATM   46  C46 UNL     1     -11.589  -3.674  -0.380  1.00  0.00     0.208 C 
HETATM   47  C47 UNL     1     -13.663  -2.695   0.201  1.00  0.00     0.182 C 
HETATM   48  C48 UNL     1     -14.464  -1.376   0.434  1.00  0.00     0.039 C 
HETATM   49  C49 UNL     1     -15.908  -1.813   0.847  1.00  0.00     0.159 C 
HETATM   50  C50 UNL     1     -17.167  -0.587  -0.829  1.00  0.00     0.112 C 
HETATM   51  C51 UNL     1     -15.857  -0.705  -1.728  1.00  0.00     0.118 C 
HETATM   52  C52 UNL     1     -14.554  -0.437  -0.851  1.00  0.00     0.099 C 
HETATM   53  C53 UNL     1     -13.274  -0.441  -1.710  1.00  0.00     0.050 C 
HETATM   54  C54 UNL     1     -15.771  -2.041  -2.500  1.00  0.00     0.052 C 
HETATM   55  C55 UNL     1     -18.275  -1.601  -1.201  1.00  0.00     0.051 C 
HETATM   56  C56 UNL     1     -17.869   0.810  -0.914  1.00  0.00     0.207 C 
HETATM   57  C57 UNL     1     -17.638   3.150  -0.676  1.00  0.00     0.201 C 
HETATM   58  C58 UNL     1     -16.088  -2.185   2.331  1.00  0.00     0.197 C 
HETATM   59  C59 UNL     1     -13.776  -0.607   1.595  1.00  0.00     0.023 C 
HETATM   60  C60 UNL     1      -8.566  -1.024  -2.870  1.00  0.00     0.197 C 
HETATM   61  C61 UNL     1      -8.910   0.531  -0.439  1.00  0.00     0.023 C 
HETATM   62  C62 UNL     1      -6.181   3.378   1.438  1.00  0.00     0.052 C 
HETATM   63  C63 UNL     1      -3.885   5.249   1.071  1.00  0.00     0.052 C 
HETATM   64  C64 UNL     1      -1.061   3.902   1.784  1.00  0.00     0.052 C 
HETATM   65  C65 UNL     1       3.593   1.074   3.096  1.00  0.00     0.197 C 
HETATM   66  C66 UNL     1       4.380   2.941   0.844  1.00  0.00     0.023 C 
HETATM   67  C67 UNL     1      12.068   2.443  -1.082  1.00  0.00     0.197 C 
HETATM   68  C68 UNL     1      11.509  -1.407  -0.685  1.00  0.00     0.023 C 
HETATM   69  C69 UNL     1      15.464   1.099   0.635  1.00  0.00     0.052 C 
HETATM   70  C70 UNL     1      17.695   0.719   2.569  1.00  0.00     0.052 C 
HETATM   71  C71 UNL     1      15.645  -1.567   2.768  1.00  0.00     0.052 C 
HETATM   72  O1  UNL     1      15.893  -2.012  -0.268  1.00  0.00    -0.367 OA
HETATM   73  O2  UNL     1      14.025  -0.227  -1.341  1.00  0.00    -0.387 OA
HETATM   74  O3  UNL     1      10.226   1.185  -0.000  1.00  0.00    -0.367 OA
HETATM   75  O4  UNL     1      10.349  -1.367  -3.283  1.00  0.00    -0.386 OA
HETATM   76  O5  UNL     1       8.675  -1.169  -1.343  1.00  0.00    -0.384 OA
HETATM   77  O6  UNL     1       6.592   1.075  -0.204  1.00  0.00    -0.387 OA
HETATM   78  O7  UNL     1       1.912   1.190   1.445  1.00  0.00    -0.344 OA
HETATM   79  O8  UNL     1       3.922  -0.219  -1.208  1.00  0.00    -0.386 OA
HETATM   80  O9  UNL     1       1.863   2.837  -0.938  1.00  0.00    -0.381 OA
HETATM   81  O10 UNL     1      -0.019   1.366   0.172  1.00  0.00    -0.350 OA
HETATM   82  O11 UNL     1      -3.114   1.238   2.137  1.00  0.00    -0.365 OA
HETATM   83  O12 UNL     1      -6.409   0.149   0.815  1.00  0.00    -0.387 OA
HETATM   84  O13 UNL     1      -9.928  -2.397  -1.492  1.00  0.00    -0.367 OA
HETATM   85  O14 UNL     1     -10.405  -1.006   1.188  1.00  0.00    -0.386 OA
HETATM   86  O15 UNL     1      -7.934  -3.710   0.713  1.00  0.00    -0.384 OA
HETATM   87  O16 UNL     1     -12.253  -2.487   0.075  1.00  0.00    -0.387 OA
HETATM   88  O17 UNL     1     -16.875  -0.792   0.573  1.00  0.00    -0.367 OA
HETATM   89  O18 UNL     1     -14.592   0.931  -0.376  1.00  0.00    -0.386 OA
HETATM   90  O19 UNL     1     -15.892   0.292  -2.777  1.00  0.00    -0.384 OA
HETATM   91  O20 UNL     1     -16.971   1.894  -0.677  1.00  0.00    -0.393 OA
HETATM   92  O21 UNL     1     -17.410  -2.701   2.518  1.00  0.00    -0.398 OA
HETATM   93  O22 UNL     1      -8.710  -1.961  -3.943  1.00  0.00    -0.398 OA
HETATM   94  O23 UNL     1      -4.746   2.654  -0.301  1.00  0.00    -0.384 OA
HETATM   95  O24 UNL     1      -3.580   3.927   3.008  1.00  0.00    -0.384 OA
HETATM   96  O25 UNL     1      -2.107   3.625  -0.362  1.00  0.00    -0.384 OA
HETATM   97  O26 UNL     1       2.690   0.338   3.927  1.00  0.00    -0.398 OA
HETATM   98  O27 UNL     1      12.124   3.361   0.013  1.00  0.00    -0.398 OA
HETATM   99  O28 UNL     1      17.602   1.293  -0.397  1.00  0.00    -0.384 OA
HETATM  100  O29 UNL     1      18.853  -0.561   0.984  1.00  0.00    -0.384 OA
HETATM  101  O30 UNL     1      17.936  -2.226   2.806  1.00  0.00    -0.384 OA
HETATM  102  HB5 UNL     1       9.806  -1.928  -2.688  1.00  0.00     0.210 HD
HETATM  103  HB6 UNL     1       7.758  -1.139  -1.016  1.00  0.00     0.210 HD
HETATM  104  HB7 UNL     1       4.849  -0.272  -1.507  1.00  0.00     0.210 HD
HETATM  105  HB8 UNL     1       1.027   2.945  -0.448  1.00  0.00     0.211 HD
HETATM  106  HB9 UNL     1     -10.990  -1.286   0.452  1.00  0.00     0.210 HD
HETATM  107  HC0 UNL     1      -7.528  -3.692   1.598  1.00  0.00     0.210 HD
HETATM  108  HC1 UNL     1     -15.327   1.394  -0.832  1.00  0.00     0.210 HD
HETATM  109  HC2 UNL     1     -16.625   0.093  -3.384  1.00  0.00     0.210 HD
HETATM  110  HC3 UNL     1     -17.999  -1.994   2.189  1.00  0.00     0.209 HD
HETATM  111  HC4 UNL     1      -9.513  -2.471  -3.719  1.00  0.00     0.209 HD
HETATM  112  HC5 UNL     1      -4.055   3.235  -0.678  1.00  0.00     0.210 HD
HETATM  113  HC6 UNL     1      -3.231   3.085   3.357  1.00  0.00     0.210 HD
HETATM  114  HC7 UNL     1      -1.288   3.209  -0.694  1.00  0.00     0.210 HD
HETATM  115  HC8 UNL     1       1.799   0.563   3.599  1.00  0.00     0.209 HD
HETATM  116  HC9 UNL     1      12.431   4.215  -0.336  1.00  0.00     0.209 HD
HETATM  117  HD0 UNL     1      17.086   1.833  -1.022  1.00  0.00     0.210 HD
HETATM  118  HD1 UNL     1      19.090   0.231   0.454  1.00  0.00     0.210 HD
HETATM  119  HD2 UNL     1      18.788  -1.995   2.378  1.00  0.00     0.210 HD
ENDROOT
TORSDOF 44
