REMARK  0 active torsions:
REMARK  status: ('A' for Active; 'I' for Inactive)
REMARK       I    between atoms: C2_2  and  C3_3 
REMARK       I    between atoms: C3_3  and  C5_5 
REMARK       I    between atoms: C5_5  and  C6_6 
REMARK       I    between atoms: C5_5  and  N6_69 
REMARK       I    between atoms: C6_6  and  N1_64 
REMARK       I    between atoms: C7_7  and  C8_8 
REMARK       I    between atoms: C7_7  and  C10_10 
REMARK       I    between atoms: C7_7  and  N1_64 
REMARK       I    between atoms: C8_8  and  O2_50 
REMARK       I    between atoms: C10_10  and  N2_65 
REMARK       I    between atoms: C11_11  and  C12_12 
REMARK       I    between atoms: C11_11  and  C15_15 
REMARK       I    between atoms: C11_11  and  N2_65 
REMARK       I    between atoms: C12_12  and  C13_13 
REMARK       I    between atoms: C13_13  and  C14_14 
REMARK       I    between atoms: C14_14  and  N3_66 
REMARK       I    between atoms: C15_15  and  N4_67 
REMARK       I    between atoms: C16_16  and  C17_17 
REMARK       I    between atoms: C16_16  and  C19_19 
REMARK       I    between atoms: C16_16  and  N4_67 
REMARK       I    between atoms: C17_17  and  O6_54 
REMARK       I    between atoms: C19_19  and  N5_68 
REMARK       I    between atoms: C20_20  and  C21_21 
REMARK       I    between atoms: C20_20  and  C28_28 
REMARK       I    between atoms: C20_20  and  N5_68 
REMARK       I    between atoms: C21_21  and  C22_22 
REMARK       I    between atoms: C28_28  and  O9_57 
REMARK       I    between atoms: C29_29  and  C30_30 
REMARK       I    between atoms: C29_29  and  N6_69 
REMARK       I    between atoms: C30_30  and  C31_31 
REMARK       I    between atoms: C30_30  and  N7_70 
REMARK       I    between atoms: C31_31  and  C32_32 
REMARK       I    between atoms: C35_35  and  C36_36 
REMARK       I    between atoms: C35_35  and  N7_70 
REMARK       I    between atoms: C36_36  and  C37_37 
REMARK       I    between atoms: C36_36  and  N9_72 
REMARK       I    between atoms: C37_37  and  C38_38 
REMARK       I    between atoms: C38_38  and  C39_39 
REMARK       I    between atoms: C39_39  and  C40_40 
REMARK       I    between atoms: C40_40  and  N8_71 
REMARK       I    between atoms: C41_41  and  C42_42 
REMARK       I    between atoms: C41_41  and  N9_72 
REMARK       I    between atoms: C42_42  and  C43_43 
REMARK       I    between atoms: C42_42  and  N10_73 
REMARK       I    between atoms: C43_43  and  C44_44 
REMARK       I    between atoms: C44_44  and  C45_45 
REMARK       I    between atoms: C45_45  and  O14_62 
REMARK       I    between atoms: C46_46  and  C47_47 
REMARK       I    between atoms: C46_46  and  N10_73 
REMARK       I    between atoms: C47_47  and  N11_74 
ROOT
HETATM    1  C1  UNL     1      -0.587  -3.545   3.690  1.00  0.00     0.005 C 
HETATM    2  C2  UNL     1       0.812  -3.040   3.364  1.00  0.00     0.002 C 
HETATM    3  C3  UNL     1       1.399  -3.563   2.030  1.00  0.00     0.013 C 
HETATM    4  C4  UNL     1       2.933  -3.456   2.124  1.00  0.00     0.012 C 
HETATM    5  C5  UNL     1       0.896  -2.787   0.786  1.00  0.00     0.180 C 
HETATM    6  C6  UNL     1       1.363  -3.427  -0.548  1.00  0.00     0.241 C 
HETATM    7  C7  UNL     1       1.586  -3.018  -3.001  1.00  0.00     0.205 C 
HETATM    8  C8  UNL     1       0.702  -2.401  -4.111  1.00  0.00     0.146 C 
HETATM    9  C9  UNL     1       0.508  -0.887  -4.048  1.00  0.00     0.042 C 
HETATM   10  C10 UNL     1       3.078  -2.641  -3.148  1.00  0.00     0.243 C 
HETATM   11  C11 UNL     1       5.272  -2.930  -1.988  1.00  0.00     0.177 C 
HETATM   12  C12 UNL     1       6.138  -2.635  -3.235  1.00  0.00     0.044 C 
HETATM   13  C13 UNL     1       7.498  -3.341  -3.232  1.00  0.00     0.105 C 
HETATM   14  C14 UNL     1       8.397  -2.755  -2.181  1.00  0.00     0.215 C 
HETATM   15  C15 UNL     1       5.125  -1.740  -0.984  1.00  0.00     0.241 C 
HETATM   16  C16 UNL     1       6.352  -0.054   0.377  1.00  0.00     0.205 C 
HETATM   17  C17 UNL     1       5.985  -0.395   1.839  1.00  0.00     0.146 C 
HETATM   18  C18 UNL     1       6.954  -1.371   2.501  1.00  0.00     0.042 C 
HETATM   19  C19 UNL     1       7.751   0.601   0.263  1.00  0.00     0.243 C 
HETATM   20  C20 UNL     1       9.175   2.454   1.089  1.00  0.00     0.186 C 
HETATM   21  C21 UNL     1       9.008   3.956   1.351  1.00  0.00     0.074 C 
HETATM   22  C22 UNL     1       8.470   4.702   0.153  1.00  0.00    -0.056 A 
HETATM   23  C23 UNL     1       9.339   5.143  -0.855  1.00  0.00     0.007 A 
HETATM   24  C24 UNL     1       8.842   5.817  -1.971  1.00  0.00     0.001 A 
HETATM   25  C25 UNL     1       7.474   6.053  -2.093  1.00  0.00     0.000 A 
HETATM   26  C26 UNL     1       6.601   5.614  -1.099  1.00  0.00     0.001 A 
HETATM   27  C27 UNL     1       7.096   4.941   0.019  1.00  0.00     0.007 A 
HETATM   28  C28 UNL     1       9.943   1.845   2.260  1.00  0.00     0.163 C 
HETATM   29  C29 UNL     1      -1.231  -1.706   0.112  1.00  0.00     0.241 C 
HETATM   30  C30 UNL     1      -2.753  -1.888  -0.024  1.00  0.00     0.177 C 
HETATM   31  C31 UNL     1      -3.117  -2.543  -1.367  1.00  0.00     0.038 C 
HETATM   32  C32 UNL     1      -2.742  -4.031  -1.517  1.00  0.00    -0.020 C 
HETATM   33  C33 UNL     1      -3.094  -4.509  -2.929  1.00  0.00     0.009 C 
HETATM   34  C34 UNL     1      -3.447  -4.917  -0.489  1.00  0.00     0.009 C 
HETATM   35  C35 UNL     1      -4.641  -0.336   0.415  1.00  0.00     0.241 C 
HETATM   36  C36 UNL     1      -5.073   1.144   0.407  1.00  0.00     0.176 C 
HETATM   37  C37 UNL     1      -4.541   1.841   1.665  1.00  0.00     0.035 C 
HETATM   38  C38 UNL     1      -5.046   3.275   1.875  1.00  0.00     0.004 C 
HETATM   39  C39 UNL     1      -4.692   4.224   0.726  1.00  0.00     0.030 C 
HETATM   40  C40 UNL     1      -5.250   5.637   0.912  1.00  0.00     0.267 C 
HETATM   41  C41 UNL     1      -7.206   1.339  -0.838  1.00  0.00     0.241 C 
HETATM   42  C42 UNL     1      -8.729   1.074  -0.729  1.00  0.00     0.177 C 
HETATM   43  C43 UNL     1      -9.523   1.769  -1.852  1.00  0.00     0.045 C 
HETATM   44  C44 UNL     1     -10.932   1.205  -2.050  1.00  0.00     0.112 C 
HETATM   45  C45 UNL     1     -11.833   1.502  -0.886  1.00  0.00     0.139 C 
HETATM   46  C46 UNL     1      -9.327   2.611   1.135  1.00  0.00     0.251 C 
HETATM   47  C47 UNL     1     -10.317   2.756   2.313  1.00  0.00     0.304 C 
HETATM   48  C48 UNL     1      -9.609   3.355   3.521  1.00  0.00     0.053 C 
HETATM   49  O1  UNL     1       1.890  -4.534  -0.633  1.00  0.00    -0.271 OA
HETATM   50  O2  UNL     1       1.191  -2.752  -5.409  1.00  0.00    -0.393 OA
HETATM   51  O3  UNL     1       3.478  -1.779  -3.926  1.00  0.00    -0.271 OA
HETATM   52  O4  UNL     1       8.344  -3.110  -1.007  1.00  0.00    -0.274 OA
HETATM   53  O5  UNL     1       4.033  -1.316  -0.600  1.00  0.00    -0.271 OA
HETATM   54  O6  UNL     1       5.917   0.805   2.626  1.00  0.00    -0.393 OA
HETATM   55  O7  UNL     1       8.663   0.134  -0.421  1.00  0.00    -0.271 OA
HETATM   56  O8  UNL     1       9.465   1.312   3.251  1.00  0.00    -0.648 OA
HETATM   57  O9  UNL     1      11.280   1.983   2.142  1.00  0.00    -0.775 OA
HETATM   58  O10 UNL     1      -0.649  -0.705  -0.309  1.00  0.00    -0.271 OA
HETATM   59  O11 UNL     1      -5.387  -1.249   0.770  1.00  0.00    -0.271 OA
HETATM   60  O12 UNL     1      -6.631   1.528  -1.908  1.00  0.00    -0.271 OA
HETATM   61  O13 UNL     1     -12.386   2.561  -0.646  1.00  0.00    -0.650 OA
HETATM   62  O14 UNL     1     -11.912   0.466  -0.026  1.00  0.00    -0.776 OA
HETATM   63  O15 UNL     1      -8.670   3.552   0.703  1.00  0.00    -0.271 OA
HETATM   64  N1  UNL     1       1.125  -2.648  -1.659  1.00  0.00    -0.344 N 
HETATM   65  N2  UNL     1       3.921  -3.382  -2.332  1.00  0.00    -0.346 N 
HETATM   66  N3  UNL     1       9.165  -1.704  -2.570  1.00  0.00    -0.370 N 
HETATM   67  N4  UNL     1       6.299  -1.217  -0.505  1.00  0.00    -0.344 N 
HETATM   68  N5  UNL     1       7.883   1.775   0.973  1.00  0.00    -0.344 N 
HETATM   69  N6  UNL     1      -0.564  -2.756   0.703  1.00  0.00    -0.346 N 
HETATM   70  N7  UNL     1      -3.330  -0.550   0.059  1.00  0.00    -0.346 N 
HETATM   71  N8  UNL     1      -4.664   6.320   2.062  1.00  0.00     0.078 N 
HETATM   72  N9  UNL     1      -6.525   1.182   0.352  1.00  0.00    -0.346 N 
HETATM   73  N10 UNL     1      -9.260   1.332   0.611  1.00  0.00    -0.346 N 
HETATM   74  N11 UNL     1     -10.940   1.448   2.664  1.00  0.00     0.091 N 
HETATM   75  H62 UNL     1       2.036  -2.272  -5.529  1.00  0.00     0.210 HD
HETATM   76  H63 UNL     1       5.634   0.540   3.521  1.00  0.00     0.210 HD
HETATM   77  H64 UNL     1      11.639   1.534   2.935  1.00  0.00     0.167 HD
HETATM   78  H65 UNL     1     -12.376   0.835   0.761  1.00  0.00     0.167 HD
HETATM   79  H66 UNL     1       0.965  -1.658  -1.470  1.00  0.00     0.163 HD
HETATM   80  H67 UNL     1       3.453  -3.958  -1.633  1.00  0.00     0.163 HD
HETATM   81  H68 UNL     1       9.527  -1.140  -1.799  1.00  0.00     0.159 HD
HETATM   82  H69 UNL     1       8.919  -1.170  -3.393  1.00  0.00     0.159 HD
HETATM   83  H70 UNL     1       7.149  -1.777  -0.548  1.00  0.00     0.163 HD
HETATM   84  H71 UNL     1       7.232   1.873   1.756  1.00  0.00     0.163 HD
HETATM   85  H72 UNL     1      -1.046  -3.642   0.795  1.00  0.00     0.163 HD
HETATM   86  H73 UNL     1      -2.770   0.215  -0.309  1.00  0.00     0.163 HD
HETATM   87  H74 UNL     1      -5.036   7.268   2.102  1.00  0.00     0.312 HD
HETATM   88  H75 UNL     1      -4.976   5.865   2.918  1.00  0.00     0.312 HD
HETATM   89  H76 UNL     1      -7.037   0.728   1.099  1.00  0.00     0.163 HD
HETATM   90  H77 UNL     1     -10.029   0.738   0.920  1.00  0.00     0.163 HD
HETATM   91  H78 UNL     1     -11.613   1.627   3.415  1.00  0.00     0.313 HD
HETATM   92  H79 UNL     1     -10.219   0.873   3.110  1.00  0.00     0.313 HD
ENDROOT
TORSDOF 41
