REMARK  0 active torsions:
REMARK  status: ('A' for Active; 'I' for Inactive)
REMARK       I    between atoms: C4_4  and  O7_76 
REMARK       I    between atoms: C7_7  and  S1_69 
REMARK       I    between atoms: C8_8  and  C9_9 
REMARK       I    between atoms: C8_8  and  C44_44 
REMARK       I    between atoms: C8_8  and  N1_83 
REMARK       I    between atoms: C9_9  and  N2_84 
REMARK       I    between atoms: C10_10  and  C11_11 
REMARK       I    between atoms: C10_10  and  N2_84 
REMARK       I    between atoms: C18_18  and  C20_20 
REMARK       I    between atoms: C20_20  and  N4_86 
REMARK       I    between atoms: C21_21  and  N4_86 
REMARK       I    between atoms: C24_24  and  C25_25 
REMARK       I    between atoms: C24_24  and  C31_31 
REMARK       I    between atoms: C24_24  and  C37_37 
REMARK       I    between atoms: C24_24  and  N6_89 
REMARK       I    between atoms: C44_44  and  O6_75 
REMARK       I    between atoms: C47_47  and  C48_48 
REMARK       I    between atoms: C47_47  and  O7_76 
REMARK       I    between atoms: C48_48  and  C49_49 
REMARK       I    between atoms: C49_49  and  C50_50 
REMARK       I    between atoms: C50_50  and  N7_90 
REMARK       I    between atoms: C51_51  and  C52_52 
REMARK       I    between atoms: C51_51  and  N7_90 
REMARK       I    between atoms: C52_52  and  C53_53 
REMARK       I    between atoms: C53_53  and  O9_78 
REMARK       I    between atoms: C54_54  and  C55_55 
REMARK       I    between atoms: C54_54  and  O9_78 
REMARK       I    between atoms: C55_55  and  O10_79 
REMARK       I    between atoms: C56_56  and  C57_57 
REMARK       I    between atoms: C56_56  and  O10_79 
REMARK       I    between atoms: C57_57  and  O11_80 
REMARK       I    between atoms: C58_58  and  C59_59 
REMARK       I    between atoms: C58_58  and  O11_80 
REMARK       I    between atoms: C59_59  and  C60_60 
REMARK       I    between atoms: C60_60  and  N8_91 
REMARK       I    between atoms: C61_61  and  O13_82 
REMARK       I    between atoms: C61_61  and  N8_91 
REMARK       I    between atoms: C62_62  and  C63_63 
REMARK       I    between atoms: C62_62  and  O13_82 
REMARK       I    between atoms: S1_69  and  N1_83 
ROOT
HETATM    1  C1  UNL     1      -0.969  -6.311   2.104  1.00  0.00     0.050 C 
HETATM    2  C2  UNL     1      -0.834  -5.390   0.918  1.00  0.00    -0.035 A 
HETATM    3  C3  UNL     1      -0.031  -4.243   1.095  1.00  0.00     0.045 A 
HETATM    4  C4  UNL     1       0.186  -3.346   0.056  1.00  0.00     0.069 A 
HETATM    5  C5  UNL     1      -0.394  -3.602  -1.184  1.00  0.00     0.045 A 
HETATM    6  C6  UNL     1      -1.198  -4.735  -1.417  1.00  0.00    -0.035 A 
HETATM    7  C7  UNL     1      -1.425  -5.637  -0.351  1.00  0.00     0.091 A 
HETATM    8  C8  UNL     1      -4.661  -5.584  -0.005  1.00  0.00     0.210 C 
HETATM    9  C9  UNL     1      -5.887  -6.064  -0.796  1.00  0.00     0.159 C 
HETATM   10  C10 UNL     1      -6.495  -4.006  -2.040  1.00  0.00     0.257 C 
HETATM   11  C11 UNL     1      -7.589  -3.038  -2.332  1.00  0.00     0.098 A 
HETATM   12  C12 UNL     1      -7.348  -2.039  -3.194  1.00  0.00     0.112 A 
HETATM   13  C13 UNL     1      -9.525  -1.013  -2.995  1.00  0.00     0.048 A 
HETATM   14  C14 UNL     1      -9.907  -2.016  -2.082  1.00  0.00     0.042 A 
HETATM   15  C15 UNL     1      -8.938  -3.080  -1.716  1.00  0.00     0.201 A 
HETATM   16  C16 UNL     1     -11.175  -2.022  -1.482  1.00  0.00     0.018 A 
HETATM   17  C17 UNL     1     -12.085  -1.009  -1.767  1.00  0.00     0.010 A 
HETATM   18  C18 UNL     1     -11.739   0.007  -2.662  1.00  0.00    -0.038 A 
HETATM   19  C19 UNL     1     -10.469  -0.013  -3.272  1.00  0.00     0.039 A 
HETATM   20  C20 UNL     1     -12.677   1.164  -2.926  1.00  0.00     0.176 C 
HETATM   21  C21 UNL     1     -11.455   3.239  -2.696  1.00  0.00     0.681 A 
HETATM   22  C22 UNL     1     -10.379   4.418  -4.130  1.00  0.00     0.124 A 
HETATM   23  C23 UNL     1      -9.926   4.826  -2.904  1.00  0.00     0.128 A 
HETATM   24  C24 UNL     1     -10.461   4.161  -0.468  1.00  0.00     0.136 C 
HETATM   25  C25 UNL     1     -11.817   4.349   0.320  1.00  0.00    -0.020 A 
HETATM   26  C26 UNL     1     -11.817   4.290   1.735  1.00  0.00     0.010 A 
HETATM   27  C27 UNL     1     -12.979   4.503   2.481  1.00  0.00     0.001 A 
HETATM   28  C28 UNL     1     -14.171   4.811   1.837  1.00  0.00     0.000 A 
HETATM   29  C29 UNL     1     -14.195   4.925   0.451  1.00  0.00     0.001 A 
HETATM   30  C30 UNL     1     -13.030   4.715  -0.296  1.00  0.00     0.010 A 
HETATM   31  C31 UNL     1      -9.615   5.435  -0.043  1.00  0.00    -0.020 A 
HETATM   32  C32 UNL     1      -8.493   5.359   0.807  1.00  0.00     0.010 A 
HETATM   33  C33 UNL     1      -7.802   6.509   1.203  1.00  0.00     0.001 A 
HETATM   34  C34 UNL     1      -8.229   7.765   0.782  1.00  0.00     0.000 A 
HETATM   35  C35 UNL     1      -9.357   7.876  -0.022  1.00  0.00     0.001 A 
HETATM   36  C36 UNL     1     -10.049   6.729  -0.418  1.00  0.00     0.010 A 
HETATM   37  C37 UNL     1      -9.708   2.807  -0.152  1.00  0.00    -0.020 A 
HETATM   38  C38 UNL     1      -8.438   2.562  -0.729  1.00  0.00     0.010 A 
HETATM   39  C39 UNL     1      -7.742   1.372  -0.500  1.00  0.00     0.001 A 
HETATM   40  C40 UNL     1      -8.300   0.385   0.302  1.00  0.00     0.000 A 
HETATM   41  C41 UNL     1      -9.558   0.581   0.860  1.00  0.00     0.001 A 
HETATM   42  C42 UNL     1     -10.258   1.771   0.628  1.00  0.00     0.010 A 
HETATM   43  C43 UNL     1      -7.856   0.025  -4.496  1.00  0.00     0.156 C 
HETATM   44  C44 UNL     1      -5.089  -4.978   1.329  1.00  0.00     0.283 C 
HETATM   45  C45 UNL     1      -5.926  -3.068   2.396  1.00  0.00     0.213 C 
HETATM   46  C46 UNL     1      -1.752  -4.896  -2.807  1.00  0.00     0.050 C 
HETATM   47  C47 UNL     1       1.520  -1.809   1.344  1.00  0.00     0.176 C 
HETATM   48  C48 UNL     1       2.876  -2.470   1.583  1.00  0.00     0.036 C 
HETATM   49  C49 UNL     1       3.844  -2.236   0.424  1.00  0.00     0.105 C 
HETATM   50  C50 UNL     1       5.218  -2.809   0.711  1.00  0.00     0.217 C 
HETATM   51  C51 UNL     1       7.452  -3.147  -0.298  1.00  0.00     0.124 C 
HETATM   52  C52 UNL     1       8.369  -2.121   0.365  1.00  0.00     0.046 C 
HETATM   53  C53 UNL     1       8.449  -0.800  -0.399  1.00  0.00     0.169 C 
HETATM   54  C54 UNL     1      10.123  -1.398  -2.049  1.00  0.00     0.193 C 
HETATM   55  C55 UNL     1      11.212  -0.406  -1.622  1.00  0.00     0.193 C 
HETATM   56  C56 UNL     1      12.467  -1.549   0.093  1.00  0.00     0.193 C 
HETATM   57  C57 UNL     1      13.916  -1.190  -0.266  1.00  0.00     0.193 C 
HETATM   58  C58 UNL     1      14.372   0.329   1.562  1.00  0.00     0.169 C 
HETATM   59  C59 UNL     1      15.556  -0.363   2.235  1.00  0.00     0.046 C 
HETATM   60  C60 UNL     1      16.902   0.007   1.613  1.00  0.00     0.127 C 
HETATM   61  C61 UNL     1      17.741   1.923   2.923  1.00  0.00     0.360 C 
HETATM   62  C62 UNL     1      18.388   3.909   3.947  1.00  0.00     0.219 C 
HETATM   63  C63 UNL     1      18.463   5.387   3.661  1.00  0.00    -0.034 A 
HETATM   64  C64 UNL     1      19.613   5.943   3.084  1.00  0.00     0.009 A 
HETATM   65  C65 UNL     1      19.674   7.309   2.803  1.00  0.00     0.001 A 
HETATM   66  C66 UNL     1      18.585   8.130   3.089  1.00  0.00     0.000 A 
HETATM   67  C67 UNL     1      17.431   7.585   3.651  1.00  0.00     0.001 A 
HETATM   68  C68 UNL     1      17.368   6.219   3.932  1.00  0.00     0.009 A 
HETATM   69  S1  UNL     1      -2.451  -7.104  -0.570  1.00  0.00     0.260 S 
HETATM   70  O1  UNL     1      -1.801  -8.215   0.088  1.00  0.00    -0.200 OA
HETATM   71  O2  UNL     1      -2.890  -7.227  -1.941  1.00  0.00    -0.200 OA
HETATM   72  O3  UNL     1      -5.372  -3.886  -2.522  1.00  0.00    -0.267 OA
HETATM   73  O4  UNL     1      -9.246  -3.958  -0.911  1.00  0.00    -0.286 OA
HETATM   74  O5  UNL     1      -5.035  -5.578   2.400  1.00  0.00    -0.263 OA
HETATM   75  O6  UNL     1      -5.512  -3.692   1.181  1.00  0.00    -0.325 OA
HETATM   76  O7  UNL     1       0.940  -2.209   0.104  1.00  0.00    -0.351 OA
HETATM   77  O8  UNL     1       5.542  -3.293   1.790  1.00  0.00    -0.274 OA
HETATM   78  O9  UNL     1       8.789  -0.953  -1.776  1.00  0.00    -0.389 OA
HETATM   79  O10 UNL     1      11.531  -0.520  -0.232  1.00  0.00    -0.387 OA
HETATM   80  O11 UNL     1      14.328   0.112   0.154  1.00  0.00    -0.389 OA
HETATM   81  O12 UNL     1      18.034   1.282   3.921  1.00  0.00    -0.239 OA
HETATM   82  O13 UNL     1      17.861   3.262   2.787  1.00  0.00    -0.299 OA
HETATM   83  N1  UNL     1      -3.805  -6.747   0.324  1.00  0.00    -0.299 N 
HETATM   84  N2  UNL     1      -6.823  -5.022  -1.180  1.00  0.00    -0.354 N 
HETATM   85  N3  UNL     1      -8.234  -1.042  -3.567  1.00  0.00    -0.359 N 
HETATM   86  N4  UNL     1     -12.260   2.310  -2.134  1.00  0.00    -0.222 N 
HETATM   87  N5  UNL     1     -11.315   3.442  -3.989  1.00  0.00    -0.200 N 
ATOM     88  H5  UNL     1     -11.812   2.961  -4.739  1.00  0.00     0.183 HD
HETATM   89  N6  UNL     1     -10.664   4.126  -1.962  1.00  0.00    -0.170 N 
HETATM   90  N7  UNL     1       6.073  -2.711  -0.365  1.00  0.00    -0.361 N 
HETATM   91  N8  UNL     1      17.230   1.404   1.774  1.00  0.00    -0.337 N 
HETATM   92  H74 UNL     1      -3.887  -7.161   1.256  1.00  0.00     0.173 HD
HETATM   93  H75 UNL     1      -7.781  -5.063  -0.827  1.00  0.00     0.162 HD
HETATM   94  H76 UNL     1     -12.175   2.090  -1.150  1.00  0.00     0.178 HD
HETATM   95  H77 UNL     1       5.772  -2.214  -1.195  1.00  0.00     0.162 HD
HETATM   96  H78 UNL     1      16.965   2.071   1.061  1.00  0.00     0.164 HD
ENDROOT
TORSDOF 37
