REMARK  0 active torsions:
REMARK  status: ('A' for Active; 'I' for Inactive)
REMARK       I    between atoms: C2_2  and  C3_3 
REMARK       I    between atoms: C2_2  and  N8_66 
REMARK       I    between atoms: C3_3  and  N1_58 
REMARK       I    between atoms: C4_4  and  C5_5 
REMARK       I    between atoms: C4_4  and  C8_8 
REMARK       I    between atoms: C4_4  and  N1_58 
REMARK       I    between atoms: C5_5  and  C6_6 
REMARK       I    between atoms: C6_6  and  C7_7 
REMARK       I    between atoms: C7_7  and  O3_46 
REMARK       I    between atoms: C8_8  and  N2_59 
REMARK       I    between atoms: C9_9  and  C10_10 
REMARK       I    between atoms: C9_9  and  C11_11 
REMARK       I    between atoms: C9_9  and  N2_59 
REMARK       I    between atoms: C10_10  and  S1_72 
REMARK       I    between atoms: C11_11  and  N3_60 
REMARK       I    between atoms: C12_12  and  C14_14 
REMARK       I    between atoms: C12_12  and  N3_60 
REMARK       I    between atoms: C14_14  and  N4_61 
REMARK       I    between atoms: C15_15  and  C16_16 
REMARK       I    between atoms: C15_15  and  C20_20 
REMARK       I    between atoms: C15_15  and  N4_61 
REMARK       I    between atoms: C16_16  and  C17_17 
REMARK       I    between atoms: C17_17  and  C18_18 
REMARK       I    between atoms: C18_18  and  N5_62 
REMARK       I    between atoms: C19_19  and  N6_64 
REMARK       I    between atoms: C19_19  and  N7_65 
REMARK       I    between atoms: C20_20  and  O8_51 
REMARK       I    between atoms: C21_21  and  C22_22 
REMARK       I    between atoms: C21_21  and  N8_66 
REMARK       I    between atoms: C22_22  and  C23_23 
REMARK       I    between atoms: C22_22  and  N9_67 
REMARK       I    between atoms: C23_23  and  C24_24 
REMARK       I    between atoms: C27_27  and  C28_28 
REMARK       I    between atoms: C27_27  and  N9_67 
REMARK       I    between atoms: C28_28  and  C29_29 
REMARK       I    between atoms: C28_28  and  N11_69 
REMARK       I    between atoms: C29_29  and  C30_30 
REMARK       I    between atoms: C30_30  and  C31_31 
REMARK       I    between atoms: C31_31  and  C32_32 
REMARK       I    between atoms: C32_32  and  N10_68 
REMARK       I    between atoms: C33_33  and  C34_34 
REMARK       I    between atoms: C33_33  and  N11_69 
REMARK       I    between atoms: C34_34  and  C35_35 
REMARK       I    between atoms: C34_34  and  N12_70 
REMARK       I    between atoms: C35_35  and  C36_36 
REMARK       I    between atoms: C39_39  and  C40_40 
REMARK       I    between atoms: C39_39  and  N12_70 
REMARK       I    between atoms: C40_40  and  C41_41 
REMARK       I    between atoms: C40_40  and  N13_71 
REMARK       I    between atoms: C41_41  and  C42_42 
REMARK       I    between atoms: C42_42  and  C43_43 
REMARK       I    between atoms: C43_43  and  O14_57 
ROOT
HETATM    1  C1  UNL     1      -1.069  -4.584  -4.074  1.00  0.00     0.042 C 
HETATM    2  C2  UNL     1      -0.856  -4.360  -2.581  1.00  0.00     0.172 C 
HETATM    3  C3  UNL     1       0.479  -3.628  -2.314  1.00  0.00     0.240 C 
HETATM    4  C4  UNL     1       1.943  -2.715  -0.515  1.00  0.00     0.177 C 
HETATM    5  C5  UNL     1       3.251  -3.363  -1.035  1.00  0.00     0.045 C 
HETATM    6  C6  UNL     1       4.189  -3.850   0.079  1.00  0.00     0.112 C 
HETATM    7  C7  UNL     1       5.028  -2.732   0.626  1.00  0.00     0.139 C 
HETATM    8  C8  UNL     1       1.759  -1.194  -0.829  1.00  0.00     0.241 C 
HETATM    9  C9  UNL     1       2.903   1.026  -0.846  1.00  0.00     0.185 C 
HETATM   10  C10 UNL     1       2.302   1.753   0.366  1.00  0.00     0.105 C 
HETATM   11  C11 UNL     1       4.350   1.522  -1.073  1.00  0.00     0.241 C 
HETATM   12  C12 UNL     1       6.708   1.453  -0.325  1.00  0.00     0.172 C 
HETATM   13  C13 UNL     1       6.852   2.667   0.589  1.00  0.00     0.042 C 
HETATM   14  C14 UNL     1       7.700   0.352   0.107  1.00  0.00     0.240 C 
HETATM   15  C15 UNL     1      10.096  -0.253   0.274  1.00  0.00     0.182 C 
HETATM   16  C16 UNL     1      11.354  -0.163  -0.604  1.00  0.00     0.038 C 
HETATM   17  C17 UNL     1      12.364   0.945  -0.273  1.00  0.00     0.022 C 
HETATM   18  C18 UNL     1      11.856   2.367  -0.487  1.00  0.00     0.121 C 
HETATM   19  C19 UNL     1      12.803   3.829   1.113  1.00  0.00     0.121 C 
HETATM   20  C20 UNL     1      10.404   0.062   1.741  1.00  0.00     0.163 C 
HETATM   21  C21 UNL     1      -2.379  -3.720  -0.717  1.00  0.00     0.241 C 
HETATM   22  C22 UNL     1      -3.603  -2.869  -0.314  1.00  0.00     0.177 C 
HETATM   23  C23 UNL     1      -4.835  -3.023  -1.226  1.00  0.00     0.038 C 
HETATM   24  C24 UNL     1      -5.671  -4.310  -1.055  1.00  0.00    -0.020 C 
HETATM   25  C25 UNL     1      -4.910  -5.580  -1.429  1.00  0.00     0.009 C 
HETATM   26  C26 UNL     1      -6.272  -4.439   0.345  1.00  0.00     0.009 C 
HETATM   27  C27 UNL     1      -2.865  -0.644  -1.192  1.00  0.00     0.241 C 
HETATM   28  C28 UNL     1      -2.844   0.865  -0.865  1.00  0.00     0.176 C 
HETATM   29  C29 UNL     1      -2.170   1.224   0.468  1.00  0.00     0.035 C 
HETATM   30  C30 UNL     1      -2.022   2.739   0.654  1.00  0.00     0.004 C 
HETATM   31  C31 UNL     1      -1.461   3.076   2.039  1.00  0.00     0.030 C 
HETATM   32  C32 UNL     1      -1.288   4.578   2.278  1.00  0.00     0.267 C 
HETATM   33  C33 UNL     1      -5.243   1.049  -0.168  1.00  0.00     0.241 C 
HETATM   34  C34 UNL     1      -6.616   1.627  -0.577  1.00  0.00     0.177 C 
HETATM   35  C35 UNL     1      -6.702   3.146  -0.349  1.00  0.00     0.038 C 
HETATM   36  C36 UNL     1      -6.235   3.704   1.015  1.00  0.00    -0.020 C 
HETATM   37  C37 UNL     1      -7.067   3.222   2.201  1.00  0.00     0.009 C 
HETATM   38  C38 UNL     1      -6.262   5.237   0.966  1.00  0.00     0.009 C 
HETATM   39  C39 UNL     1      -8.132  -0.303  -0.422  1.00  0.00     0.251 C 
HETATM   40  C40 UNL     1      -9.018  -1.090   0.565  1.00  0.00     0.309 C 
HETATM   41  C41 UNL     1     -10.466  -0.584   0.532  1.00  0.00     0.055 C 
HETATM   42  C42 UNL     1     -11.179  -0.835  -0.801  1.00  0.00     0.112 C 
HETATM   43  C43 UNL     1     -11.387  -2.283  -1.161  1.00  0.00     0.139 C 
HETATM   44  O1  UNL     1       1.268  -3.317  -3.204  1.00  0.00    -0.271 OA
HETATM   45  O2  UNL     1       4.606  -1.625   0.933  1.00  0.00    -0.650 OA
HETATM   46  O3  UNL     1       6.331  -3.038   0.708  1.00  0.00    -0.776 OA
HETATM   47  O4  UNL     1       0.673  -0.684  -1.107  1.00  0.00    -0.271 OA
HETATM   48  O5  UNL     1       4.590   2.492  -1.792  1.00  0.00    -0.271 OA
HETATM   49  O6  UNL     1       7.358  -0.667   0.709  1.00  0.00    -0.271 OA
HETATM   50  O7  UNL     1      10.336   1.162   2.275  1.00  0.00    -0.648 OA
HETATM   51  O8  UNL     1      10.836  -1.013   2.429  1.00  0.00    -0.775 OA
HETATM   52  O9  UNL     1      -1.742  -4.380   0.105  1.00  0.00    -0.271 OA
HETATM   53  O10 UNL     1      -2.722  -1.063  -2.341  1.00  0.00    -0.271 OA
HETATM   54  O11 UNL     1      -5.081   0.364   0.843  1.00  0.00    -0.271 OA
HETATM   55  O12 UNL     1      -7.886  -0.701  -1.555  1.00  0.00    -0.271 OA
HETATM   56  O13 UNL     1     -11.655  -2.703  -2.275  1.00  0.00    -0.650 OA
HETATM   57  O14 UNL     1     -11.329  -3.133  -0.121  1.00  0.00    -0.776 OA
HETATM   58  N1  UNL     1       0.767  -3.450  -0.972  1.00  0.00    -0.346 N 
HETATM   59  N2  UNL     1       2.887  -0.425  -0.655  1.00  0.00    -0.345 N 
HETATM   60  N3  UNL     1       5.339   0.946  -0.299  1.00  0.00    -0.346 N 
HETATM   61  N4  UNL     1       9.018   0.614  -0.208  1.00  0.00    -0.345 N 
HETATM   62  N5  UNL     1      12.879   3.309  -0.052  1.00  0.00    -0.372 N 
ATOM     63  H5  UNL     1      13.651   3.552  -0.673  1.00  0.00     0.161 HD
HETATM   64  N6  UNL     1      13.733   4.730   1.498  1.00  0.00    -0.279 NA
HETATM   65  N7  UNL     1      11.906   3.649   2.108  1.00  0.00    -0.279 NA
HETATM   66  N8  UNL     1      -1.995  -3.632  -2.032  1.00  0.00    -0.346 N 
HETATM   67  N9  UNL     1      -3.217  -1.466  -0.140  1.00  0.00    -0.346 N 
HETATM   68  N10 UNL     1      -2.559   5.294   2.330  1.00  0.00     0.078 N 
HETATM   69  N11 UNL     1      -4.209   1.381  -1.022  1.00  0.00    -0.346 N 
HETATM   70  N12 UNL     1      -7.681   0.898   0.091  1.00  0.00    -0.346 N 
HETATM   71  N13 UNL     1      -8.475  -0.900   1.937  1.00  0.00     0.092 N 
HETATM   72  S1  UNL     1       1.951   3.518   0.059  1.00  0.00    -0.180 SA
HETATM   73  H58 UNL     1       6.796  -2.183   0.913  1.00  0.00     0.167 HD
HETATM   74  H59 UNL     1      10.998  -0.692   3.341  1.00  0.00     0.167 HD
HETATM   75  H60 UNL     1     -11.528  -4.003  -0.527  1.00  0.00     0.167 HD
HETATM   76  H61 UNL     1       0.003  -3.605  -0.316  1.00  0.00     0.163 HD
HETATM   77  H62 UNL     1       3.639  -0.838  -0.115  1.00  0.00     0.163 HD
HETATM   78  H63 UNL     1       5.128   0.220   0.382  1.00  0.00     0.163 HD
HETATM   79  H64 UNL     1       9.248   1.552  -0.510  1.00  0.00     0.163 HD
HETATM   80  H65 UNL     1      14.310   4.981   0.700  1.00  0.00     0.126 HD
HETATM   81  H66 UNL     1      13.314   5.560   1.900  1.00  0.00     0.126 HD
HETATM   82  H67 UNL     1      11.339   2.804   2.051  1.00  0.00     0.126 HD
HETATM   83  H68 UNL     1      12.330   3.713   3.025  1.00  0.00     0.126 HD
HETATM   84  H69 UNL     1      -2.237  -2.748  -2.491  1.00  0.00     0.163 HD
HETATM   85  H70 UNL     1      -3.718  -0.980   0.605  1.00  0.00     0.163 HD
HETATM   86  H71 UNL     1      -3.012   5.258   1.419  1.00  0.00     0.312 HD
HETATM   87  H72 UNL     1      -3.189   4.826   2.980  1.00  0.00     0.312 HD
HETATM   88  H73 UNL     1      -4.463   1.648  -1.966  1.00  0.00     0.163 HD
HETATM   89  H74 UNL     1      -7.691   0.884   1.109  1.00  0.00     0.163 HD
HETATM   90  H75 UNL     1      -9.029  -1.466   2.583  1.00  0.00     0.313 HD
HETATM   91  H76 UNL     1      -7.533  -1.300   1.966  1.00  0.00     0.313 HD
HETATM   92  H77 UNL     1       3.127   3.826  -0.517  1.00  0.00     0.101 HD
ENDROOT
TORSDOF 42
