REMARK  26 active torsions:
REMARK  status: ('A' for Active; 'I' for Inactive)
REMARK    1  A    between atoms: C2_2  and  C3_3 
REMARK    2  A    between atoms: C3_3  and  C5_5 
REMARK    3  A    between atoms: C5_5  and  C6_6 
REMARK    4  A    between atoms: C5_5  and  N6_65 
REMARK    5  A    between atoms: C6_6  and  C7_7 
REMARK    6  A    between atoms: C6_6  and  O5_56 
REMARK    7  A    between atoms: C7_7  and  C8_8 
REMARK       I    between atoms: C8_8  and  N1_59 
REMARK    8  A    between atoms: C12_12  and  C13_13 
REMARK    9  A    between atoms: C13_13  and  C14_14 
REMARK   10  A    between atoms: C13_13  and  O4_55 
REMARK   11  A    between atoms: C14_14  and  C16_16 
REMARK       I    between atoms: C16_16  and  N2_60 
REMARK   12  A    between atoms: C17_17  and  C18_18 
REMARK   13  A    between atoms: C17_17  and  C25_25 
REMARK   14  A    between atoms: C17_17  and  N2_60 
REMARK   15  A    between atoms: C18_18  and  C19_19 
REMARK   16  A    between atoms: C26_26  and  C28_28 
REMARK       I    between atoms: C28_28  and  N4_63 
REMARK   17  A    between atoms: C29_29  and  C30_30 
REMARK   18  A    between atoms: C29_29  and  N4_63 
REMARK   19  A    between atoms: C30_30  and  C31_31 
REMARK   20  A    between atoms: C34_34  and  N5_64 
REMARK   21  A    between atoms: C40_40  and  C41_41 
REMARK       I    between atoms: C40_40  and  N6_65 
REMARK   22  A    between atoms: C41_41  and  C42_42 
REMARK   23  A    between atoms: C41_41  and  N7_66 
REMARK   24  A    between atoms: C45_45  and  C46_46 
REMARK       I    between atoms: C45_45  and  N7_66 
REMARK   25  A    between atoms: C46_46  and  C47_47 
REMARK   26  A    between atoms: C46_46  and  N8_67 
ROOT
HETATM    1  C13 UNL     1       1.113  -0.296   4.021  1.00  0.00     0.156 C 
ENDROOT
BRANCH   1   2
HETATM    2  C12 UNL     1      -0.134   0.634   3.855  1.00  0.00     0.117 C 
HETATM    3  C11 UNL     1      -1.297   0.261   4.793  1.00  0.00     0.029 C 
HETATM    4  C10 UNL     1      -2.527   0.728   4.028  1.00  0.00     0.022 C 
HETATM    5  C9  UNL     1      -2.161   0.392   2.591  1.00  0.00     0.126 C 
HETATM    6  N1  UNL     1      -0.737   0.694   2.513  1.00  0.00    -0.345 N 
HETATM    7  C8  UNL     1      -0.173   1.502   1.539  1.00  0.00     0.222 C 
HETATM    8  O1  UNL     1       0.813   2.209   1.773  1.00  0.00    -0.273 OA
BRANCH   7   9
HETATM    9  C7  UNL     1      -0.788   1.553   0.148  1.00  0.00     0.137 C 
BRANCH   9  10
HETATM   10  C6  UNL     1      -0.406   0.408  -0.811  1.00  0.00     0.152 C 
BRANCH  10  11
HETATM   11  C5  UNL     1      -1.460  -0.753  -0.809  1.00  0.00     0.119 C 
BRANCH  11  12
HETATM   12  C3  UNL     1      -0.961  -2.114  -1.425  1.00  0.00     0.006 C 
HETATM   13  C4  UNL     1      -1.862  -3.275  -0.963  1.00  0.00     0.012 C 
BRANCH  12  14
HETATM   14  C2  UNL     1      -0.820  -2.205  -2.959  1.00  0.00     0.002 C 
HETATM   15  C1  UNL     1       0.336  -1.418  -3.553  1.00  0.00     0.005 C 
ENDBRANCH  12  14
ENDBRANCH  11  12
BRANCH  11  16
HETATM   16  N6  UNL     1      -2.810  -0.346  -1.321  1.00  0.00    -0.347 N 
HETATM   17  C39 UNL     1      -2.863   0.505  -2.499  1.00  0.00     0.153 C 
HETATM   18  C40 UNL     1      -3.925  -0.622  -0.525  1.00  0.00     0.243 C 
HETATM   19  O6  UNL     1      -3.814  -1.333   0.485  1.00  0.00    -0.271 OA
BRANCH  18  20
HETATM   20  C41 UNL     1      -5.373  -0.181  -0.920  1.00  0.00     0.180 C 
BRANCH  20  21
HETATM   21  C42 UNL     1      -6.154  -1.287  -1.684  1.00  0.00     0.009 C 
HETATM   22  C43 UNL     1      -5.587  -1.629  -3.062  1.00  0.00     0.012 C 
HETATM   23  C44 UNL     1      -6.305  -2.567  -0.855  1.00  0.00     0.012 C 
ENDBRANCH  20  21
BRANCH  20  24
HETATM   24  N7  UNL     1      -5.553   1.121  -1.560  1.00  0.00    -0.346 N 
HETATM   25  C45 UNL     1      -5.312   2.284  -0.851  1.00  0.00     0.252 C 
HETATM   26  O7  UNL     1      -4.564   2.325   0.122  1.00  0.00    -0.271 OA
HETATM   27  H78 UNL     1      -6.290   1.229  -2.252  1.00  0.00     0.163 HD
BRANCH  25  28
HETATM   28  C46 UNL     1      -6.129   3.518  -1.339  1.00  0.00     0.316 C 
BRANCH  28  29
HETATM   29  C47 UNL     1      -7.427   3.640  -0.475  1.00  0.00     0.020 C 
HETATM   30  C48 UNL     1      -7.111   3.893   1.005  1.00  0.00     0.012 C 
HETATM   31  C49 UNL     1      -8.381   2.446  -0.596  1.00  0.00     0.012 C 
ENDBRANCH  28  29
BRANCH  28  32
HETATM   32  N8  UNL     1      -6.363   3.410  -2.824  1.00  0.00     0.094 N 
HETATM   33  C50 UNL     1      -7.334   4.397  -3.316  1.00  0.00     0.310 C 
HETATM   34  C51 UNL     1      -5.098   3.638  -3.549  1.00  0.00     0.310 C 
ENDBRANCH  28  32
ENDBRANCH  25  28
ENDBRANCH  20  24
ENDBRANCH  18  20
ENDBRANCH  11  16
ENDBRANCH  10  11
BRANCH  10  35
HETATM   35  O5  UNL     1       0.900  -0.116  -0.544  1.00  0.00    -0.388 OA
HETATM   36  C38 UNL     1       1.963   0.730  -0.964  1.00  0.00     0.202 C 
ENDBRANCH  10  35
ENDBRANCH   9  10
ENDBRANCH   7   9
ENDBRANCH   1   2
BRANCH   1  37
HETATM   37  C14 UNL     1       0.885  -1.796   3.693  1.00  0.00     0.105 C 
HETATM   38  C15 UNL     1       0.825  -2.139   2.206  1.00  0.00     0.022 C 
BRANCH  37  39
HETATM   39  C16 UNL     1       1.987  -2.620   4.357  1.00  0.00     0.224 C 
HETATM   40  O2  UNL     1       1.751  -3.455   5.226  1.00  0.00    -0.273 OA
HETATM   41  N2  UNL     1       3.250  -2.353   3.912  1.00  0.00    -0.350 N 
HETATM   42  H74 UNL     1       3.375  -1.596   3.239  1.00  0.00     0.163 HD
BRANCH  41  43
HETATM   43  C17 UNL     1       4.458  -2.994   4.414  1.00  0.00     0.146 C 
BRANCH  43  44
HETATM   44  C18 UNL     1       4.653  -4.422   3.856  1.00  0.00     0.070 C 
BRANCH  44  45
HETATM   45  C19 UNL     1       4.734  -4.529   2.347  1.00  0.00    -0.056 A 
HETATM   46  C20 UNL     1       3.572  -4.736   1.591  1.00  0.00     0.007 A 
HETATM   47  C21 UNL     1       3.632  -4.801   0.198  1.00  0.00     0.001 A 
HETATM   48  C22 UNL     1       4.855  -4.668  -0.454  1.00  0.00     0.000 A 
HETATM   49  C23 UNL     1       6.020  -4.473   0.286  1.00  0.00     0.001 A 
HETATM   50  C24 UNL     1       5.961  -4.406   1.679  1.00  0.00     0.007 A 
ENDBRANCH  44  45
ENDBRANCH  43  44
BRANCH  43  51
HETATM   51  C25 UNL     1       5.617  -2.077   4.081  1.00  0.00     0.074 A 
HETATM   52  N3  UNL     1       5.582  -1.173   3.120  1.00  0.00    -0.347 N 
HETATM   53  C26 UNL     1       6.807  -0.513   3.026  1.00  0.00     0.108 A 
ATOM     54  H3  UNL     1       4.773  -0.984   2.529  1.00  0.00     0.166 HD
HETATM   55  C27 UNL     1       7.742  -0.913   3.962  1.00  0.00     0.086 A 
HETATM   56  S1  UNL     1       7.088  -2.136   4.971  1.00  0.00    -0.084 SA
BRANCH  53  57
HETATM   57  C28 UNL     1       7.030   0.498   1.990  1.00  0.00     0.268 C 
HETATM   58  O3  UNL     1       8.107   1.056   1.809  1.00  0.00    -0.266 OA
HETATM   59  N4  UNL     1       5.901   0.727   1.239  1.00  0.00    -0.355 N 
HETATM   60  H75 UNL     1       5.097   0.139   1.454  1.00  0.00     0.162 HD
BRANCH  59  61
HETATM   61  C29 UNL     1       5.886   1.554   0.055  1.00  0.00     0.127 C 
BRANCH  61  62
HETATM   62  C30 UNL     1       6.399   0.794  -1.170  1.00  0.00     0.058 C 
BRANCH  62  63
HETATM   63  C31 UNL     1       6.174   1.558  -2.450  1.00  0.00    -0.057 A 
HETATM   64  C32 UNL     1       6.950   2.681  -2.756  1.00  0.00     0.009 A 
HETATM   65  C33 UNL     1       6.725   3.397  -3.936  1.00  0.00     0.024 A 
HETATM   66  C34 UNL     1       5.756   2.982  -4.851  1.00  0.00     0.005 A 
HETATM   67  C35 UNL     1       4.944   1.897  -4.516  1.00  0.00     0.024 A 
HETATM   68  C36 UNL     1       5.161   1.176  -3.338  1.00  0.00     0.009 A 
BRANCH  66  69
HETATM   69  N5  UNL     1       5.459   3.767  -5.971  1.00  0.00    -0.303 NA
HETATM   70  H76 UNL     1       6.248   4.314  -6.303  1.00  0.00     0.124 HD
HETATM   71  H77 UNL     1       5.008   3.252  -6.720  1.00  0.00     0.124 HD
ENDBRANCH  66  69
ENDBRANCH  62  63
ENDBRANCH  61  62
ENDBRANCH  59  61
ENDBRANCH  53  57
ENDBRANCH  43  51
ENDBRANCH  41  43
ENDBRANCH  37  39
ENDBRANCH   1  37
BRANCH   1  72
HETATM   72  O4  UNL     1       2.238   0.158   3.241  1.00  0.00    -0.388 OA
HETATM   73  C37 UNL     1       2.941   1.247   3.829  1.00  0.00     0.202 C 
ENDBRANCH   1  72
TORSDOF 26
