REMARK  14 active torsions:
REMARK  status: ('A' for Active; 'I' for Inactive)
REMARK    1  A    between atoms: C2_2  and  C3_3 
REMARK    2  A    between atoms: C3_3  and  C4_4 
REMARK    3  A    between atoms: C4_4  and  C5_5 
REMARK    4  A    between atoms: C5_5  and  N1_37 
REMARK       I    between atoms: C6_6  and  N1_37 
REMARK       I    between atoms: C6_6  and  N2_38 
REMARK    5  A    between atoms: C7_7  and  N2_38 
REMARK    6  A    between atoms: C9_9  and  O5_46 
REMARK    7  A    between atoms: C10_10  and  O2_43 
REMARK    8  A    between atoms: C13_13  and  O2_43 
REMARK    9  A    between atoms: C16_16  and  N3_39 
REMARK   10  A    between atoms: C19_19  and  C20_20 
REMARK       I    between atoms: C19_19  and  N3_39 
REMARK   11  A    between atoms: C23_23  and  N4_40 
REMARK   12  A    between atoms: C28_28  and  C30_30 
REMARK   13  A    between atoms: C30_30  and  N5_41 
REMARK   14  A    between atoms: C33_33  and  O4_45 
ROOT
HETATM    1  C13 UNL     1       2.925  -2.717   2.937  1.00  0.00     0.076 A 
HETATM    2  C14 UNL     1       2.466  -2.723   1.620  1.00  0.00     0.039 A 
HETATM    3  C15 UNL     1       1.109  -2.511   1.358  1.00  0.00     0.032 A 
HETATM    4  C16 UNL     1       0.199  -2.306   2.404  1.00  0.00     0.035 A 
HETATM    5  C17 UNL     1       0.669  -2.321   3.720  1.00  0.00     0.032 A 
HETATM    6  C18 UNL     1       2.026  -2.537   3.986  1.00  0.00     0.039 A 
ENDROOT
BRANCH   4   7
HETATM    7  N3  UNL     1      -1.149  -2.091   2.050  1.00  0.00    -0.323 N 
HETATM    8  C19 UNL     1      -2.225  -1.925   2.903  1.00  0.00     0.256 C 
HETATM    9  O3  UNL     1      -2.215  -1.991   4.126  1.00  0.00    -0.267 OA
HETATM   10  H42 UNL     1      -1.350  -2.131   1.060  1.00  0.00     0.169 HD
BRANCH   8  11
HETATM   11  C20 UNL     1      -3.529  -1.677   2.224  1.00  0.00     0.032 A 
HETATM   12  C21 UNL     1      -3.623  -0.900   1.066  1.00  0.00     0.019 A 
HETATM   13  C22 UNL     1      -4.868  -0.689   0.459  1.00  0.00     0.031 A 
HETATM   14  C23 UNL     1      -6.037  -1.243   1.006  1.00  0.00     0.038 A 
HETATM   15  C24 UNL     1      -5.934  -2.005   2.180  1.00  0.00     0.031 A 
HETATM   16  C25 UNL     1      -4.689  -2.215   2.786  1.00  0.00     0.019 A 
BRANCH  14  17
HETATM   17  N4  UNL     1      -7.309  -1.030   0.384  1.00  0.00    -0.332 N 
HETATM   18  C26 UNL     1      -8.532  -1.502   0.823  1.00  0.00     0.097 A 
HETATM   19  C27 UNL     1      -9.520  -1.084  -0.040  1.00  0.00     0.028 A 
HETATM   20  C28 UNL     1      -8.907  -0.321  -1.064  1.00  0.00    -0.013 A 
HETATM   21  C29 UNL     1      -7.552  -0.315  -0.777  1.00  0.00     0.105 A 
BRANCH  20  22
HETATM   22  C30 UNL     1      -9.586   0.332  -2.229  1.00  0.00     0.312 C 
BRANCH  22  23
HETATM   23  N5  UNL     1     -10.558   1.330  -1.761  1.00  0.00     0.092 N 
HETATM   24  C31 UNL     1      -9.921   2.532  -1.215  1.00  0.00     0.275 C 
HETATM   25  C32 UNL     1     -10.956   3.406  -0.500  1.00  0.00     0.062 C 
HETATM   26  C33 UNL     1     -12.342   3.326  -1.140  1.00  0.00     0.121 C 
HETATM   27  C34 UNL     1     -12.236   2.996  -2.621  1.00  0.00     0.062 C 
HETATM   28  C35 UNL     1     -11.499   1.672  -2.841  1.00  0.00     0.275 C 
BRANCH  26  29
HETATM   29  O4  UNL     1     -13.011   4.573  -0.963  1.00  0.00    -0.395 OA
HETATM   30  H43 UNL     1     -13.919   4.464  -1.293  1.00  0.00     0.210 HD
ENDBRANCH  26  29
ENDBRANCH  22  23
ENDBRANCH  20  22
ENDBRANCH  14  17
ENDBRANCH   8  11
ENDBRANCH   4   7
BRANCH   1  31
HETATM   31  O2  UNL     1       4.240  -2.949   3.268  1.00  0.00    -0.308 OA
BRANCH  31  32
HETATM   32  C10 UNL     1       5.184  -2.236   2.557  1.00  0.00     0.109 A 
HETATM   33  C9  UNL     1       6.165  -2.934   1.840  1.00  0.00     0.104 A 
HETATM   34  C8  UNL     1       7.146  -2.207   1.152  1.00  0.00     0.069 A 
HETATM   35  C7  UNL     1       7.155  -0.806   1.183  1.00  0.00     0.039 A 
HETATM   36  C12 UNL     1       6.182  -0.130   1.927  1.00  0.00     0.032 A 
HETATM   37  C11 UNL     1       5.200  -0.841   2.617  1.00  0.00     0.042 A 
BRANCH  33  38
HETATM   38  O5  UNL     1       6.072  -4.301   1.866  1.00  0.00    -0.353 OA
HETATM   39  C36 UNL     1       7.048  -5.036   1.138  1.00  0.00     0.210 C 
ENDBRANCH  33  38
BRANCH  35  40
HETATM   40  N2  UNL     1       8.118  -0.018   0.520  1.00  0.00    -0.309 N 
HETATM   41  C6  UNL     1       9.061  -0.433  -0.395  1.00  0.00     0.320 C 
HETATM   42  N1  UNL     1       9.890   0.621  -0.740  1.00  0.00    -0.343 N 
HETATM   43  O1  UNL     1       9.179  -1.552  -0.874  1.00  0.00    -0.247 OA
HETATM   44  H40 UNL     1      10.088   1.246   0.028  1.00  0.00     0.164 HD
HETATM   45  H41 UNL     1       8.012   0.983   0.593  1.00  0.00     0.170 HD
BRANCH  42  46
HETATM   46  C5  UNL     1      10.990   0.386  -1.656  1.00  0.00     0.124 C 
BRANCH  46  47
HETATM   47  C4  UNL     1      11.631   1.689  -2.129  1.00  0.00     0.020 C 
BRANCH  47  48
HETATM   48  C3  UNL     1      10.682   2.521  -2.998  1.00  0.00     0.001 C 
BRANCH  48  49
HETATM   49  C2  UNL     1      11.348   3.758  -3.605  1.00  0.00    -0.004 C 
HETATM   50  C1  UNL     1      11.771   4.789  -2.570  1.00  0.00     0.005 C 
ENDBRANCH  48  49
ENDBRANCH  47  48
ENDBRANCH  46  47
ENDBRANCH  42  46
ENDBRANCH  35  40
ENDBRANCH  31  32
ENDBRANCH   1  31
TORSDOF 14
