REMARK  25 active torsions:
REMARK  status: ('A' for Active; 'I' for Inactive)
REMARK    1  A    between atoms: C3_3  and  N6_40 
REMARK    2  A    between atoms: C5_5  and  C6_6 
REMARK       I    between atoms: C6_6  and  N2_35 
REMARK    3  A    between atoms: C7_7  and  C8_8 
REMARK    4  A    between atoms: C7_7  and  N2_35 
REMARK    5  A    between atoms: C8_8  and  N3_36 
REMARK       I    between atoms: C9_9  and  N4_38 
REMARK       I    between atoms: C9_9  and  N5_39 
REMARK    6  A    between atoms: C10_10  and  C11_11 
REMARK       I    between atoms: C10_10  and  N6_40 
REMARK    7  A    between atoms: C13_13  and  N8_42 
REMARK    8  A    between atoms: C16_16  and  C17_17 
REMARK       I    between atoms: C16_16  and  N8_42 
REMARK    9  A    between atoms: C19_19  and  N11_46 
REMARK   10  A    between atoms: C21_21  and  C22_22 
REMARK       I    between atoms: C21_21  and  N11_46 
REMARK   11  A    between atoms: C22_22  and  C23_23 
REMARK   12  A    between atoms: C23_23  and  S1_60 
REMARK   13  A    between atoms: C24_24  and  C25_25 
REMARK   14  A    between atoms: C24_24  and  S1_60 
REMARK   15  A    between atoms: C25_25  and  C26_26 
REMARK   16  A    between atoms: C25_25  and  N13_48 
REMARK       I    between atoms: C26_26  and  N12_47 
REMARK   17  A    between atoms: C27_27  and  C28_28 
REMARK   18  A    between atoms: C27_27  and  N12_47 
REMARK   19  A    between atoms: C28_28  and  O7_56 
REMARK   20  A    between atoms: C29_29  and  C30_30 
REMARK       I    between atoms: C29_29  and  N13_48 
REMARK   21  A    between atoms: C30_30  and  C31_31 
REMARK   22  A    between atoms: C31_31  and  C32_32 
REMARK   23  A    between atoms: C32_32  and  C33_33 
REMARK   24  A    between atoms: C32_32  and  N14_49 
REMARK   25  A    between atoms: C33_33  and  O10_59 
ROOT
HETATM    1  C17 UNL     1      -0.398   1.010  -1.436  1.00  0.00     0.122 A 
HETATM    2  C18 UNL     1      -1.374   1.389  -2.344  1.00  0.00     0.086 A 
HETATM    3  C19 UNL     1      -2.528   1.684  -1.591  1.00  0.00     0.124 A 
HETATM    4  C20 UNL     1      -0.459   0.839   1.090  1.00  0.00     0.178 C 
HETATM    5  N9  UNL     1      -2.308   1.509  -0.289  1.00  0.00    -0.283 N 
ATOM      6  H9  UNL     1      -2.965   1.646   0.479  1.00  0.00     0.189 HD
HETATM    7  N10 UNL     1      -1.023   1.111  -0.214  1.00  0.00    -0.290 N 
ENDROOT
BRANCH   1   8
HETATM    8  C16 UNL     1       0.982   0.595  -1.623  1.00  0.00     0.274 C 
HETATM    9  N8  UNL     1       1.379   0.525  -2.946  1.00  0.00    -0.320 N 
HETATM   10  H38 UNL     1       0.711   0.743  -3.670  1.00  0.00     0.169 HD
HETATM   11  O3  UNL     1       1.711   0.328  -0.671  1.00  0.00    -0.266 OA
BRANCH   9  12
HETATM   12  C13 UNL     1       2.639   0.162  -3.384  1.00  0.00     0.053 A 
HETATM   13  C12 UNL     1       3.798  -0.195  -2.658  1.00  0.00     0.066 A 
HETATM   14  C11 UNL     1       4.825  -0.485  -3.552  1.00  0.00     0.105 A 
HETATM   15  N7  UNL     1       4.286  -0.286  -4.813  1.00  0.00    -0.354 N 
HETATM   16  C14 UNL     1       2.971   0.097  -4.715  1.00  0.00     0.120 A 
HETATM   17  C15 UNL     1       4.981  -0.464  -6.072  1.00  0.00     0.156 C 
BRANCH  14  18
HETATM   18  C10 UNL     1       6.206  -0.899  -3.298  1.00  0.00     0.273 C 
HETATM   19  N6  UNL     1       6.457  -1.245  -1.982  1.00  0.00    -0.320 N 
HETATM   20  H37 UNL     1       5.690  -1.224  -1.328  1.00  0.00     0.169 HD
HETATM   21  O2  UNL     1       7.043  -0.937  -4.196  1.00  0.00    -0.266 OA
BRANCH  19  22
HETATM   22  C3  UNL     1       7.670  -1.660  -1.463  1.00  0.00     0.053 A 
HETATM   23  C2  UNL     1       8.871  -1.807  -2.109  1.00  0.00     0.120 A 
HETATM   24  N1  UNL     1       9.800  -2.252  -1.203  1.00  0.00    -0.354 N 
HETATM   25  C1  UNL     1      11.184  -2.523  -1.534  1.00  0.00     0.156 C 
HETATM   26  C5  UNL     1       9.226  -2.381   0.050  1.00  0.00     0.104 A 
HETATM   27  C4  UNL     1       7.891  -2.023  -0.111  1.00  0.00     0.066 A 
BRANCH  26  28
HETATM   28  C6  UNL     1       9.933  -2.824   1.241  1.00  0.00     0.268 C 
HETATM   29  N2  UNL     1       9.247  -2.637   2.421  1.00  0.00    -0.354 N 
HETATM   30  H32 UNL     1       8.502  -1.955   2.415  1.00  0.00     0.162 HD
HETATM   31  O1  UNL     1      11.062  -3.307   1.220  1.00  0.00    -0.266 OA
BRANCH  29  32
HETATM   32  C7  UNL     1       9.902  -2.806   3.705  1.00  0.00     0.142 C 
BRANCH  32  33
HETATM   33  C8  UNL     1      10.700  -1.558   4.098  1.00  0.00     0.141 C 
BRANCH  33  34
HETATM   34  N3  UNL     1       9.777  -0.419   4.197  1.00  0.00    -0.370 N 
HETATM   35  C9  UNL     1      10.282   0.744   4.363  1.00  0.00     0.121 C 
HETATM   36  N4  UNL     1       9.476   1.825   4.437  1.00  0.00    -0.279 NA
HETATM   37  N5  UNL     1      11.573   1.125   4.479  1.00  0.00    -0.279 NA
HETATM   38  H33 UNL     1       9.801   2.583   3.849  1.00  0.00     0.126 HD
HETATM   39  H34 UNL     1       8.527   1.566   4.187  1.00  0.00     0.126 HD
HETATM   40  H35 UNL     1      12.220   0.370   4.668  1.00  0.00     0.126 HD
HETATM   41  H36 UNL     1      11.693   1.880   5.145  1.00  0.00     0.126 HD
ATOM     42  H3  UNL     1       8.768  -0.552   4.135  1.00  0.00     0.161 HD
ENDBRANCH  33  34
ENDBRANCH  32  33
ENDBRANCH  29  32
ENDBRANCH  26  28
ENDBRANCH  19  22
ENDBRANCH  14  18
ENDBRANCH   9  12
ENDBRANCH   1   8
BRANCH   3  43
HETATM   43  N11 UNL     1      -3.765   2.106  -2.012  1.00  0.00    -0.311 N 
HETATM   44  C21 UNL     1      -4.145   2.275  -3.327  1.00  0.00     0.238 C 
HETATM   45  O4  UNL     1      -3.429   2.048  -4.303  1.00  0.00    -0.272 OA
HETATM   46  H39 UNL     1      -4.437   2.219  -1.253  1.00  0.00     0.170 HD
BRANCH  44  47
HETATM   47  C22 UNL     1      -5.577   2.773  -3.476  1.00  0.00     0.159 C 
HETATM   48 BR1  UNL     1      -5.482   4.425  -4.542  1.00  0.00    -0.080 Br
BRANCH  47  49
HETATM   49  C23 UNL     1      -6.468   1.771  -4.198  1.00  0.00     0.099 C 
BRANCH  49  50
HETATM   50  S1  UNL     1      -6.841   0.280  -3.197  1.00  0.00    -0.165 SA
BRANCH  50  51
HETATM   51  C24 UNL     1      -8.054   0.978  -2.012  1.00  0.00     0.108 C 
BRANCH  51  52
HETATM   52  C25 UNL     1      -7.847   0.427  -0.596  1.00  0.00     0.185 C 
BRANCH  52  53
HETATM   53  C26 UNL     1      -6.562   0.961   0.058  1.00  0.00     0.241 C 
HETATM   54  N12 UNL     1      -6.184   0.262   1.182  1.00  0.00    -0.349 N 
HETATM   55  H40 UNL     1      -6.848  -0.410   1.577  1.00  0.00     0.163 HD
HETATM   56  O5  UNL     1      -5.982   1.976  -0.326  1.00  0.00    -0.271 OA
BRANCH  54  57
HETATM   57  C27 UNL     1      -5.152   0.758   2.075  1.00  0.00     0.232 C 
BRANCH  57  58
HETATM   58  C28 UNL     1      -5.696   1.649   3.185  1.00  0.00     0.158 C 
HETATM   59  O6  UNL     1      -5.030   2.169   4.067  1.00  0.00    -0.649 OA
BRANCH  58  60
HETATM   60  O7  UNL     1      -7.036   1.845   3.169  1.00  0.00    -0.775 OA
HETATM   61  H44 UNL     1      -7.157   2.406   3.966  1.00  0.00     0.167 HD
ENDBRANCH  58  60
ENDBRANCH  57  58
ENDBRANCH  54  57
ENDBRANCH  52  53
BRANCH  52  62
HETATM   62  N13 UNL     1      -8.931   0.854   0.298  1.00  0.00    -0.347 N 
HETATM   63  C29 UNL     1     -10.009   0.047   0.555  1.00  0.00     0.218 C 
HETATM   64  O8  UNL     1     -10.212  -1.011  -0.029  1.00  0.00    -0.274 OA
HETATM   65  H41 UNL     1      -8.772   1.682   0.864  1.00  0.00     0.163 HD
BRANCH  63  66
HETATM   66  C30 UNL     1     -10.926   0.566   1.641  1.00  0.00     0.105 C 
BRANCH  66  67
HETATM   67  C31 UNL     1     -11.258  -0.508   2.683  1.00  0.00     0.056 C 
BRANCH  67  68
HETATM   68  C32 UNL     1     -10.092  -0.965   3.578  1.00  0.00     0.315 C 
BRANCH  68  69
HETATM   69  C33 UNL     1      -9.079  -1.828   2.815  1.00  0.00     0.173 C 
HETATM   70  O9  UNL     1      -7.980  -1.469   2.411  1.00  0.00    -0.648 OA
BRANCH  69  71
HETATM   71  O10 UNL     1      -9.538  -3.071   2.570  1.00  0.00    -0.775 OA
HETATM   72  H45 UNL     1      -8.859  -3.488   2.000  1.00  0.00     0.167 HD
ENDBRANCH  69  71
ENDBRANCH  68  69
BRANCH  68  73
HETATM   73  N14 UNL     1      -9.407   0.165   4.241  1.00  0.00     0.093 N 
HETATM   74  H42 UNL     1     -10.086   0.869   4.523  1.00  0.00     0.314 HD
HETATM   75  H43 UNL     1      -8.751   0.598   3.587  1.00  0.00     0.314 HD
ENDBRANCH  68  73
ENDBRANCH  67  68
ENDBRANCH  66  67
ENDBRANCH  63  66
ENDBRANCH  52  62
ENDBRANCH  51  52
ENDBRANCH  50  51
ENDBRANCH  49  50
ENDBRANCH  47  49
ENDBRANCH  44  47
ENDBRANCH   3  43
TORSDOF 25
