REMARK  20 active torsions:
REMARK  status: ('A' for Active; 'I' for Inactive)
REMARK    1  A    between atoms: N1_1  and  C1_11 
REMARK    2  A    between atoms: N1_1  and  C26_36 
REMARK       I    between atoms: N2_2  and  C16_26 
REMARK       I    between atoms: N3_3  and  C5_15 
REMARK    3  A    between atoms: N3_3  and  C6_16 
REMARK    4  A    between atoms: N4_4  and  C17_27 
REMARK       I    between atoms: N4_4  and  C22_32 
REMARK    5  A    between atoms: N5_5  and  C23_33 
REMARK       I    between atoms: N6_6  and  C32_42 
REMARK    6  A    between atoms: N6_6  and  C33_43 
REMARK       I    between atoms: N7_7  and  C39_49 
REMARK    7  A    between atoms: N8_8  and  C40_50 
REMARK       I    between atoms: N8_8  and  C41_51 
REMARK    8  A    between atoms: N9_9  and  C42_52 
REMARK       I    between atoms: N10_10  and  C52_62 
REMARK    9  A    between atoms: N10_10  and  C53_63 
REMARK   10  A    between atoms: C3_13  and  C5_15 
REMARK   11  A    between atoms: C16_26  and  C17_27 
REMARK   12  A    between atoms: C17_27  and  C18_28 
REMARK   13  A    between atoms: C22_32  and  C23_33 
REMARK   14  A    between atoms: C26_36  and  C27_37 
REMARK   15  A    between atoms: C27_37  and  C28_38 
REMARK   16  A    between atoms: C31_41  and  C32_42 
REMARK   17  A    between atoms: C38_48  and  C52_62 
REMARK   18  A    between atoms: C39_49  and  C40_50 
REMARK   19  A    between atoms: C40_50  and  C45_55 
REMARK   20  A    between atoms: C41_51  and  C42_52 
ROOT
HETATM    1  C28 UNL     1       1.947   1.195  -0.988  1.00  0.00    -0.057 A 
HETATM    2  C29 UNL     1       2.249   0.587   0.238  1.00  0.00     0.008 A 
HETATM    3  C30 UNL     1       1.230   0.265   1.137  1.00  0.00     0.017 A 
HETATM    4  C31 UNL     1      -0.104   0.536   0.813  1.00  0.00     0.032 A 
HETATM    5  C63 UNL     1      -0.411   1.160  -0.402  1.00  0.00     0.017 A 
HETATM    6  C64 UNL     1       0.610   1.480  -1.300  1.00  0.00     0.008 A 
ENDROOT
BRANCH   4   7
HETATM    7  C32 UNL     1      -1.164   0.175   1.797  1.00  0.00     0.256 C 
HETATM    8  N6  UNL     1      -2.343  -0.279   1.234  1.00  0.00    -0.323 N 
HETATM    9  H5  UNL     1      -2.335  -0.441   0.236  1.00  0.00     0.169 HD
HETATM   10  O4  UNL     1      -0.905   0.267   2.991  1.00  0.00    -0.267 OA
BRANCH   8  11
HETATM   11  C33 UNL     1      -3.536  -0.618   1.906  1.00  0.00     0.035 A 
HETATM   12  C34 UNL     1      -3.736  -0.440   3.275  1.00  0.00     0.030 A 
HETATM   13  C35 UNL     1      -4.957  -0.776   3.866  1.00  0.00     0.010 A 
HETATM   14  C36 UNL     1      -6.004  -1.293   3.096  1.00  0.00    -0.048 A 
HETATM   15  C37 UNL     1      -7.324  -1.641   3.765  1.00  0.00     0.074 C 
HETATM   16  C50 UNL     1      -5.826  -1.446   1.705  1.00  0.00    -0.032 A 
HETATM   17  C38 UNL     1      -8.198  -2.497   2.834  1.00  0.00     0.184 C 
HETATM   18  N7  UNL     1      -8.238  -1.869   1.490  1.00  0.00    -0.332 N 
HETATM   19  C39 UNL     1      -9.068  -0.755   1.346  1.00  0.00     0.244 C 
HETATM   20  C49 UNL     1      -6.941  -1.993   0.835  1.00  0.00     0.166 C 
HETATM   21  O5  UNL     1     -10.020  -0.613   2.126  1.00  0.00    -0.271 OA
HETATM   22  C51 UNL     1      -4.584  -1.132   1.130  1.00  0.00     0.039 A 
BRANCH  17  23
HETATM   23  C52 UNL     1      -9.495  -2.985   3.521  1.00  0.00     0.241 C 
HETATM   24  N10 UNL     1     -10.498  -3.359   2.649  1.00  0.00    -0.351 N 
HETATM   25  H8  UNL     1     -10.507  -2.834   1.784  1.00  0.00     0.163 HD
HETATM   26  O7  UNL     1      -9.556  -3.195   4.731  1.00  0.00    -0.271 OA
BRANCH  24  27
HETATM   27  C53 UNL     1     -11.790  -3.804   3.151  1.00  0.00     0.118 C 
HETATM   28  C54 UNL     1     -11.744  -5.292   3.534  1.00  0.00     0.030 C 
HETATM   29  C55 UNL     1     -11.725  -6.175   2.289  1.00  0.00     0.007 C 
HETATM   30  C56 UNL     1     -13.000  -5.982   1.474  1.00  0.00     0.039 C 
HETATM   31  C57 UNL     1     -13.393  -4.536   1.296  1.00  0.00    -0.050 A 
HETATM   32  C58 UNL     1     -12.860  -3.520   2.112  1.00  0.00    -0.029 A 
HETATM   33  C62 UNL     1     -14.366  -4.211   0.338  1.00  0.00     0.007 A 
HETATM   34  C59 UNL     1     -13.302  -2.196   1.936  1.00  0.00     0.010 A 
HETATM   35  C60 UNL     1     -14.265  -1.887   0.977  1.00  0.00     0.001 A 
HETATM   36  C61 UNL     1     -14.796  -2.894   0.178  1.00  0.00     0.001 A 
ENDBRANCH  24  27
ENDBRANCH  17  23
BRANCH  19  37
HETATM   37  C40 UNL     1      -8.991   0.213   0.117  1.00  0.00     0.184 C 
BRANCH  37  38
HETATM   38  N8  UNL     1      -7.652   0.724  -0.173  1.00  0.00    -0.345 N 
HETATM   39  C41 UNL     1      -7.076   1.696   0.632  1.00  0.00     0.251 C 
HETATM   40  O6  UNL     1      -7.595   2.086   1.671  1.00  0.00    -0.271 OA
HETATM   41  H6  UNL     1      -7.218   0.521  -1.062  1.00  0.00     0.163 HD
BRANCH  39  42
HETATM   42  C42 UNL     1      -5.746   2.247   0.069  1.00  0.00     0.307 C 
HETATM   43  C44 UNL     1      -4.972   3.042   1.117  1.00  0.00     0.053 C 
BRANCH  42  44
HETATM   44  N9  UNL     1      -5.986   2.988  -1.196  1.00  0.00     0.092 N 
HETATM   45  C43 UNL     1      -6.648   4.275  -0.997  1.00  0.00     0.307 C 
HETATM   46  H7  UNL     1      -6.570   2.428  -1.812  1.00  0.00     0.316 HD
ENDBRANCH  42  44
ENDBRANCH  39  42
ENDBRANCH  37  38
BRANCH  37  47
HETATM   47  C45 UNL     1      -9.737  -0.310  -1.161  1.00  0.00    -0.022 C 
HETATM   48  C46 UNL     1      -9.832   0.833  -2.199  1.00  0.00     0.017 C 
HETATM   49  C47 UNL     1     -11.179  -0.726  -0.806  1.00  0.00     0.017 C 
HETATM   50  C48 UNL     1      -9.049  -1.510  -1.833  1.00  0.00     0.017 C 
ENDBRANCH  37  47
ENDBRANCH  19  37
ENDBRANCH   8  11
ENDBRANCH   4   7
BRANCH   1  51
HETATM   51  C27 UNL     1       3.050   1.526  -1.968  1.00  0.00     0.068 C 
BRANCH  51  52
HETATM   52  C26 UNL     1       3.334   0.345  -2.907  1.00  0.00     0.275 C 
BRANCH  52  53
HETATM   53  N1  UNL     1       4.310   0.608  -3.971  1.00  0.00     0.090 N 
HETATM   54  H1  UNL     1       4.264  -0.177  -4.625  1.00  0.00     0.316 HD
BRANCH  53  55
HETATM   55  C1  UNL     1       5.708   0.784  -3.571  1.00  0.00     0.240 C 
HETATM   56  C2  UNL     1       6.264   0.088  -2.318  1.00  0.00     0.162 C 
HETATM   57  N2  UNL     1       7.470   0.838  -1.995  1.00  0.00    -0.335 N 
HETATM   58  C3  UNL     1       7.489   2.132  -2.689  1.00  0.00     0.181 C 
HETATM   59  C16 UNL     1       8.630   0.306  -1.471  1.00  0.00     0.244 C 
HETATM   60  C4  UNL     1       6.115   2.243  -3.365  1.00  0.00     0.072 C 
HETATM   61  O2  UNL     1       9.708   0.897  -1.607  1.00  0.00    -0.271 OA
BRANCH  58  62
HETATM   62  C5  UNL     1       7.706   3.275  -1.676  1.00  0.00     0.241 C 
HETATM   63  N3  UNL     1       9.029   3.650  -1.541  1.00  0.00    -0.351 N 
HETATM   64  H2  UNL     1       9.710   2.943  -1.814  1.00  0.00     0.163 HD
HETATM   65  O1  UNL     1       6.800   3.756  -1.000  1.00  0.00    -0.271 OA
BRANCH  63  66
HETATM   66  C6  UNL     1       9.447   4.662  -0.575  1.00  0.00     0.118 C 
HETATM   67  C7  UNL     1       8.941   6.043  -1.036  1.00  0.00     0.030 C 
HETATM   68  C8  UNL     1       9.600   7.171  -0.258  1.00  0.00     0.007 C 
HETATM   69  C9  UNL     1      11.099   7.173  -0.527  1.00  0.00     0.039 C 
HETATM   70  C10 UNL     1      11.722   5.817  -0.305  1.00  0.00    -0.050 A 
HETATM   71  C11 UNL     1      10.956   4.634  -0.345  1.00  0.00    -0.029 A 
HETATM   72  C15 UNL     1      13.108   5.747  -0.085  1.00  0.00     0.007 A 
HETATM   73  C12 UNL     1      11.606   3.412  -0.084  1.00  0.00     0.010 A 
HETATM   74  C13 UNL     1      12.981   3.356   0.148  1.00  0.00     0.001 A 
HETATM   75  C14 UNL     1      13.734   4.523   0.139  1.00  0.00     0.001 A 
ENDBRANCH  63  66
ENDBRANCH  58  62
BRANCH  59  76
HETATM   76  C17 UNL     1       8.534  -1.006  -0.643  1.00  0.00     0.184 C 
BRANCH  76  77
HETATM   77  N4  UNL     1       9.746  -1.760  -0.949  1.00  0.00    -0.345 N 
HETATM   78  C22 UNL     1       9.824  -2.580  -2.056  1.00  0.00     0.251 C 
HETATM   79  O3  UNL     1       8.843  -2.875  -2.735  1.00  0.00    -0.271 OA
HETATM   80  H3  UNL     1      10.643  -1.401  -0.632  1.00  0.00     0.163 HD
BRANCH  78  81
HETATM   81  C23 UNL     1      11.268  -3.007  -2.409  1.00  0.00     0.307 C 
HETATM   82  C25 UNL     1      11.293  -4.239  -3.309  1.00  0.00     0.053 C 
BRANCH  81  83
HETATM   83  N5  UNL     1      12.120  -3.120  -1.196  1.00  0.00     0.092 N 
HETATM   84  C24 UNL     1      11.786  -4.266  -0.354  1.00  0.00     0.307 C 
HETATM   85  H4  UNL     1      13.090  -3.218  -1.496  1.00  0.00     0.316 HD
ENDBRANCH  81  83
ENDBRANCH  78  81
ENDBRANCH  76  77
BRANCH  76  86
HETATM   86  C18 UNL     1       8.356  -0.761   0.890  1.00  0.00    -0.022 C 
HETATM   87  C19 UNL     1       9.462   0.132   1.482  1.00  0.00     0.017 C 
HETATM   88  C20 UNL     1       8.377  -2.115   1.632  1.00  0.00     0.017 C 
HETATM   89  C21 UNL     1       6.995  -0.095   1.176  1.00  0.00     0.017 C 
ENDBRANCH  76  86
ENDBRANCH  59  76
ENDBRANCH  53  55
ENDBRANCH  52  53
ENDBRANCH  51  52
ENDBRANCH   1  51
TORSDOF 20
