REMARK  0 active torsions:
REMARK  status: ('A' for Active; 'I' for Inactive)
REMARK       I    between atoms: C2_2  and  C3_3 
REMARK       I    between atoms: C3_3  and  C5_5 
REMARK       I    between atoms: C5_5  and  C6_6 
REMARK       I    between atoms: C5_5  and  N9_80 
REMARK       I    between atoms: C6_6  and  N1_72 
REMARK       I    between atoms: C7_7  and  C8_8 
REMARK       I    between atoms: C7_7  and  C12_12 
REMARK       I    between atoms: C7_7  and  N1_72 
REMARK       I    between atoms: C8_8  and  C10_10 
REMARK       I    between atoms: C12_12  and  N2_73 
REMARK       I    between atoms: C13_13  and  C14_14 
REMARK       I    between atoms: C13_13  and  C18_18 
REMARK       I    between atoms: C13_13  and  N2_73 
REMARK       I    between atoms: C14_14  and  C15_15 
REMARK       I    between atoms: C18_18  and  N3_74 
REMARK       I    between atoms: C19_19  and  C20_20 
REMARK       I    between atoms: C19_19  and  N3_74 
REMARK       I    between atoms: C20_20  and  N4_75 
REMARK       I    between atoms: C21_21  and  C22_22 
REMARK       I    between atoms: C21_21  and  C26_26 
REMARK       I    between atoms: C21_21  and  N4_75 
REMARK       I    between atoms: C22_22  and  C23_23 
REMARK       I    between atoms: C26_26  and  N5_76 
REMARK       I    between atoms: C27_27  and  C28_28 
REMARK       I    between atoms: C27_27  and  C30_30 
REMARK       I    between atoms: C27_27  and  N5_76 
REMARK       I    between atoms: C28_28  and  C29_29 
REMARK       I    between atoms: C29_29  and  N6_77 
REMARK       I    between atoms: C30_30  and  N7_78 
REMARK       I    between atoms: C31_31  and  C32_32 
REMARK       I    between atoms: C31_31  and  C36_36 
REMARK       I    between atoms: C31_31  and  N7_78 
REMARK       I    between atoms: C32_32  and  C33_33 
REMARK       I    between atoms: C33_33  and  C34_34 
REMARK       I    between atoms: C34_34  and  C35_35 
REMARK       I    between atoms: C35_35  and  N8_79 
REMARK       I    between atoms: C36_36  and  O9_68 
REMARK       I    between atoms: C37_37  and  C38_38 
REMARK       I    between atoms: C37_37  and  N9_80 
REMARK       I    between atoms: C38_38  and  C39_39 
REMARK       I    between atoms: C38_38  and  N11_82 
REMARK       I    between atoms: C39_39  and  C40_40 
REMARK       I    between atoms: C48_48  and  C49_49 
REMARK       I    between atoms: C48_48  and  N11_82 
REMARK       I    between atoms: C49_49  and  C50_50 
REMARK       I    between atoms: C49_49  and  N15_87 
REMARK       I    between atoms: C50_50  and  C51_51 
REMARK       I    between atoms: C51_51  and  C52_52 
REMARK       I    between atoms: C52_52  and  N12_83 
REMARK       I    between atoms: C53_53  and  N13_85 
REMARK       I    between atoms: C53_53  and  N14_86 
REMARK       I    between atoms: C54_54  and  C55_55 
REMARK       I    between atoms: C54_54  and  N15_87 
REMARK       I    between atoms: C55_55  and  C56_56 
REMARK       I    between atoms: C55_55  and  N17_89 
REMARK       I    between atoms: C56_56  and  C57_57 
REMARK       I    between atoms: C57_57  and  C58_58 
REMARK       I    between atoms: C58_58  and  C59_59 
REMARK       I    between atoms: C59_59  and  N16_88 
ROOT
HETATM    1  C1  UNL     1      -3.500  -1.500   2.841  1.00  0.00     0.005 C 
HETATM    2  C2  UNL     1      -2.097  -1.932   2.441  1.00  0.00     0.002 C 
HETATM    3  C3  UNL     1      -1.878  -2.116   0.920  1.00  0.00     0.013 C 
HETATM    4  C4  UNL     1      -0.592  -2.945   0.736  1.00  0.00     0.012 C 
HETATM    5  C5  UNL     1      -1.758  -0.777   0.152  1.00  0.00     0.180 C 
HETATM    6  C6  UNL     1      -1.520  -0.988  -1.365  1.00  0.00     0.241 C 
HETATM    7  C7  UNL     1      -0.807   0.187  -3.445  1.00  0.00     0.180 C 
HETATM    8  C8  UNL     1      -0.903   1.675  -3.873  1.00  0.00     0.013 C 
HETATM    9  C9  UNL     1       0.366   2.465  -3.523  1.00  0.00     0.012 C 
HETATM   10  C10 UNL     1      -1.249   1.897  -5.359  1.00  0.00     0.002 C 
HETATM   11  C11 UNL     1      -2.571   1.276  -5.786  1.00  0.00     0.005 C 
HETATM   12  C12 UNL     1       0.452  -0.527  -4.009  1.00  0.00     0.241 C 
HETATM   13  C13 UNL     1       2.558  -1.693  -3.319  1.00  0.00     0.177 C 
HETATM   14  C14 UNL     1       2.603  -2.710  -4.474  1.00  0.00     0.038 C 
HETATM   15  C15 UNL     1       1.535  -3.824  -4.410  1.00  0.00    -0.020 C 
HETATM   16  C16 UNL     1       1.640  -4.658  -3.132  1.00  0.00     0.009 C 
HETATM   17  C17 UNL     1       1.665  -4.734  -5.635  1.00  0.00     0.009 C 
HETATM   18  C18 UNL     1       3.572  -0.525  -3.451  1.00  0.00     0.240 C 
HETATM   19  C19 UNL     1       5.915   0.085  -3.827  1.00  0.00     0.225 C 
HETATM   20  C20 UNL     1       6.603  -0.034  -2.464  1.00  0.00     0.236 C 
HETATM   21  C21 UNL     1       8.024   1.187  -0.826  1.00  0.00     0.177 C 
HETATM   22  C22 UNL     1       7.328   0.722   0.470  1.00  0.00     0.038 C 
HETATM   23  C23 UNL     1       6.090   1.522   0.941  1.00  0.00    -0.020 C 
HETATM   24  C24 UNL     1       6.370   3.019   1.071  1.00  0.00     0.009 C 
HETATM   25  C25 UNL     1       4.839   1.284   0.097  1.00  0.00     0.009 C 
HETATM   26  C26 UNL     1       9.358   0.452  -1.158  1.00  0.00     0.241 C 
HETATM   27  C27 UNL     1      11.478  -0.514  -0.280  1.00  0.00     0.185 C 
HETATM   28  C28 UNL     1      12.554   0.456  -0.767  1.00  0.00     0.137 C 
HETATM   29  C29 UNL     1      13.173  -0.052  -2.047  1.00  0.00     0.217 C 
HETATM   30  C30 UNL     1      11.856  -1.202   1.049  1.00  0.00     0.241 C 
HETATM   31  C31 UNL     1      10.939  -2.685   2.831  1.00  0.00     0.182 C 
HETATM   32  C32 UNL     1      10.590  -1.985   4.150  1.00  0.00     0.036 C 
HETATM   33  C33 UNL     1      11.566  -0.860   4.508  1.00  0.00     0.004 C 
HETATM   34  C34 UNL     1      11.237  -0.253   5.874  1.00  0.00     0.030 C 
HETATM   35  C35 UNL     1      12.197   0.886   6.218  1.00  0.00     0.267 C 
HETATM   36  C36 UNL     1      10.025  -3.905   2.652  1.00  0.00     0.163 C 
HETATM   37  C37 UNL     1      -2.941   1.393   0.013  1.00  0.00     0.241 C 
HETATM   38  C38 UNL     1      -4.325   2.031  -0.233  1.00  0.00     0.181 C 
HETATM   39  C39 UNL     1      -4.282   3.566  -0.203  1.00  0.00     0.075 C 
HETATM   40  C40 UNL     1      -3.719   4.173  -1.454  1.00  0.00    -0.028 A 
HETATM   41  C41 UNL     1      -2.489   4.789  -1.585  1.00  0.00     0.096 A 
HETATM   42  C42 UNL     1      -3.466   4.872  -3.610  1.00  0.00     0.042 A 
HETATM   43  C43 UNL     1      -3.757   5.089  -4.962  1.00  0.00     0.030 A 
HETATM   44  C44 UNL     1      -4.991   4.637  -5.440  1.00  0.00     0.002 A 
HETATM   45  C45 UNL     1      -5.896   4.000  -4.596  1.00  0.00     0.001 A 
HETATM   46  C46 UNL     1      -5.590   3.793  -3.246  1.00  0.00     0.014 A 
HETATM   47  C47 UNL     1      -4.349   4.232  -2.740  1.00  0.00    -0.002 A 
HETATM   48  C48 UNL     1      -6.615   1.461   0.546  1.00  0.00     0.241 C 
HETATM   49  C49 UNL     1      -7.443   0.939   1.737  1.00  0.00     0.176 C 
HETATM   50  C50 UNL     1      -7.327  -0.591   1.812  1.00  0.00     0.036 C 
HETATM   51  C51 UNL     1      -7.729  -1.150   3.182  1.00  0.00     0.022 C 
HETATM   52  C52 UNL     1      -7.674  -2.676   3.228  1.00  0.00     0.121 C 
HETATM   53  C53 UNL     1      -9.864  -3.472   2.794  1.00  0.00     0.121 C 
HETATM   54  C54 UNL     1      -9.683   1.656   2.579  1.00  0.00     0.251 C 
HETATM   55  C55 UNL     1     -11.118   1.972   2.092  1.00  0.00     0.308 C 
HETATM   56  C56 UNL     1     -12.175   1.674   3.168  1.00  0.00     0.045 C 
HETATM   57  C57 UNL     1     -12.323   0.185   3.517  1.00  0.00     0.004 C 
HETATM   58  C58 UNL     1     -13.217  -0.064   4.737  1.00  0.00     0.030 C 
HETATM   59  C59 UNL     1     -14.675   0.334   4.509  1.00  0.00     0.267 C 
HETATM   60  O1  UNL     1      -1.943  -1.961  -1.981  1.00  0.00    -0.271 OA
HETATM   61  O2  UNL     1       0.718  -0.554  -5.207  1.00  0.00    -0.271 OA
HETATM   62  O3  UNL     1       3.313   0.623  -3.086  1.00  0.00    -0.271 OA
HETATM   63  O4  UNL     1       6.655  -1.097  -1.846  1.00  0.00    -0.272 OA
HETATM   64  O5  UNL     1       9.720   0.228  -2.317  1.00  0.00    -0.271 OA
HETATM   65  O6  UNL     1      14.303  -0.519  -2.114  1.00  0.00    -0.274 OA
HETATM   66  O7  UNL     1      13.003  -1.316   1.463  1.00  0.00    -0.271 OA
HETATM   67  O8  UNL     1       9.937  -4.864   3.402  1.00  0.00    -0.648 OA
HETATM   68  O9  UNL     1       9.241  -3.833   1.549  1.00  0.00    -0.775 OA
HETATM   69  O10 UNL     1      -1.868   1.986  -0.071  1.00  0.00    -0.271 OA
HETATM   70  O11 UNL     1      -7.113   1.781  -0.530  1.00  0.00    -0.271 OA
HETATM   71  O12 UNL     1      -9.341   1.695   3.758  1.00  0.00    -0.271 OA
HETATM   72  N1  UNL     1      -0.885   0.080  -1.975  1.00  0.00    -0.346 N 
HETATM   73  N2  UNL     1       1.237  -1.135  -3.047  1.00  0.00    -0.346 N 
HETATM   74  N3  UNL     1       4.831  -0.877  -3.896  1.00  0.00    -0.351 N 
HETATM   75  N4  UNL     1       7.183   1.138  -2.020  1.00  0.00    -0.346 N 
HETATM   76  N5  UNL     1      10.180   0.157  -0.096  1.00  0.00    -0.346 N 
HETATM   77  N6  UNL     1      12.386   0.050  -3.155  1.00  0.00    -0.370 N 
HETATM   78  N7  UNL     1      10.775  -1.779   1.690  1.00  0.00    -0.345 N 
HETATM   79  N8  UNL     1      11.881   1.462   7.520  1.00  0.00     0.078 N 
HETATM   80  N9  UNL     1      -2.986   0.019   0.209  1.00  0.00    -0.346 N 
HETATM   81  N10 UNL     1      -2.349   5.204  -2.881  1.00  0.00    -0.365 N 
HETATM   82  N11 UNL     1      -5.253   1.491   0.770  1.00  0.00    -0.346 N 
HETATM   83  N12 UNL     1      -8.690  -3.242   2.345  1.00  0.00    -0.372 N 
ATOM     84  H12 UNL     1      -8.463  -3.453   1.373  1.00  0.00     0.161 HD
HETATM   85  N13 UNL     1     -10.796  -4.017   1.983  1.00  0.00    -0.279 NA
HETATM   86  N14 UNL     1     -10.392  -3.255   4.018  1.00  0.00    -0.279 NA
HETATM   87  N15 UNL     1      -8.819   1.361   1.555  1.00  0.00    -0.346 N 
HETATM   88  N16 UNL     1     -15.495   0.000   5.668  1.00  0.00     0.078 N 
HETATM   89  N17 UNL     1     -11.394   1.276   0.814  1.00  0.00     0.092 N 
HETATM   90  H79 UNL     1       8.733  -4.674   1.567  1.00  0.00     0.167 HD
HETATM   91  H80 UNL     1      -0.860   0.951  -1.441  1.00  0.00     0.163 HD
HETATM   92  H81 UNL     1       1.080  -0.770  -2.116  1.00  0.00     0.163 HD
HETATM   93  H82 UNL     1       5.108  -1.845  -3.788  1.00  0.00     0.163 HD
HETATM   94  H83 UNL     1       7.336   1.861  -2.712  1.00  0.00     0.163 HD
HETATM   95  H84 UNL     1       9.987   0.533   0.824  1.00  0.00     0.163 HD
HETATM   96  H85 UNL     1      12.736  -0.376  -4.004  1.00  0.00     0.159 HD
HETATM   97  H86 UNL     1      11.373   0.153  -3.073  1.00  0.00     0.159 HD
HETATM   98  H87 UNL     1       9.939  -1.933   1.128  1.00  0.00     0.163 HD
HETATM   99  H88 UNL     1      10.909   1.767   7.537  1.00  0.00     0.312 HD
HETATM  100  H89 UNL     1      11.963   0.744   8.239  1.00  0.00     0.312 HD
HETATM  101  H90 UNL     1      -3.844  -0.442  -0.081  1.00  0.00     0.163 HD
HETATM  102  H91 UNL     1      -1.540   5.678  -3.258  1.00  0.00     0.165 HD
HETATM  103  H92 UNL     1      -4.912   1.389   1.719  1.00  0.00     0.163 HD
HETATM  104  H93 UNL     1     -10.353  -4.318   1.119  1.00  0.00     0.126 HD
HETATM  105  H94 UNL     1     -11.266  -4.801   2.420  1.00  0.00     0.126 HD
HETATM  106  H95 UNL     1     -11.365  -2.977   3.971  1.00  0.00     0.126 HD
HETATM  107  H96 UNL     1      -9.864  -2.609   4.591  1.00  0.00     0.126 HD
HETATM  108  H97 UNL     1      -9.215   1.354   0.614  1.00  0.00     0.163 HD
HETATM  109  H98 UNL     1     -15.424  -0.996   5.868  1.00  0.00     0.312 HD
HETATM  110  H99 UNL     1     -15.135   0.479   6.493  1.00  0.00     0.312 HD
HETATM  111  HA0 UNL     1     -12.355   1.467   0.533  1.00  0.00     0.313 HD
HETATM  112  HA1 UNL     1     -11.341   0.267   0.964  1.00  0.00     0.313 HD
ENDROOT
TORSDOF 47
