REMARK  20 active torsions:
REMARK  status: ('A' for Active; 'I' for Inactive)
REMARK    1  A    between atoms: C3_3  and  N5_47 
REMARK    2  A    between atoms: C5_5  and  C6_6 
REMARK       I    between atoms: C6_6  and  N2_43 
REMARK    3  A    between atoms: C7_7  and  C8_8 
REMARK    4  A    between atoms: C7_7  and  N2_43 
REMARK    5  A    between atoms: C8_8  and  C9_9 
REMARK    6  A    between atoms: C9_9  and  N3_44 
REMARK    7  A    between atoms: C10_10  and  C11_11 
REMARK       I    between atoms: C10_10  and  N5_47 
REMARK    8  A    between atoms: C13_13  and  N7_49 
REMARK    9  A    between atoms: C16_16  and  C17_17 
REMARK       I    between atoms: C16_16  and  N7_49 
REMARK   10  A    between atoms: C19_19  and  N9_51 
REMARK   11  A    between atoms: C22_22  and  C23_23 
REMARK   12  A    between atoms: C22_22  and  O5_61 
REMARK   13  A    between atoms: C29_29  and  N11_54 
REMARK   14  A    between atoms: C31_31  and  C32_32 
REMARK   15  A    between atoms: C31_31  and  O4_60 
REMARK   16  A    between atoms: C35_35  and  N12_56 
REMARK   17  A    between atoms: C38_38  and  C39_39 
REMARK   18  A    between atoms: C38_38  and  N12_56 
REMARK   19  A    between atoms: C40_40  and  C41_41 
REMARK   20  A    between atoms: C40_40  and  N12_56 
ROOT
HETATM    1  C17 UNL     1      -0.709   0.360  -5.668  1.00  0.00     0.105 A 
HETATM    2  C18 UNL     1      -0.218   1.613  -5.307  1.00  0.00     0.066 A 
HETATM    3  C19 UNL     1       0.703   2.013  -6.292  1.00  0.00     0.052 A 
HETATM    4  C20 UNL     1       0.742   1.058  -7.267  1.00  0.00     0.120 A 
HETATM    5  C21 UNL     1      -0.342  -1.146  -7.667  1.00  0.00     0.156 C 
HETATM    6  N8  UNL     1      -0.104   0.048  -6.880  1.00  0.00    -0.354 N 
ENDROOT
BRANCH   1   7
HETATM    7  C16 UNL     1      -1.657  -0.514  -4.975  1.00  0.00     0.273 C 
HETATM    8  N7  UNL     1      -2.366   0.115  -3.967  1.00  0.00    -0.320 N 
HETATM    9  H41 UNL     1      -2.222   1.103  -3.826  1.00  0.00     0.169 HD
HETATM   10  O3  UNL     1      -1.792  -1.691  -5.292  1.00  0.00    -0.266 OA
BRANCH   8  11
HETATM   11  C13 UNL     1      -3.302  -0.478  -3.139  1.00  0.00     0.053 A 
HETATM   12  C12 UNL     1      -4.036   0.195  -2.129  1.00  0.00     0.066 A 
HETATM   13  C11 UNL     1      -4.880  -0.716  -1.498  1.00  0.00     0.105 A 
HETATM   14  N6  UNL     1      -4.639  -1.933  -2.113  1.00  0.00    -0.354 N 
HETATM   15  C14 UNL     1      -3.702  -1.789  -3.104  1.00  0.00     0.120 A 
HETATM   16  C15 UNL     1      -5.280  -3.193  -1.792  1.00  0.00     0.156 C 
BRANCH  13  17
HETATM   17  C10 UNL     1      -5.827  -0.520  -0.400  1.00  0.00     0.273 C 
HETATM   18  N5  UNL     1      -6.130   0.807  -0.149  1.00  0.00    -0.320 N 
HETATM   19  H40 UNL     1      -5.745   1.514  -0.755  1.00  0.00     0.169 HD
HETATM   20  O2  UNL     1      -6.311  -1.464   0.218  1.00  0.00    -0.266 OA
BRANCH  18  21
HETATM   21  C3  UNL     1      -6.975   1.259   0.846  1.00  0.00     0.053 A 
HETATM   22  C2  UNL     1      -7.272   2.589   1.022  1.00  0.00     0.120 A 
HETATM   23  N1  UNL     1      -8.130   2.700   2.088  1.00  0.00    -0.354 N 
HETATM   24  C1  UNL     1      -8.659   3.961   2.569  1.00  0.00     0.156 C 
HETATM   25  C5  UNL     1      -8.405   1.450   2.618  1.00  0.00     0.104 A 
HETATM   26  C4  UNL     1      -7.679   0.549   1.846  1.00  0.00     0.066 A 
BRANCH  25  27
HETATM   27  C6  UNL     1      -9.282   1.213   3.756  1.00  0.00     0.268 C 
HETATM   28  N2  UNL     1      -9.461  -0.110   4.097  1.00  0.00    -0.355 N 
HETATM   29  H36 UNL     1      -9.038  -0.829   3.528  1.00  0.00     0.162 HD
HETATM   30  O1  UNL     1      -9.843   2.112   4.378  1.00  0.00    -0.266 OA
BRANCH  28  31
HETATM   31  C7  UNL     1     -10.333  -0.509   5.184  1.00  0.00     0.130 C 
BRANCH  31  32
HETATM   32  C8  UNL     1     -11.799  -0.506   4.772  1.00  0.00     0.095 C 
BRANCH  32  33
HETATM   33  C9  UNL     1     -12.661  -0.914   5.942  1.00  0.00     0.069 C 
HETATM   34  N4  UNL     1     -13.091  -2.198   6.051  1.00  0.00    -0.389 N 
HETATM   35  H38 UNL     1     -12.526  -2.933   5.646  1.00  0.00     0.157 HD
HETATM   36  H39 UNL     1     -13.456  -2.410   6.974  1.00  0.00     0.157 HD
BRANCH  33  37
HETATM   37  N3  UNL     1     -12.988  -0.075   6.868  1.00  0.00    -0.389 N 
HETATM   38  H37 UNL     1     -12.606   0.857   6.660  1.00  0.00     0.157 HD
ATOM     39  H3  UNL     1     -13.547  -0.304   7.690  1.00  0.00     0.157 HD
ENDBRANCH  33  37
ENDBRANCH  32  33
ENDBRANCH  31  32
ENDBRANCH  28  31
ENDBRANCH  25  27
ENDBRANCH  18  21
ENDBRANCH  13  17
ENDBRANCH   8  11
ENDBRANCH   1   7
BRANCH   3  40
HETATM   40  N9  UNL     1       1.393   3.214  -6.328  1.00  0.00    -0.334 N 
HETATM   41  C22 UNL     1       2.386   3.362  -5.517  1.00  0.00     0.168 C 
ATOM     42  H9  UNL     1       1.125   3.956  -6.974  1.00  0.00     0.168 HD
BRANCH  41  43
HETATM   43  C23 UNL     1       3.028   2.495  -4.560  1.00  0.00     0.085 A 
HETATM   44  C24 UNL     1       3.875   2.845  -3.516  1.00  0.00     0.047 A 
HETATM   45  C25 UNL     1       4.268   1.669  -2.824  1.00  0.00    -0.005 A 
HETATM   46  C26 UNL     1       3.664   0.598  -3.474  1.00  0.00     0.043 A 
HETATM   47  C30 UNL     1       5.080   1.414  -1.703  1.00  0.00     0.043 A 
HETATM   48  C27 UNL     1       3.823  -0.727  -3.058  1.00  0.00     0.033 A 
HETATM   49  N10 UNL     1       2.942   1.120  -4.522  1.00  0.00    -0.352 N 
HETATM   50  C28 UNL     1       4.634  -0.956  -1.941  1.00  0.00     0.032 A 
HETATM   51  C29 UNL     1       5.270   0.093  -1.275  1.00  0.00     0.035 A 
HETATM   52  H42 UNL     1       2.416   0.556  -5.174  1.00  0.00     0.166 HD
BRANCH  51  53
HETATM   53  N11 UNL     1       6.083  -0.173  -0.168  1.00  0.00    -0.336 N 
HETATM   54  C31 UNL     1       7.354  -0.362  -0.317  1.00  0.00     0.150 C 
ATOM     55  H11 UNL     1       5.670  -0.218   0.764  1.00  0.00     0.168 HD
BRANCH  54  56
HETATM   56  C32 UNL     1       8.278  -0.647   0.807  1.00  0.00     0.015 A 
HETATM   57  C33 UNL     1       7.771  -0.707   2.107  1.00  0.00     0.018 A 
HETATM   58  C34 UNL     1       8.619  -0.975   3.191  1.00  0.00     0.030 A 
HETATM   59  C35 UNL     1       9.995  -1.184   3.016  1.00  0.00     0.030 A 
HETATM   60  C36 UNL     1      10.480  -1.128   1.699  1.00  0.00     0.030 A 
HETATM   61  C37 UNL     1       9.642  -0.862   0.608  1.00  0.00     0.018 A 
BRANCH  59  62
HETATM   62  N12 UNL     1      10.866  -1.460   4.073  1.00  0.00    -0.379 N 
BRANCH  62  63
HETATM   63  C38 UNL     1      12.068  -0.601   4.191  1.00  0.00     0.138 C 
BRANCH  63  64
HETATM   64  C39 UNL     1      11.822   0.725   4.921  1.00  0.00     0.134 C 
HETATM   65 CL1  UNL     1      11.020   1.943   3.898  1.00  0.00    -0.129 Cl
ENDBRANCH  63  64
ENDBRANCH  62  63
BRANCH  62  66
HETATM   66  C40 UNL     1      10.353  -2.040   5.330  1.00  0.00     0.138 C 
BRANCH  66  67
HETATM   67  C41 UNL     1       9.856  -3.474   5.131  1.00  0.00     0.134 C 
HETATM   68 CL2  UNL     1       9.350  -4.178   6.690  1.00  0.00    -0.129 Cl
ENDBRANCH  66  67
ENDBRANCH  62  66
ENDBRANCH  59  62
ENDBRANCH  54  56
BRANCH  54  69
HETATM   69  O4  UNL     1       7.993  -0.325  -1.503  1.00  0.00    -0.345 OA
HETATM   70  H43 UNL     1       7.374  -0.129  -2.223  1.00  0.00     0.219 HD
ENDBRANCH  54  69
ENDBRANCH  51  53
ENDBRANCH  41  43
BRANCH  41  71
HETATM   71  O5  UNL     1       2.977   4.574  -5.542  1.00  0.00    -0.344 OA
HETATM   72  H44 UNL     1       2.504   5.097  -6.208  1.00  0.00     0.219 HD
ENDBRANCH  41  71
ENDBRANCH   3  40
TORSDOF 20
