REMARK  26 active torsions:
REMARK  status: ('A' for Active; 'I' for Inactive)
REMARK    1  A    between atoms: C3_3  and  C4_4 
REMARK    2  A    between atoms: C4_4  and  C42_42 
REMARK    3  A    between atoms: C5_5  and  C6_6 
REMARK    4  A    between atoms: C5_5  and  C41_41 
REMARK    5  A    between atoms: C7_7  and  C8_8 
REMARK       I    between atoms: C8_8  and  N1_62 
REMARK    6  A    between atoms: C9_9  and  C10_10 
REMARK    7  A    between atoms: C9_9  and  N1_62 
REMARK    8  A    between atoms: C10_10  and  C11_11 
REMARK    9  A    between atoms: C11_11  and  C12_12 
REMARK   10  A    between atoms: C12_12  and  C13_13 
REMARK   11  A    between atoms: C13_13  and  C14_14 
REMARK       I    between atoms: C14_14  and  N2_63 
REMARK   12  A    between atoms: C15_15  and  C16_16 
REMARK   13  A    between atoms: C15_15  and  N2_63 
REMARK   14  A    between atoms: C16_16  and  C17_17 
REMARK   15  A    between atoms: C17_17  and  C18_18 
REMARK   16  A    between atoms: C18_18  and  C19_19 
REMARK   17  A    between atoms: C19_19  and  O3_57 
REMARK   18  A    between atoms: C20_20  and  O3_57 
REMARK   19  A    between atoms: C24_24  and  N3_64 
REMARK   20  A    between atoms: C26_26  and  C27_27 
REMARK   21  A    between atoms: C26_26  and  N3_64 
REMARK   22  A    between atoms: C27_27  and  C28_28 
REMARK   23  A    between atoms: C27_27  and  O4_58 
REMARK   24  A    between atoms: C28_28  and  N4_65 
REMARK   25  A    between atoms: C41_41  and  O6_60 
REMARK   26  A    between atoms: C53_53  and  N6_68 
ROOT
HETATM    1  C12 UNL     1      -3.696  -3.357  -1.570  1.00  0.00     0.009 C 
ENDROOT
BRANCH   1   2
HETATM    2  C11 UNL     1      -4.031  -4.611  -0.757  1.00  0.00     0.002 C 
BRANCH   2   3
HETATM    3  C10 UNL     1      -4.903  -5.624  -1.508  1.00  0.00     0.020 C 
BRANCH   3   4
HETATM    4  C9  UNL     1      -6.257  -5.097  -1.989  1.00  0.00     0.123 C 
BRANCH   4   5
HETATM    5  N1  UNL     1      -7.005  -4.421  -0.950  1.00  0.00    -0.358 N 
HETATM    6  C8  UNL     1      -7.603  -5.099   0.078  1.00  0.00     0.241 C 
HETATM    7  O1  UNL     1      -7.683  -6.319   0.153  1.00  0.00    -0.269 OA
HETATM    8  H51 UNL     1      -7.070  -3.415  -1.003  1.00  0.00     0.162 HD
BRANCH   6   9
HETATM    9  C7  UNL     1      -8.211  -4.256   1.140  1.00  0.00     0.075 C 
HETATM   10  C6  UNL     1      -7.749  -3.042   1.483  1.00  0.00     0.024 C 
BRANCH  10  11
HETATM   11  C5  UNL     1      -8.259  -2.198   2.568  1.00  0.00     0.049 C 
HETATM   12  C4  UNL     1      -7.982  -0.868   2.704  1.00  0.00    -0.007 C 
BRANCH  12  13
HETATM   13  C3  UNL     1      -8.421  -0.106   3.891  1.00  0.00     0.009 C 
HETATM   14  C2  UNL     1      -8.633   1.220   3.925  1.00  0.00    -0.030 C 
HETATM   15  C1  UNL     1      -9.057   1.961   5.153  1.00  0.00     0.036 C 
ENDBRANCH  12  13
BRANCH  12  16
HETATM   16  C42 UNL     1      -7.180  -0.181   1.648  1.00  0.00     0.001 A 
HETATM   17  C43 UNL     1      -7.762   0.332   0.529  1.00  0.00     0.010 A 
HETATM   18  C44 UNL     1      -9.210   0.244   0.298  1.00  0.00     0.017 A 
HETATM   19  C48 UNL     1      -6.953   1.004  -0.498  1.00  0.00     0.089 A 
HETATM   20  C45 UNL     1      -9.784   0.720  -0.815  1.00  0.00     0.030 A 
HETATM   21  C46 UNL     1      -8.963   1.369  -1.865  1.00  0.00     0.028 A 
HETATM   22  C47 UNL     1      -7.511   1.487  -1.616  1.00  0.00     0.067 A 
HETATM   23  N5  UNL     1      -9.464   1.827  -2.964  1.00  0.00    -0.399 N 
HETATM   24  H54 UNL     1     -10.477   1.679  -3.000  1.00  0.00     0.156 HD
ATOM     25  H5  UNL     1      -8.921   2.278  -3.701  1.00  0.00     0.156 HD
HETATM   26  O7  UNL     1      -5.586   1.153  -0.327  1.00  0.00    -0.309 OA
HETATM   27  C49 UNL     1      -4.989   0.631   0.789  1.00  0.00     0.089 A 
HETATM   28  C50 UNL     1      -5.706  -0.034   1.782  1.00  0.00     0.010 A 
HETATM   29  C54 UNL     1      -3.599   0.777   0.865  1.00  0.00     0.061 A 
HETATM   30  C51 UNL     1      -4.983  -0.576   2.856  1.00  0.00     0.017 A 
HETATM   31  C52 UNL     1      -3.591  -0.443   2.926  1.00  0.00     0.024 A 
HETATM   32  C53 UNL     1      -2.892   0.276   1.956  1.00  0.00     0.008 A 
BRANCH  32  33
HETATM   33  N6  UNL     1      -1.488   0.270   1.945  1.00  0.00    -0.303 NA
HETATM   34  H55 UNL     1      -1.093   0.203   2.882  1.00  0.00     0.124 HD
HETATM   35  H56 UNL     1      -1.099   1.072   1.450  1.00  0.00     0.124 HD
ENDBRANCH  32  33
ENDBRANCH  12  16
BRANCH  11  36
HETATM   36  C41 UNL     1      -9.109  -2.834   3.605  1.00  0.00     0.177 C 
HETATM   37  O5  UNL     1      -8.737  -3.265   4.680  1.00  0.00    -0.646 OA
BRANCH  36  38
HETATM   38  O6  UNL     1     -10.394  -2.885   3.210  1.00  0.00    -0.773 OA
HETATM   39  H50 UNL     1     -10.856  -3.321   3.957  1.00  0.00     0.167 HD
ENDBRANCH  36  38
ENDBRANCH  11  36
ENDBRANCH  10  11
ENDBRANCH   6   9
ENDBRANCH   4   5
ENDBRANCH   3   4
ENDBRANCH   2   3
ENDBRANCH   1   2
BRANCH   1  40
HETATM   40  C13 UNL     1      -2.812  -2.388  -0.782  1.00  0.00     0.103 C 
BRANCH  40  41
HETATM   41  C14 UNL     1      -1.364  -2.828  -0.674  1.00  0.00     0.217 C 
HETATM   42  O2  UNL     1      -0.892  -3.766  -1.308  1.00  0.00    -0.274 OA
HETATM   43  N2  UNL     1      -0.625  -2.036   0.179  1.00  0.00    -0.361 N 
HETATM   44  H52 UNL     1      -1.105  -1.337   0.747  1.00  0.00     0.162 HD
BRANCH  43  45
HETATM   45  C15 UNL     1       0.766  -2.303   0.471  1.00  0.00     0.122 C 
BRANCH  45  46
HETATM   46  C16 UNL     1       1.646  -1.076   0.243  1.00  0.00     0.020 C 
BRANCH  46  47
HETATM   47  C17 UNL     1       1.637  -0.533  -1.190  1.00  0.00     0.004 C 
BRANCH  47  48
HETATM   48  C18 UNL     1       2.035  -1.528  -2.287  1.00  0.00     0.027 C 
BRANCH  48  49
HETATM   49  C19 UNL     1       3.404  -2.179  -2.094  1.00  0.00     0.175 C 
BRANCH  49  50
HETATM   50  O3  UNL     1       4.392  -1.155  -1.978  1.00  0.00    -0.351 OA
BRANCH  50  51
HETATM   51  C20 UNL     1       5.683  -1.557  -1.765  1.00  0.00     0.070 A 
HETATM   52  C21 UNL     1       6.128  -2.873  -1.687  1.00  0.00     0.037 A 
HETATM   53  C22 UNL     1       7.482  -3.132  -1.478  1.00  0.00     0.005 A 
HETATM   54  C23 UNL     1       8.385  -2.075  -1.336  1.00  0.00     0.023 A 
HETATM   55  C24 UNL     1       7.959  -0.741  -1.377  1.00  0.00     0.011 A 
HETATM   56  C25 UNL     1       6.602  -0.506  -1.625  1.00  0.00     0.060 A 
BRANCH  55  57
HETATM   57  N3  UNL     1       8.931   0.262  -1.299  1.00  0.00    -0.290 NA
HETATM   58  H53 UNL     1       9.703  -0.023  -0.696  1.00  0.00     0.127 HD
BRANCH  57  59
HETATM   59  C26 UNL     1       8.556   1.669  -1.087  1.00  0.00     0.126 C 
BRANCH  59  60
HETATM   60  C27 UNL     1       8.401   2.372  -2.450  1.00  0.00     0.149 C 
BRANCH  60  61
HETATM   61  C28 UNL     1       8.022   3.856  -2.368  1.00  0.00     0.162 C 
BRANCH  61  62
HETATM   62  N4  UNL     1       8.707   4.621  -1.335  1.00  0.00    -0.343 N 
HETATM   63  C29 UNL     1       9.969   5.170  -1.468  1.00  0.00     0.046 A 
HETATM   64  C30 UNL     1      10.257   5.832  -0.273  1.00  0.00     0.005 A 
HETATM   65  C34 UNL     1      10.884   5.135  -2.535  1.00  0.00     0.032 A 
HETATM   66  C31 UNL     1      11.501   6.485  -0.135  1.00  0.00     0.033 A 
HETATM   67  C35 UNL     1       9.130   5.676   0.590  1.00  0.00     0.005 A 
HETATM   68  C32 UNL     1      12.411   6.451  -1.195  1.00  0.00     0.011 A 
HETATM   69  C33 UNL     1      12.110   5.787  -2.378  1.00  0.00     0.021 A 
HETATM   70 BR1  UNL     1      14.080   7.324  -1.012  1.00  0.00    -0.051 Br
HETATM   71  C36 UNL     1       8.171   4.925  -0.094  1.00  0.00     0.046 A 
HETATM   72  C40 UNL     1       8.847   6.118   1.901  1.00  0.00     0.033 A 
HETATM   73  C37 UNL     1       6.931   4.604   0.488  1.00  0.00     0.032 A 
HETATM   74  C38 UNL     1       6.672   5.051   1.787  1.00  0.00     0.021 A 
HETATM   75  C39 UNL     1       7.618   5.796   2.480  1.00  0.00     0.011 A 
HETATM   76 BR2  UNL     1       7.237   6.386   4.237  1.00  0.00    -0.051 Br
ENDBRANCH  61  62
ENDBRANCH  60  61
BRANCH  60  77
HETATM   77  O4  UNL     1       9.613   2.200  -3.203  1.00  0.00    -0.393 OA
HETATM   78  H49 UNL     1       9.834   1.252  -3.085  1.00  0.00     0.210 HD
ENDBRANCH  60  77
ENDBRANCH  59  60
ENDBRANCH  57  59
ENDBRANCH  55  57
ENDBRANCH  50  51
ENDBRANCH  49  50
ENDBRANCH  48  49
ENDBRANCH  47  48
ENDBRANCH  46  47
ENDBRANCH  45  46
ENDBRANCH  43  45
ENDBRANCH  40  41
ENDBRANCH   1  40
TORSDOF 26
