REMARK  19 active torsions:
REMARK  status: ('A' for Active; 'I' for Inactive)
REMARK    1  A    between atoms: C3_3  and  C54_54 
REMARK    2  A    between atoms: C5_5  and  C8_8 
REMARK       I    between atoms: C8_8  and  N1_67 
REMARK    3  A    between atoms: C9_9  and  N1_67 
REMARK    4  A    between atoms: C11_11  and  C53_53 
REMARK    5  A    between atoms: C12_12  and  C15_15 
REMARK    6  A    between atoms: C15_15  and  N2_68 
REMARK    7  A    between atoms: C20_20  and  C21_21 
REMARK    8  A    between atoms: C20_20  and  N3_69 
REMARK    9  A    between atoms: C21_21  and  C22_22 
REMARK   10  A    between atoms: C23_23  and  C42_42 
REMARK   11  A    between atoms: C25_25  and  C28_28 
REMARK       I    between atoms: C28_28  and  N4_70 
REMARK   12  A    between atoms: C29_29  and  N4_70 
REMARK   13  A    between atoms: C31_31  and  C41_41 
REMARK   14  A    between atoms: C32_32  and  C35_35 
REMARK   15  A    between atoms: C35_35  and  N5_71 
REMARK   16  A    between atoms: C43_43  and  C44_44 
REMARK   17  A    between atoms: C52_52  and  N8_75 
REMARK   18  A    between atoms: C55_55  and  C56_56 
REMARK   19  A    between atoms: C58_58  and  N10_78 
ROOT
HETATM    1  C21 UNL     1      -2.576  -2.210  -2.470  1.00  0.00     0.070 C 
ENDROOT
BRANCH   1   2
HETATM    2  C20 UNL     1      -1.444  -1.205  -2.188  1.00  0.00     0.277 C 
BRANCH   2   3
HETATM    3  N3  UNL     1      -0.142  -1.595  -2.763  1.00  0.00     0.092 N 
HETATM    4  C17 UNL     1       0.393  -2.822  -2.132  1.00  0.00     0.302 C 
HETATM    5  C16 UNL     1       1.828  -3.166  -2.600  1.00  0.00     0.303 C 
HETATM    6  N2  UNL     1       2.812  -2.077  -2.432  1.00  0.00     0.096 N 
HETATM    7  C19 UNL     1       2.256  -0.859  -3.060  1.00  0.00     0.303 C 
HETATM    8  C18 UNL     1       0.825  -0.487  -2.607  1.00  0.00     0.302 C 
BRANCH   6   9
HETATM    9  C15 UNL     1       3.153  -1.896  -1.015  1.00  0.00     0.311 C 
BRANCH   9  10
HETATM   10  C12 UNL     1       4.357  -0.993  -0.819  1.00  0.00    -0.015 A 
HETATM   11  C11 UNL     1       5.624  -1.288  -1.367  1.00  0.00     0.058 A 
HETATM   12  C10 UNL     1       6.683  -0.376  -1.162  1.00  0.00     0.046 A 
HETATM   13  C9  UNL     1       6.516   0.797  -0.415  1.00  0.00     0.035 A 
HETATM   14  C14 UNL     1       5.268   1.063   0.138  1.00  0.00     0.030 A 
HETATM   15  C13 UNL     1       4.201   0.182  -0.063  1.00  0.00     0.012 A 
BRANCH  11  16
HETATM   16  C53 UNL     1       5.892  -2.529  -2.196  1.00  0.00     0.418 C 
HETATM   17  F4  UNL     1       5.276  -3.655  -1.741  1.00  0.00    -0.166 F 
HETATM   18  F5  UNL     1       5.556  -2.389  -3.507  1.00  0.00    -0.166 F 
HETATM   19  F6  UNL     1       7.224  -2.851  -2.210  1.00  0.00    -0.166 F 
ENDBRANCH  11  16
BRANCH  13  20
HETATM   20  N1  UNL     1       7.642   1.632  -0.263  1.00  0.00    -0.323 N 
HETATM   21  C8  UNL     1       7.694   2.863   0.367  1.00  0.00     0.256 C 
HETATM   22  O1  UNL     1       6.755   3.481   0.853  1.00  0.00    -0.267 OA
HETATM   23  H52 UNL     1       8.485   1.320  -0.728  1.00  0.00     0.169 HD
BRANCH  21  24
HETATM   24  C5  UNL     1       9.044   3.491   0.404  1.00  0.00     0.033 A 
HETATM   25  C4  UNL     1      10.204   2.732   0.595  1.00  0.00     0.038 A 
HETATM   26  C3  UNL     1      11.456   3.358   0.628  1.00  0.00     0.025 A 
HETATM   27  C2  UNL     1      11.558   4.753   0.476  1.00  0.00    -0.043 A 
HETATM   28  C1  UNL     1      12.889   5.455   0.511  1.00  0.00     0.049 C 
HETATM   29  C7  UNL     1      10.386   5.505   0.306  1.00  0.00     0.009 A 
HETATM   30  C6  UNL     1       9.138   4.880   0.275  1.00  0.00     0.017 A 
BRANCH  26  31
HETATM   31  C54 UNL     1      12.618   2.543   0.828  1.00  0.00    -0.061 C 
HETATM   32  C55 UNL     1      13.592   1.861   1.002  1.00  0.00    -0.059 C 
BRANCH  32  33
HETATM   33  C56 UNL     1      14.756   1.050   1.208  1.00  0.00     0.044 A 
HETATM   34  C57 UNL     1      15.478   0.631   0.100  1.00  0.00     0.111 A 
HETATM   35  N9  UNL     1      16.586  -0.134   0.160  1.00  0.00    -0.355 N 
HETATM   36  C58 UNL     1      17.016  -0.512   1.376  1.00  0.00     0.088 A 
ATOM     37  H9  UNL     1      17.080  -0.416  -0.687  1.00  0.00     0.166 HD
HETATM   38  C59 UNL     1      16.364  -0.147   2.581  1.00  0.00     0.014 A 
HETATM   39  C60 UNL     1      16.814  -0.543   3.865  1.00  0.00     0.015 A 
HETATM   40  C64 UNL     1      15.201   0.658   2.488  1.00  0.00    -0.003 A 
HETATM   41  C61 UNL     1      16.142  -0.160   5.026  1.00  0.00     0.001 A 
HETATM   42  C62 UNL     1      15.004   0.628   4.935  1.00  0.00     0.001 A 
HETATM   43  C63 UNL     1      14.539   1.032   3.683  1.00  0.00     0.014 A 
BRANCH  36  44
HETATM   44  N10 UNL     1      18.173  -1.307   1.383  1.00  0.00    -0.288 NA
HETATM   45  H56 UNL     1      18.899  -0.839   1.916  1.00  0.00     0.125 HD
HETATM   46  H57 UNL     1      17.966  -2.198   1.823  1.00  0.00     0.125 HD
ENDBRANCH  36  44
ENDBRANCH  32  33
ENDBRANCH  26  31
ENDBRANCH  21  24
ENDBRANCH  13  20
ENDBRANCH   9  10
ENDBRANCH   6   9
ENDBRANCH   2   3
ENDBRANCH   1   2
BRANCH   1  47
HETATM   47  C22 UNL     1      -3.888  -1.790  -1.834  1.00  0.00    -0.038 A 
HETATM   48  C23 UNL     1      -4.147  -1.983  -0.462  1.00  0.00     0.025 A 
HETATM   49  C24 UNL     1      -5.368  -1.579   0.087  1.00  0.00     0.038 A 
HETATM   50  C25 UNL     1      -6.344  -0.986  -0.723  1.00  0.00     0.033 A 
HETATM   51  C26 UNL     1      -6.084  -0.768  -2.080  1.00  0.00     0.017 A 
HETATM   52  C27 UNL     1      -4.865  -1.171  -2.630  1.00  0.00     0.010 A 
BRANCH  48  53
HETATM   53  C42 UNL     1      -3.170  -2.576   0.403  1.00  0.00    -0.061 C 
HETATM   54  C43 UNL     1      -2.301  -3.042   1.089  1.00  0.00    -0.057 C 
BRANCH  54  55
HETATM   55  C44 UNL     1      -1.213  -3.574   1.864  1.00  0.00     0.067 A 
HETATM   56  C45 UNL     1      -0.843  -2.990   3.102  1.00  0.00    -0.001 A 
HETATM   57  C46 UNL     1      -1.502  -1.882   3.691  1.00  0.00     0.037 A 
HETATM   58  C50 UNL     1       0.256  -3.543   3.794  1.00  0.00    -0.009 A 
HETATM   59  C47 UNL     1      -1.079  -1.357   4.913  1.00  0.00     0.035 A 
HETATM   60  C48 UNL     1       0.003  -1.913   5.583  1.00  0.00     0.024 A 
HETATM   61 CL1  UNL     1      -1.904  -0.010   5.595  1.00  0.00    -0.084 Cl
HETATM   62  C49 UNL     1       0.670  -3.004   5.026  1.00  0.00     0.015 A 
HETATM   63  C51 UNL     1       0.910  -4.629   3.214  1.00  0.00     0.101 A 
HETATM   64  N7  UNL     1       0.569  -5.195   2.035  1.00  0.00    -0.355 N 
HETATM   65  C52 UNL     1      -0.483  -4.672   1.383  1.00  0.00     0.097 A 
ATOM     66  H7  UNL     1       1.089  -5.986   1.656  1.00  0.00     0.166 HD
BRANCH  65  67
HETATM   67  N8  UNL     1      -0.760  -5.275   0.153  1.00  0.00    -0.287 NA
HETATM   68  H54 UNL     1      -0.145  -6.081   0.075  1.00  0.00     0.125 HD
HETATM   69  H55 UNL     1      -1.739  -5.531   0.080  1.00  0.00     0.125 HD
ENDBRANCH  65  67
ENDBRANCH  54  55
ENDBRANCH  48  53
BRANCH  50  70
HETATM   70  C28 UNL     1      -7.629  -0.570  -0.094  1.00  0.00     0.256 C 
HETATM   71  O2  UNL     1      -7.602  -0.166   1.062  1.00  0.00    -0.267 OA
HETATM   72  N4  UNL     1      -8.746  -0.728  -0.894  1.00  0.00    -0.323 N 
HETATM   73  H53 UNL     1      -8.614  -1.204  -1.777  1.00  0.00     0.169 HD
BRANCH  72  74
HETATM   74  C29 UNL     1     -10.078  -0.382  -0.580  1.00  0.00     0.035 A 
HETATM   75  C30 UNL     1     -11.064  -0.714  -1.516  1.00  0.00     0.046 A 
HETATM   76  C31 UNL     1     -12.428  -0.414  -1.300  1.00  0.00     0.058 A 
HETATM   77  C32 UNL     1     -12.797   0.260  -0.116  1.00  0.00    -0.015 A 
HETATM   78  C33 UNL     1     -11.800   0.590   0.817  1.00  0.00     0.012 A 
HETATM   79  C34 UNL     1     -10.458   0.273   0.587  1.00  0.00     0.030 A 
BRANCH  76  80
HETATM   80  C41 UNL     1     -13.429  -0.799  -2.371  1.00  0.00     0.418 C 
HETATM   81  F1  UNL     1     -14.615  -1.266  -1.891  1.00  0.00    -0.166 F 
HETATM   82  F2  UNL     1     -12.960  -1.810  -3.169  1.00  0.00    -0.166 F 
HETATM   83  F3  UNL     1     -13.719   0.216  -3.230  1.00  0.00    -0.166 F 
ENDBRANCH  76  80
BRANCH  77  84
HETATM   84  C35 UNL     1     -14.234   0.646   0.187  1.00  0.00     0.311 C 
BRANCH  84  85
HETATM   85  N5  UNL     1     -14.795   1.554  -0.819  1.00  0.00     0.096 N 
HETATM   86  C36 UNL     1     -14.124   2.874  -0.801  1.00  0.00     0.303 C 
HETATM   87  C37 UNL     1     -15.014   4.003  -1.362  1.00  0.00     0.302 C 
HETATM   88  N6  UNL     1     -16.212   4.236  -0.530  1.00  0.00     0.087 N 
HETATM   89  C38 UNL     1     -16.712   2.979   0.062  1.00  0.00     0.302 C 
HETATM   90  C40 UNL     1     -17.243   4.924  -1.302  1.00  0.00     0.310 C 
HETATM   91  C39 UNL     1     -16.259   1.697  -0.672  1.00  0.00     0.303 C 
ENDBRANCH  84  85
ENDBRANCH  77  84
ENDBRANCH  72  74
ENDBRANCH  50  70
ENDBRANCH   1  47
TORSDOF 19
