REMARK  26 active torsions:
REMARK  status: ('A' for Active; 'I' for Inactive)
REMARK    1  A    between atoms: C4_4  and  N2_54 
REMARK       I    between atoms: C5_5  and  N2_54 
REMARK       I    between atoms: C5_5  and  N3_55 
REMARK    2  A    between atoms: C6_6  and  N3_55 
REMARK    3  A    between atoms: C8_8  and  S1_93 
REMARK    4  A    between atoms: C12_12  and  N1_53 
REMARK    5  A    between atoms: C15_15  and  N7_61 
REMARK    6  A    between atoms: C16_16  and  N7_61 
REMARK    7  A    between atoms: C19_19  and  N8_62 
REMARK    8  A    between atoms: C22_22  and  N8_62 
REMARK    9  A    between atoms: C23_23  and  N14_71 
REMARK   10  A    between atoms: C27_27  and  N12_69 
REMARK   11  A    between atoms: C29_29  and  N13_70 
REMARK   12  A    between atoms: C30_30  and  O5_83 
REMARK   13  A    between atoms: C31_31  and  O4_82 
REMARK   14  A    between atoms: C32_32  and  C33_33 
REMARK       I    between atoms: C32_32  and  N13_70 
REMARK   15  A    between atoms: C33_33  and  O7_85 
REMARK   16  A    between atoms: C36_36  and  N15_72 
REMARK       I    between atoms: C38_38  and  N15_72 
REMARK       I    between atoms: C38_38  and  N16_73 
REMARK   17  A    between atoms: C39_39  and  N16_73 
REMARK   18  A    between atoms: C41_41  and  S2_94 
REMARK   19  A    between atoms: C46_46  and  N19_77 
REMARK   20  A    between atoms: C48_48  and  N20_78 
REMARK   21  A    between atoms: C49_49  and  O12_90 
REMARK   22  A    between atoms: C50_50  and  O11_89 
REMARK   23  A    between atoms: C51_51  and  C52_52 
REMARK       I    between atoms: C51_51  and  N20_78 
REMARK   24  A    between atoms: C52_52  and  O14_92 
REMARK   25  A    between atoms: N4_56  and  S1_93 
REMARK   26  A    between atoms: N17_74  and  S2_94 
ROOT
HETATM    1  C16 UNL     1      -1.059  -0.605   1.075  1.00  0.00     0.062 C 
HETATM    2  C17 UNL     1      -1.491  -1.377  -0.178  1.00  0.00     0.021 C 
HETATM    3  C18 UNL     1      -1.722  -2.869   0.088  1.00  0.00     0.021 C 
HETATM    4  C19 UNL     1      -2.373  -3.150   1.451  1.00  0.00     0.062 C 
HETATM    5  C20 UNL     1      -1.511  -2.593   2.605  1.00  0.00     0.021 C 
HETATM    6  C21 UNL     1      -0.519  -1.496   2.196  1.00  0.00     0.021 C 
ENDROOT
BRANCH   1   7
HETATM    7  N7  UNL     1      -0.202   0.539   0.746  1.00  0.00    -0.272 NA
HETATM    8  H55 UNL     1      -0.375   1.344   1.360  1.00  0.00     0.129 HD
BRANCH   7   9
HETATM    9  C15 UNL     1       1.180   0.434   0.610  1.00  0.00     0.127 A 
HETATM   10  C14 UNL     1       1.930  -0.628   0.076  1.00  0.00     0.117 A 
HETATM   11  C13 UNL     1       3.301  -0.439   0.020  1.00  0.00     0.155 A 
HETATM   12  N18 UNL     1       1.602  -1.873  -0.421  1.00  0.00    -0.346 N 
HETATM   13  N5  UNL     1       3.988   0.651   0.389  1.00  0.00    -0.174 N 
HETATM   14  N19 UNL     1       3.810  -1.614  -0.463  1.00  0.00    -0.319 N 
HETATM   15  C12 UNL     1       3.204   1.622   0.888  1.00  0.00     0.683 A 
ATOM     16  H5  UNL     1       5.001   0.735   0.300  1.00  0.00     0.186 HD
HETATM   17  N6  UNL     1       1.865   1.537   1.009  1.00  0.00    -0.179 N 
ATOM     18  H6  UNL     1       1.352   2.322   1.411  1.00  0.00     0.185 HD
HETATM   19  C45 UNL     1       2.748  -2.434  -0.738  1.00  0.00     0.185 A 
ATOM     20  H18 UNL     1       0.669  -2.273  -0.521  1.00  0.00     0.167 HD
BRANCH  15  21
HETATM   21  N1  UNL     1       3.843   2.760   1.340  1.00  0.00    -0.215 N 
HETATM   22  C2  UNL     1       3.059   3.798   2.021  1.00  0.00     0.143 C 
HETATM   23  C1  UNL     1       3.698   5.125   1.596  1.00  0.00     0.047 C 
HETATM   24  C4  UNL     1       5.074   4.728   1.068  1.00  0.00     0.106 C 
HETATM   25  C3  UNL     1       4.769   3.383   0.392  1.00  0.00     0.166 C 
BRANCH  24  26
HETATM   26  N2  UNL     1       6.038   4.548   2.148  1.00  0.00    -0.337 N 
HETATM   27  C5  UNL     1       6.639   5.608   2.784  1.00  0.00     0.321 C 
HETATM   28  N3  UNL     1       7.457   5.164   3.799  1.00  0.00    -0.309 N 
HETATM   29  O1  UNL     1       6.447   6.769   2.450  1.00  0.00    -0.247 OA
HETATM   30  H52 UNL     1       7.468   4.160   3.933  1.00  0.00     0.170 HD
HETATM   31  H51 UNL     1       5.998   3.666   2.647  1.00  0.00     0.164 HD
BRANCH  28  32
HETATM   32  C6  UNL     1       8.262   5.934   4.657  1.00  0.00     0.037 A 
HETATM   33  C7  UNL     1       8.445   7.310   4.522  1.00  0.00     0.054 A 
HETATM   34  C8  UNL     1       9.246   7.998   5.442  1.00  0.00     0.076 A 
HETATM   35  C9  UNL     1       9.883   7.327   6.487  1.00  0.00     0.025 A 
HETATM   36  C10 UNL     1       9.717   5.950   6.612  1.00  0.00     0.004 A 
HETATM   37  C11 UNL     1       8.912   5.259   5.701  1.00  0.00     0.029 A 
BRANCH  34  38
HETATM   38  S1  UNL     1       9.451   9.749   5.262  1.00  0.00     0.239 S 
HETATM   39  O2  UNL     1       9.919  10.011   3.924  1.00  0.00    -0.206 OA
HETATM   40  O3  UNL     1      10.130  10.250   6.436  1.00  0.00    -0.206 OA
BRANCH  38  41
HETATM   41  N4  UNL     1       7.873  10.318   5.400  1.00  0.00    -0.225 NA
HETATM   42  H53 UNL     1       7.787  10.864   6.257  1.00  0.00     0.136 HD
HETATM   43  H54 UNL     1       7.162   9.590   5.327  1.00  0.00     0.136 HD
ENDBRANCH  38  41
ENDBRANCH  34  38
ENDBRANCH  28  32
ENDBRANCH  24  26
ENDBRANCH  15  21
BRANCH  14  44
HETATM   44  C46 UNL     1       5.204  -1.988  -0.607  1.00  0.00     0.125 C 
HETATM   45  C47 UNL     1       6.064  -1.701   0.639  1.00  0.00     0.056 C 
HETATM   46  C48 UNL     1       7.147  -0.710   0.204  1.00  0.00     0.118 C 
HETATM   47  C49 UNL     1       6.695  -0.147  -1.154  1.00  0.00     0.171 C 
HETATM   48  C50 UNL     1       5.902  -1.293  -1.779  1.00  0.00     0.172 C 
BRANCH  46  49
HETATM   49  N20 UNL     1       7.378   0.331   1.200  1.00  0.00    -0.352 N 
HETATM   50  C51 UNL     1       8.466   1.173   1.081  1.00  0.00     0.241 C 
HETATM   51  O13 UNL     1       9.289   1.067   0.175  1.00  0.00    -0.271 OA
HETATM   52  H62 UNL     1       6.565   0.730   1.667  1.00  0.00     0.163 HD
BRANCH  50  53
HETATM   53  C52 UNL     1       8.566   2.248   2.168  1.00  0.00     0.266 C 
BRANCH  53  54
HETATM   54  O14 UNL     1       7.544   2.192   3.163  1.00  0.00    -0.392 OA
HETATM   55  H68 UNL     1       7.657   1.327   3.603  1.00  0.00     0.210 HD
ENDBRANCH  53  54
ENDBRANCH  50  53
ENDBRANCH  46  49
BRANCH  47  56
HETATM   56  O12 UNL     1       7.798   0.186  -2.001  1.00  0.00    -0.391 OA
HETATM   57  H67 UNL     1       8.474   0.621  -1.433  1.00  0.00     0.210 HD
ENDBRANCH  47  56
BRANCH  48  58
HETATM   58  O11 UNL     1       6.812  -2.218  -2.393  1.00  0.00    -0.391 OA
HETATM   59  H66 UNL     1       7.489  -1.650  -2.824  1.00  0.00     0.210 HD
ENDBRANCH  48  58
ENDBRANCH  14  44
ENDBRANCH   7   9
ENDBRANCH   1   7
BRANCH   4  60
HETATM   60  N8  UNL     1      -3.706  -2.550   1.552  1.00  0.00    -0.272 NA
HETATM   61  H56 UNL     1      -3.726  -1.538   1.470  1.00  0.00     0.129 HD
BRANCH  60  62
HETATM   62  C22 UNL     1      -4.703  -3.013   0.693  1.00  0.00     0.127 A 
HETATM   63  C25 UNL     1      -5.017  -4.342   0.375  1.00  0.00     0.117 A 
HETATM   64  C24 UNL     1      -6.068  -4.519  -0.509  1.00  0.00     0.155 A 
HETATM   65  N11 UNL     1      -4.500  -5.563   0.757  1.00  0.00    -0.346 N 
HETATM   66  N10 UNL     1      -6.805  -3.570  -1.114  1.00  0.00    -0.174 N 
HETATM   67  N12 UNL     1      -6.191  -5.879  -0.654  1.00  0.00    -0.319 N 
HETATM   68  C23 UNL     1      -6.414  -2.325  -0.780  1.00  0.00     0.683 A 
ATOM     69  H10 UNL     1      -7.574  -3.771  -1.754  1.00  0.00     0.186 HD
HETATM   70  N9  UNL     1      -5.437  -2.039   0.106  1.00  0.00    -0.179 N 
ATOM     71  H9  UNL     1      -5.247  -1.064   0.339  1.00  0.00     0.185 HD
HETATM   72  C26 UNL     1      -5.243  -6.460   0.142  1.00  0.00     0.185 A 
ATOM     73  H11 UNL     1      -3.712  -5.734   1.381  1.00  0.00     0.167 HD
BRANCH  68  74
HETATM   74  N14 UNL     1      -7.025  -1.247  -1.384  1.00  0.00    -0.215 N 
HETATM   75  C34 UNL     1      -7.900  -1.408  -2.532  1.00  0.00     0.143 C 
HETATM   76  C35 UNL     1      -8.060   0.028  -3.040  1.00  0.00     0.047 C 
HETATM   77  C36 UNL     1      -6.655   0.589  -2.855  1.00  0.00     0.106 C 
HETATM   78  C37 UNL     1      -6.194  -0.051  -1.525  1.00  0.00     0.166 C 
BRANCH  77  79
HETATM   79  N15 UNL     1      -6.579   2.042  -2.843  1.00  0.00    -0.337 N 
HETATM   80  C38 UNL     1      -5.309   2.584  -2.726  1.00  0.00     0.321 C 
HETATM   81  N16 UNL     1      -5.357   3.922  -2.415  1.00  0.00    -0.309 N 
HETATM   82  O8  UNL     1      -4.297   1.907  -2.848  1.00  0.00    -0.247 OA
HETATM   83  H59 UNL     1      -6.149   4.428  -2.783  1.00  0.00     0.170 HD
HETATM   84  H58 UNL     1      -7.272   2.516  -2.281  1.00  0.00     0.164 HD
BRANCH  81  85
HETATM   85  C39 UNL     1      -4.278   4.675  -1.906  1.00  0.00     0.037 A 
HETATM   86  C40 UNL     1      -3.162   4.082  -1.308  1.00  0.00     0.054 A 
HETATM   87  C41 UNL     1      -2.135   4.880  -0.796  1.00  0.00     0.076 A 
HETATM   88  C42 UNL     1      -2.204   6.272  -0.874  1.00  0.00     0.025 A 
HETATM   89  C43 UNL     1      -3.325   6.866  -1.454  1.00  0.00     0.004 A 
HETATM   90  C44 UNL     1      -4.360   6.071  -1.960  1.00  0.00     0.029 A 
BRANCH  87  91
HETATM   91  S2  UNL     1      -0.739   4.100  -0.041  1.00  0.00     0.239 S 
HETATM   92  O9  UNL     1      -1.191   3.401   1.141  1.00  0.00    -0.206 OA
HETATM   93  O10 UNL     1       0.358   5.042  -0.010  1.00  0.00    -0.206 OA
BRANCH  91  94
HETATM   94  N17 UNL     1      -0.303   2.938  -1.167  1.00  0.00    -0.225 NA
HETATM   95  H60 UNL     1      -0.412   1.999  -0.759  1.00  0.00     0.136 HD
HETATM   96  H61 UNL     1       0.650   3.102  -1.487  1.00  0.00     0.136 HD
ENDBRANCH  91  94
ENDBRANCH  87  91
ENDBRANCH  81  85
ENDBRANCH  77  79
ENDBRANCH  68  74
BRANCH  67  97
HETATM   97  C27 UNL     1      -7.208  -6.531  -1.452  1.00  0.00     0.125 C 
HETATM   98  C28 UNL     1      -7.080  -8.048  -1.617  1.00  0.00     0.056 C 
HETATM   99  C29 UNL     1      -8.000  -8.326  -2.804  1.00  0.00     0.118 C 
HETATM  100  C30 UNL     1      -7.595  -7.218  -3.784  1.00  0.00     0.171 C 
HETATM  101  C31 UNL     1      -7.280  -5.998  -2.902  1.00  0.00     0.172 C 
BRANCH  99 102
HETATM  102  N13 UNL     1      -7.844  -9.647  -3.392  1.00  0.00    -0.352 N 
HETATM  103  C32 UNL     1      -8.153 -10.783  -2.673  1.00  0.00     0.241 C 
HETATM  104  O6  UNL     1      -8.389 -10.788  -1.467  1.00  0.00    -0.271 OA
HETATM  105  H57 UNL     1      -8.022  -9.695  -4.391  1.00  0.00     0.163 HD
BRANCH 103 106
HETATM  106  C33 UNL     1      -8.148 -12.074  -3.494  1.00  0.00     0.266 C 
BRANCH 106 107
HETATM  107  O7  UNL     1      -8.739 -13.155  -2.789  1.00  0.00    -0.392 OA
HETATM  108  H65 UNL     1      -8.654 -12.935  -1.839  1.00  0.00     0.210 HD
ENDBRANCH 106 107
ENDBRANCH 103 106
ENDBRANCH  99 102
BRANCH 100 109
HETATM  109  O5  UNL     1      -8.623  -6.963  -4.733  1.00  0.00    -0.391 OA
HETATM  110  H64 UNL     1      -8.999  -6.092  -4.478  1.00  0.00     0.210 HD
ENDBRANCH 100 109
BRANCH 101 111
HETATM  111  O4  UNL     1      -8.320  -5.021  -3.037  1.00  0.00    -0.391 OA
HETATM  112  H63 UNL     1      -8.068  -4.291  -2.425  1.00  0.00     0.210 HD
ENDBRANCH 101 111
ENDBRANCH  67  97
ENDBRANCH  60  62
ENDBRANCH   4  60
TORSDOF 26
