REMARK  0 active torsions:
REMARK  status: ('A' for Active; 'I' for Inactive)
REMARK       I    between atoms: C2_2  and  C3_3 
REMARK       I    between atoms: C3_3  and  C4_4 
REMARK       I    between atoms: C4_4  and  C5_5 
REMARK       I    between atoms: C5_5  and  C6_6 
REMARK       I    between atoms: C6_6  and  C7_7 
REMARK       I    between atoms: C7_7  and  C8_8 
REMARK       I    between atoms: C8_8  and  N1_85 
REMARK       I    between atoms: C9_9  and  C10_10 
REMARK       I    between atoms: C9_9  and  N1_85 
REMARK       I    between atoms: C10_10  and  C11_11 
REMARK       I    between atoms: C11_11  and  C12_12 
REMARK       I    between atoms: C12_12  and  C13_13 
REMARK       I    between atoms: C13_13  and  C14_14 
REMARK       I    between atoms: C14_14  and  C15_15 
REMARK       I    between atoms: C17_17  and  C18_18 
REMARK       I    between atoms: C17_17  and  N1_85 
REMARK       I    between atoms: C20_20  and  N2_86 
REMARK       I    between atoms: C24_24  and  C25_25 
REMARK       I    between atoms: C24_24  and  O10_109 
REMARK       I    between atoms: C27_27  and  C31_31 
REMARK       I    between atoms: C31_31  and  O9_108 
REMARK       I    between atoms: C32_32  and  N3_88 
REMARK       I    between atoms: C34_34  and  N4_90 
REMARK       I    between atoms: C39_39  and  C40_40 
REMARK       I    between atoms: C39_39  and  O8_107 
REMARK       I    between atoms: C42_42  and  N9_99 
REMARK       I    between atoms: C44_44  and  C46_46 
REMARK       I    between atoms: C46_46  and  O5_104 
REMARK       I    between atoms: C47_47  and  N5_92 
REMARK       I    between atoms: C51_51  and  N6_94 
REMARK       I    between atoms: C53_53  and  C54_54 
REMARK       I    between atoms: C53_53  and  O4_103 
REMARK       I    between atoms: C58_58  and  C60_60 
REMARK       I    between atoms: C60_60  and  O3_102 
REMARK       I    between atoms: C61_61  and  N7_96 
REMARK       I    between atoms: C65_65  and  C67_67 
REMARK       I    between atoms: C67_67  and  N8_98 
REMARK       I    between atoms: C68_68  and  C69_69 
REMARK       I    between atoms: C68_68  and  N8_98 
REMARK       I    between atoms: C69_69  and  C70_70 
REMARK       I    between atoms: C70_70  and  C71_71 
REMARK       I    between atoms: C71_71  and  C72_72 
REMARK       I    between atoms: C72_72  and  C73_73 
REMARK       I    between atoms: C73_73  and  C74_74 
REMARK       I    between atoms: C76_76  and  C77_77 
REMARK       I    between atoms: C76_76  and  N8_98 
REMARK       I    between atoms: C77_77  and  C78_78 
REMARK       I    between atoms: C78_78  and  C79_79 
REMARK       I    between atoms: C79_79  and  C80_80 
REMARK       I    between atoms: C80_80  and  C81_81 
REMARK       I    between atoms: C81_81  and  C82_82 
ROOT
HETATM    1  C1  UNL     1     -19.194   2.321   4.224  1.00  0.00     0.005 C 
HETATM    2  C2  UNL     1     -19.282   1.761   2.814  1.00  0.00    -0.005 C 
HETATM    3  C3  UNL     1     -17.951   1.897   2.073  1.00  0.00    -0.000 C 
HETATM    4  C4  UNL     1     -18.044   1.327   0.657  1.00  0.00     0.000 C 
HETATM    5  C5  UNL     1     -16.775   1.542  -0.173  1.00  0.00     0.000 C 
HETATM    6  C6  UNL     1     -15.489   0.933   0.396  1.00  0.00     0.002 C 
HETATM    7  C7  UNL     1     -15.560  -0.587   0.566  1.00  0.00     0.020 C 
HETATM    8  C8  UNL     1     -14.259  -1.200   1.090  1.00  0.00     0.126 C 
HETATM    9  C9  UNL     1     -13.043  -1.793  -1.027  1.00  0.00     0.126 C 
HETATM   10  C10 UNL     1     -13.500  -0.998  -2.255  1.00  0.00     0.020 C 
HETATM   11  C11 UNL     1     -13.164  -1.693  -3.578  1.00  0.00     0.002 C 
HETATM   12  C12 UNL     1     -13.879  -3.035  -3.752  1.00  0.00     0.000 C 
HETATM   13  C13 UNL     1     -13.686  -3.646  -5.143  1.00  0.00     0.000 C 
HETATM   14  C14 UNL     1     -12.236  -3.939  -5.544  1.00  0.00    -0.000 C 
HETATM   15  C15 UNL     1     -11.455  -4.845  -4.589  1.00  0.00    -0.005 C 
HETATM   16  C16 UNL     1     -12.070  -6.226  -4.426  1.00  0.00     0.005 C 
HETATM   17  C17 UNL     1     -12.169  -0.031   0.573  1.00  0.00     0.253 C 
HETATM   18  C18 UNL     1     -10.942   0.126  -0.230  1.00  0.00     0.034 A 
HETATM   19  C19 UNL     1     -10.763   1.308  -0.956  1.00  0.00     0.049 A 
HETATM   20  C20 UNL     1      -9.585   1.513  -1.676  1.00  0.00     0.074 A 
HETATM   21  C21 UNL     1      -8.608   0.505  -1.668  1.00  0.00     0.143 A 
HETATM   22  C22 UNL     1      -8.773  -0.665  -0.927  1.00  0.00     0.046 A 
HETATM   23  C23 UNL     1      -9.942  -0.852  -0.191  1.00  0.00     0.020 A 
HETATM   24  C24 UNL     1      -8.588   3.586  -2.005  1.00  0.00     0.154 C 
HETATM   25  C25 UNL     1      -7.751   3.642  -0.807  1.00  0.00     0.054 A 
HETATM   26  C26 UNL     1      -6.362   3.624  -0.934  1.00  0.00     0.145 A 
HETATM   27  C27 UNL     1      -5.562   3.673   0.209  1.00  0.00     0.054 A 
HETATM   28  C28 UNL     1      -6.167   3.743   1.476  1.00  0.00     0.019 A 
HETATM   29  C29 UNL     1      -7.559   3.764   1.596  1.00  0.00     0.002 A 
HETATM   30  C30 UNL     1      -8.355   3.714   0.454  1.00  0.00     0.019 A 
HETATM   31  C31 UNL     1      -4.093   3.627   0.087  1.00  0.00     0.154 C 
HETATM   32  C32 UNL     1      -2.062   3.023  -0.931  1.00  0.00     0.075 A 
HETATM   33  C33 UNL     1      -1.297   2.197  -0.099  1.00  0.00     0.169 A 
HETATM   34  C34 UNL     1       0.099   2.143  -0.210  1.00  0.00     0.075 A 
HETATM   35  C35 UNL     1       0.731   2.951  -1.159  1.00  0.00     0.039 A 
HETATM   36  C36 UNL     1      -0.012   3.788  -2.003  1.00  0.00    -0.058 A 
HETATM   37  C37 UNL     1      -1.410   3.800  -1.893  1.00  0.00     0.039 A 
HETATM   38  C38 UNL     1       0.674   4.611  -3.052  1.00  0.00     0.048 C 
HETATM   39  C39 UNL     1       0.919   0.064   0.510  1.00  0.00     0.154 C 
HETATM   40  C40 UNL     1       1.715  -0.833   1.365  1.00  0.00     0.057 A 
HETATM   41  C41 UNL     1       1.248  -2.124   1.659  1.00  0.00     0.055 A 
HETATM   42  C42 UNL     1       2.002  -2.958   2.494  1.00  0.00     0.104 A 
HETATM   43  C43 UNL     1       3.216  -2.517   3.033  1.00  0.00     0.055 A 
HETATM   44  C44 UNL     1       3.684  -1.232   2.721  1.00  0.00     0.057 A 
HETATM   45  C45 UNL     1       2.929  -0.388   1.899  1.00  0.00     0.145 A 
HETATM   46  C46 UNL     1       4.980  -0.812   3.282  1.00  0.00     0.154 C 
HETATM   47  C47 UNL     1       6.679  -0.843   4.899  1.00  0.00     0.075 A 
HETATM   48  C48 UNL     1       6.765   0.082   5.944  1.00  0.00     0.039 A 
HETATM   49  C49 UNL     1       8.008   0.481   6.455  1.00  0.00    -0.058 A 
HETATM   50  C50 UNL     1       9.177  -0.074   5.916  1.00  0.00     0.039 A 
HETATM   51  C51 UNL     1       9.117  -0.991   4.860  1.00  0.00     0.075 A 
HETATM   52  C52 UNL     1       7.861  -1.395   4.388  1.00  0.00     0.169 A 
HETATM   53  C53 UNL     1      10.972  -0.768   3.475  1.00  0.00     0.154 C 
HETATM   54  C54 UNL     1      10.733   0.578   2.951  1.00  0.00     0.054 A 
HETATM   55  C55 UNL     1      11.670   1.591   3.202  1.00  0.00     0.019 A 
HETATM   56  C56 UNL     1      11.422   2.894   2.761  1.00  0.00     0.002 A 
HETATM   57  C57 UNL     1      10.239   3.187   2.080  1.00  0.00     0.019 A 
HETATM   58  C58 UNL     1       9.324   2.164   1.820  1.00  0.00     0.054 A 
HETATM   59  C59 UNL     1       9.574   0.861   2.237  1.00  0.00     0.145 A 
HETATM   60  C60 UNL     1       8.072   2.446   1.124  1.00  0.00     0.154 C 
HETATM   61  C61 UNL     1       8.885   2.567  -1.035  1.00  0.00     0.074 A 
HETATM   62  C62 UNL     1       9.694   3.672  -1.336  1.00  0.00     0.143 A 
HETATM   63  C63 UNL     1      10.756   3.567  -2.230  1.00  0.00     0.046 A 
HETATM   64  C64 UNL     1      11.029   2.339  -2.830  1.00  0.00     0.020 A 
HETATM   65  C65 UNL     1      10.235   1.223  -2.534  1.00  0.00     0.034 A 
HETATM   66  C66 UNL     1       9.137   1.352  -1.677  1.00  0.00     0.049 A 
HETATM   67  C67 UNL     1      10.515  -0.048  -3.237  1.00  0.00     0.253 C 
HETATM   68  C68 UNL     1      10.656  -2.482  -3.335  1.00  0.00     0.126 C 
HETATM   69  C69 UNL     1       9.330  -2.869  -4.004  1.00  0.00     0.020 C 
HETATM   70  C70 UNL     1       8.176  -3.137  -3.031  1.00  0.00     0.002 C 
HETATM   71  C71 UNL     1       8.376  -4.402  -2.192  1.00  0.00     0.000 C 
HETATM   72  C72 UNL     1       7.219  -4.669  -1.222  1.00  0.00     0.000 C 
HETATM   73  C73 UNL     1       7.174  -3.675  -0.057  1.00  0.00    -0.000 C 
HETATM   74  C74 UNL     1       6.012  -3.924   0.906  1.00  0.00    -0.005 C 
HETATM   75  C75 UNL     1       6.125  -5.229   1.678  1.00  0.00     0.005 C 
HETATM   76  C76 UNL     1      10.698  -1.406  -1.080  1.00  0.00     0.126 C 
HETATM   77  C77 UNL     1      12.146  -1.637  -0.636  1.00  0.00     0.020 C 
HETATM   78  C78 UNL     1      12.933  -0.333  -0.480  1.00  0.00     0.002 C 
HETATM   79  C79 UNL     1      14.348  -0.605   0.031  1.00  0.00     0.000 C 
HETATM   80  C80 UNL     1      15.102   0.642   0.505  1.00  0.00     0.000 C 
HETATM   81  C81 UNL     1      15.318   1.711  -0.570  1.00  0.00    -0.000 C 
HETATM   82  C82 UNL     1      14.290   2.841  -0.494  1.00  0.00    -0.005 C 
HETATM   83  C83 UNL     1      14.538   3.888  -1.569  1.00  0.00     0.005 C 
HETATM   84  C84 UNL     1       8.082   1.439   7.607  1.00  0.00     0.048 C 
HETATM   85  N1  UNL     1     -13.094  -1.016   0.220  1.00  0.00    -0.348 N 
HETATM   86  N2  UNL     1      -9.435   2.701  -2.412  1.00  0.00    -0.334 N 
ATOM     87  H2  UNL     1      -9.987   2.861  -3.255  1.00  0.00     0.168 HD
HETATM   88  N3  UNL     1      -3.462   3.046  -0.878  1.00  0.00    -0.334 N 
ATOM     89  H3  UNL     1      -3.996   2.593  -1.620  1.00  0.00     0.168 HD
HETATM   90  N4  UNL     1       0.886   1.348   0.635  1.00  0.00    -0.334 N 
ATOM     91  H4  UNL     1       1.444   1.794   1.363  1.00  0.00     0.168 HD
HETATM   92  N5  UNL     1       5.411  -1.219   4.430  1.00  0.00    -0.334 N 
ATOM     93  H5  UNL     1       4.821  -1.822   5.003  1.00  0.00     0.168 HD
HETATM   94  N6  UNL     1      10.304  -1.501   4.299  1.00  0.00    -0.334 N 
ATOM     95  H6  UNL     1      10.630  -2.437   4.541  1.00  0.00     0.168 HD
HETATM   96  N7  UNL     1       7.820   2.652  -0.122  1.00  0.00    -0.334 N 
ATOM     97  H7  UNL     1       6.875   2.871  -0.437  1.00  0.00     0.168 HD
HETATM   98  N8  UNL     1      10.556  -1.256  -2.535  1.00  0.00    -0.348 N 
HETATM   99  N9  UNL     1       1.515  -4.308   2.804  1.00  0.00    -0.116 N 
HETATM  100  O1  UNL     1     -12.301   0.735   1.525  1.00  0.00    -0.267 OA
HETATM  101  O2  UNL     1      10.691   0.026  -4.453  1.00  0.00    -0.267 OA
HETATM  102  O3  UNL     1       7.059   2.465   2.005  1.00  0.00    -0.345 OA
HETATM  103  O4  UNL     1      12.119  -1.265   2.985  1.00  0.00    -0.345 OA
HETATM  104  O5  UNL     1       5.642  -0.012   2.431  1.00  0.00    -0.345 OA
HETATM  105  O6  UNL     1       0.377  -4.610   2.420  1.00  0.00    -0.532 OA
HETATM  106  O7  UNL     1       2.272  -5.063   3.429  1.00  0.00    -0.532 OA
HETATM  107  O8  UNL     1       0.255  -0.645  -0.425  1.00  0.00    -0.345 OA
HETATM  108  O9  UNL     1      -3.505   4.287   1.105  1.00  0.00    -0.345 OA
HETATM  109  O10 UNL     1      -8.445   4.704  -2.733  1.00  0.00    -0.345 OA
HETATM  110  F1  UNL     1      -7.473   0.664  -2.365  1.00  0.00    -0.204 F 
HETATM  111  F2  UNL     1       3.369   0.850   1.624  1.00  0.00    -0.204 F 
HETATM  112  F3  UNL     1       7.790  -2.288   3.386  1.00  0.00    -0.201 F 
HETATM  113  F4  UNL     1       8.703  -0.111   1.929  1.00  0.00    -0.204 F 
HETATM  114  F5  UNL     1       9.469   4.853  -0.740  1.00  0.00    -0.204 F 
HETATM  115  F6  UNL     1      -1.913   1.433   0.820  1.00  0.00    -0.201 F 
HETATM  116  F7  UNL     1      -5.811   3.570  -2.156  1.00  0.00    -0.204 F 
HETATM  117  H93 UNL     1       6.236   2.616   1.502  1.00  0.00     0.219 HD
HETATM  118  H94 UNL     1      12.222  -2.160   3.355  1.00  0.00     0.219 HD
HETATM  119  H95 UNL     1       6.492   0.294   2.786  1.00  0.00     0.219 HD
HETATM  120  H96 UNL     1      -0.270  -0.073  -1.006  1.00  0.00     0.219 HD
HETATM  121  H97 UNL     1      -2.540   4.279   1.024  1.00  0.00     0.219 HD
HETATM  122  H98 UNL     1      -9.005   4.606  -3.522  1.00  0.00     0.219 HD
ENDROOT
TORSDOF 49
