REMARK  22 active torsions:
REMARK  status: ('A' for Active; 'I' for Inactive)
REMARK    1  A    between atoms: C10_10  and  C31_31 
REMARK    2  A    between atoms: C11_11  and  O10_68 
REMARK    3  A    between atoms: C13_13  and  O9_67 
REMARK    4  A    between atoms: C14_14  and  O8_66 
REMARK    5  A    between atoms: C21_21  and  O3_61 
REMARK    6  A    between atoms: C22_22  and  O3_61 
REMARK    7  A    between atoms: C23_23  and  O7_65 
REMARK    8  A    between atoms: C24_24  and  O6_64 
REMARK    9  A    between atoms: C25_25  and  O5_63 
REMARK   10  A    between atoms: C31_31  and  O21_79 
REMARK   11  A    between atoms: C33_33  and  O20_78 
REMARK   12  A    between atoms: C35_35  and  C36_36 
REMARK   13  A    between atoms: C36_36  and  C37_37 
REMARK   14  A    between atoms: C37_37  and  C38_38 
REMARK   15  A    between atoms: C37_37  and  O13_71 
REMARK   16  A    between atoms: C38_38  and  O12_70 
REMARK   17  A    between atoms: C40_40  and  O13_71 
REMARK   18  A    between atoms: C42_42  and  O19_77 
REMARK   19  A    between atoms: C43_43  and  O15_73 
REMARK   20  A    between atoms: C46_46  and  O15_73 
REMARK   21  A    between atoms: C48_48  and  O18_76 
REMARK   22  A    between atoms: C49_49  and  O17_75 
ROOT
HETATM    1  C1  UNL     1      -5.436  -1.331   0.954  1.00  0.00     0.017 C 
HETATM    2  C2  UNL     1      -6.243  -1.590  -0.325  1.00  0.00     0.037 C 
HETATM    3  C3  UNL     1      -5.506  -1.918  -1.617  1.00  0.00    -0.013 C 
HETATM    4  C4  UNL     1      -4.206  -1.928  -1.970  1.00  0.00    -0.065 C 
HETATM    5  C5  UNL     1      -3.115  -1.557  -1.087  1.00  0.00     0.013 C 
HETATM    6  C6  UNL     1      -2.219  -0.553  -1.234  1.00  0.00    -0.061 C 
HETATM    7  C7  UNL     1      -2.291   0.388  -2.349  1.00  0.00     0.019 C 
HETATM    8  C8  UNL     1      -1.460   1.252  -2.974  1.00  0.00     0.014 C 
HETATM    9  C9  UNL     1      -0.032   1.657  -2.751  1.00  0.00     0.289 C 
HETATM   10  C10 UNL     1       1.639   2.161  -1.102  1.00  0.00     0.223 C 
HETATM   11  C11 UNL     1       1.399   3.108   0.128  1.00  0.00     0.155 C 
HETATM   12  C12 UNL     1       1.104   4.589  -0.142  1.00  0.00     0.069 C 
HETATM   13  C13 UNL     1      -0.194   5.078  -0.797  1.00  0.00     0.152 C 
HETATM   14  C14 UNL     1      -1.506   4.779  -0.016  1.00  0.00     0.147 C 
HETATM   15  C15 UNL     1      -2.235   3.506  -0.457  1.00  0.00     0.038 C 
HETATM   16  C16 UNL     1      -3.517   3.201   0.330  1.00  0.00     0.030 C 
HETATM   17  C17 UNL     1      -4.751   3.707  -0.371  1.00  0.00    -0.020 C 
HETATM   18  C18 UNL     1      -5.828   3.024  -0.812  1.00  0.00    -0.066 C 
HETATM   19  C19 UNL     1      -5.958   1.572  -0.709  1.00  0.00     0.005 C 
HETATM   20  C20 UNL     1      -7.125   0.906  -0.705  1.00  0.00     0.006 C 
HETATM   21  C21 UNL     1      -7.409  -0.572  -0.549  1.00  0.00     0.154 C 
HETATM   22  C29 UNL     1      -6.957   3.790  -1.463  1.00  0.00     0.048 C 
HETATM   23  C56 UNL     1      -2.010   1.974  -4.193  1.00  0.00     0.054 C 
HETATM   24  C57 UNL     1      -1.188  -0.394  -0.161  1.00  0.00     0.048 C 
HETATM   25  C58 UNL     1      -3.789  -2.436  -3.333  1.00  0.00     0.048 C 
HETATM   26  O1  UNL     1       0.649   2.113  -3.663  1.00  0.00    -0.260 OA
HETATM   27  O2  UNL     1       0.355   1.586  -1.462  1.00  0.00    -0.304 OA
ENDROOT
BRANCH  10  28
HETATM   28  C31 UNL     1       2.688   1.033  -0.719  1.00  0.00     0.197 C 
HETATM   29  C32 UNL     1       3.282   0.149  -1.848  1.00  0.00     0.076 C 
HETATM   30  C33 UNL     1       2.535  -1.171  -2.039  1.00  0.00     0.133 C 
HETATM   31  C55 UNL     1       3.583   0.871  -3.159  1.00  0.00     0.018 C 
HETATM   32  C34 UNL     1       2.335  -1.924  -0.702  1.00  0.00     0.040 C 
HETATM   33  C35 UNL     1       2.738  -1.044   0.512  1.00  0.00     0.134 C 
HETATM   34  C54 UNL     1       3.098  -3.252  -0.752  1.00  0.00     0.015 C 
HETATM   35  O11 UNL     1       2.123   0.242   0.341  1.00  0.00    -0.346 OA
BRANCH  30  36
HETATM   36  O20 UNL     1       1.280  -0.954  -2.671  1.00  0.00    -0.395 OA
HETATM   37  H95 UNL     1       0.865  -1.819  -2.828  1.00  0.00     0.210 HD
ENDBRANCH  30  36
BRANCH  33  38
HETATM   38  C36 UNL     1       2.215  -1.616   1.839  1.00  0.00     0.067 C 
BRANCH  38  39
HETATM   39  C37 UNL     1       2.855  -1.060   3.128  1.00  0.00     0.150 C 
BRANCH  39  40
HETATM   40  C38 UNL     1       2.580   0.431   3.409  1.00  0.00     0.199 C 
BRANCH  40  41
HETATM   41  O12 UNL     1       3.410   1.297   2.622  1.00  0.00    -0.393 OA
HETATM   42  C39 UNL     1       3.448   2.608   3.183  1.00  0.00     0.201 C 
ENDBRANCH  40  41
ENDBRANCH  39  40
BRANCH  39  43
HETATM   43  O13 UNL     1       4.272  -1.252   3.215  1.00  0.00    -0.354 OA
BRANCH  43  44
HETATM   44  C40 UNL     1       4.712  -2.600   3.303  1.00  0.00     0.263 C 
HETATM   45  C41 UNL     1       5.961  -2.649   4.178  1.00  0.00     0.101 C 
HETATM   46  C42 UNL     1       7.140  -1.871   3.565  1.00  0.00     0.087 C 
HETATM   47  C43 UNL     1       6.921  -1.610   2.048  1.00  0.00     0.187 C 
HETATM   48  C53 UNL     1       7.375  -0.535   4.286  1.00  0.00     0.049 C 
HETATM   49  C44 UNL     1       6.195  -2.800   1.391  1.00  0.00     0.152 C 
HETATM   50  C45 UNL     1       7.040  -4.067   1.269  1.00  0.00     0.042 C 
HETATM   51  O14 UNL     1       4.946  -3.152   2.013  1.00  0.00    -0.354 OA
BRANCH  46  52
HETATM   52  O19 UNL     1       8.322  -2.668   3.777  1.00  0.00    -0.387 OA
HETATM   53  H94 UNL     1       8.546  -2.643   4.722  1.00  0.00     0.210 HD
ENDBRANCH  46  52
BRANCH  47  54
HETATM   54  O15 UNL     1       8.173  -1.325   1.409  1.00  0.00    -0.350 OA
BRANCH  54  55
HETATM   55  C46 UNL     1       8.107  -0.280   0.436  1.00  0.00     0.263 C 
HETATM   56  C47 UNL     1       9.537  -0.040  -0.045  1.00  0.00     0.095 C 
HETATM   57  C48 UNL     1       9.823  -0.837  -1.309  1.00  0.00     0.156 C 
HETATM   58  C49 UNL     1       8.838  -0.444  -2.430  1.00  0.00     0.175 C 
HETATM   59  C50 UNL     1       7.453  -0.043  -1.878  1.00  0.00     0.151 C 
HETATM   60  C51 UNL     1       7.233   1.468  -1.838  1.00  0.00     0.042 C 
HETATM   61  O16 UNL     1       7.207  -0.643  -0.606  1.00  0.00    -0.354 OA
BRANCH  57  62
HETATM   62  O18 UNL     1      11.183  -0.545  -1.685  1.00  0.00    -0.388 OA
HETATM   63  C52 UNL     1      11.705  -1.458  -2.643  1.00  0.00     0.202 C 
ENDBRANCH  57  62
BRANCH  58  64
HETATM   64  O17 UNL     1       8.694  -1.583  -3.304  1.00  0.00    -0.390 OA
HETATM   65  H93 UNL     1       8.109  -1.321  -4.035  1.00  0.00     0.210 HD
ENDBRANCH  58  64
ENDBRANCH  54  55
ENDBRANCH  47  54
ENDBRANCH  43  44
ENDBRANCH  39  43
ENDBRANCH  38  39
ENDBRANCH  33  38
BRANCH  28  66
HETATM   66  O21 UNL     1       3.838   1.684  -0.148  1.00  0.00    -0.363 OA
HETATM   67  H96 UNL     1       3.776   1.450   0.805  1.00  0.00     0.213 HD
ENDBRANCH  28  66
ENDBRANCH  10  28
BRANCH  11  68
HETATM   68  O10 UNL     1       0.468   2.579   1.076  1.00  0.00    -0.393 OA
HETATM   69  H92 UNL     1       0.632   1.614   1.073  1.00  0.00     0.210 HD
ENDBRANCH  11  68
BRANCH  13  70
HETATM   70  O9  UNL     1      -0.204   4.644  -2.157  1.00  0.00    -0.388 OA
HETATM   71  C30 UNL     1      -0.911   5.523  -3.024  1.00  0.00     0.202 C 
ENDBRANCH  13  70
BRANCH  14  72
HETATM   72  O8  UNL     1      -2.411   5.886  -0.202  1.00  0.00    -0.393 OA
HETATM   73  H91 UNL     1      -2.024   6.652   0.253  1.00  0.00     0.210 HD
ENDBRANCH  14  72
BRANCH  21  74
HETATM   74  O3  UNL     1      -8.301  -0.689   0.584  1.00  0.00    -0.349 OA
BRANCH  74  75
HETATM   75  C22 UNL     1      -9.684  -0.635   0.220  1.00  0.00     0.292 C 
HETATM   76  C23 UNL     1     -10.483   0.008   1.370  1.00  0.00     0.204 C 
HETATM   77  C24 UNL     1     -10.539  -0.942   2.576  1.00  0.00     0.183 C 
HETATM   78  C25 UNL     1     -11.099  -2.311   2.151  1.00  0.00     0.180 C 
HETATM   79  C26 UNL     1     -10.361  -2.875   0.916  1.00  0.00     0.152 C 
HETATM   80  C27 UNL     1      -9.058  -3.592   1.257  1.00  0.00     0.042 C 
HETATM   81  O4  UNL     1     -10.181  -1.924  -0.142  1.00  0.00    -0.351 OA
BRANCH  76  82
HETATM   82  O7  UNL     1     -11.804   0.356   0.933  1.00  0.00    -0.388 OA
HETATM   83  H90 UNL     1     -12.283  -0.488   0.785  1.00  0.00     0.210 HD
ENDBRANCH  76  82
BRANCH  77  84
HETATM   84  O6  UNL     1      -9.269  -1.086   3.220  1.00  0.00    -0.390 OA
HETATM   85  H89 UNL     1      -8.569  -0.902   2.560  1.00  0.00     0.210 HD
ENDBRANCH  77  84
BRANCH  78  86
HETATM   86  O5  UNL     1     -12.486  -2.165   1.764  1.00  0.00    -0.385 OA
HETATM   87  C28 UNL     1     -13.381  -2.278   2.866  1.00  0.00     0.202 C 
ENDBRANCH  78  86
ENDBRANCH  74  75
ENDBRANCH  21  74
TORSDOF 22
