REMARK  28 active torsions:
REMARK  status: ('A' for Active; 'I' for Inactive)
REMARK    1  A    between atoms: C4_4  and  C5_5 
REMARK       I    between atoms: C5_5  and  N3_60 
REMARK    2  A    between atoms: C6_6  and  N3_60 
REMARK    3  A    between atoms: C8_8  and  C9_9 
REMARK       I    between atoms: C9_9  and  N6_64 
REMARK    4  A    between atoms: C10_10  and  N6_64 
REMARK    5  A    between atoms: C12_12  and  C14_14 
REMARK       I    between atoms: C14_14  and  N8_66 
REMARK    6  A    between atoms: C15_15  and  N8_66 
REMARK    7  A    between atoms: C17_17  and  C19_19 
REMARK       I    between atoms: C19_19  and  N10_68 
REMARK    8  A    between atoms: C20_20  and  C21_21 
REMARK    9  A    between atoms: C20_20  and  N10_68 
REMARK   10  A    between atoms: C21_21  and  C22_22 
REMARK   11  A    between atoms: C22_22  and  C23_23 
REMARK   12  A    between atoms: C22_22  and  N22_81 
REMARK       I    between atoms: C23_23  and  N11_69 
REMARK   13  A    between atoms: C24_24  and  N11_69 
REMARK   14  A    between atoms: C26_26  and  C27_27 
REMARK       I    between atoms: C27_27  and  N14_73 
REMARK   15  A    between atoms: C28_28  and  N14_73 
REMARK   16  A    between atoms: C30_30  and  C32_32 
REMARK       I    between atoms: C32_32  and  N16_75 
REMARK   17  A    between atoms: C33_33  and  N16_75 
REMARK   18  A    between atoms: C35_35  and  C37_37 
REMARK       I    between atoms: C37_37  and  N18_77 
REMARK   19  A    between atoms: C38_38  and  N18_77 
REMARK   20  A    between atoms: C40_40  and  C42_42 
REMARK       I    between atoms: C42_42  and  N20_79 
REMARK   21  A    between atoms: C43_43  and  C44_44 
REMARK   22  A    between atoms: C43_43  and  N20_79 
REMARK   23  A    between atoms: C44_44  and  C45_45 
REMARK   24  A    between atoms: C45_45  and  C46_46 
REMARK   25  A    between atoms: C46_46  and  C47_47 
REMARK   26  A    between atoms: C47_47  and  C48_48 
REMARK   27  A    between atoms: C48_48  and  C49_49 
REMARK   28  A    between atoms: C49_49  and  N21_80 
ROOT
HETATM    1  C23 UNL     1       2.845   2.727  -6.145  1.00  0.00     0.256 C 
HETATM    2  N11 UNL     1       1.806   2.682  -5.241  1.00  0.00    -0.310 N 
HETATM    3  O5  UNL     1       2.930   2.078  -7.188  1.00  0.00    -0.271 OA
HETATM    4  H62 UNL     1       1.834   3.237  -4.398  1.00  0.00     0.170 HD
ENDROOT
BRANCH   2   5
HETATM    5  C24 UNL     1       0.681   1.914  -5.364  1.00  0.00     0.125 A 
HETATM    6  C25 UNL     1       0.308   1.042  -6.354  1.00  0.00     0.140 A 
HETATM    7  N12 UNL     1      -0.903   0.550  -5.957  1.00  0.00    -0.339 N 
HETATM    8  C26 UNL     1      -1.224   1.132  -4.753  1.00  0.00     0.178 A 
HETATM    9  C53 UNL     1      -1.695  -0.414  -6.683  1.00  0.00     0.157 C 
HETATM   10  N13 UNL     1      -0.265   1.973  -4.379  1.00  0.00    -0.323 N 
ATOM     11  H13 UNL     1      -0.240   2.543  -3.534  1.00  0.00     0.169 HD
BRANCH   8  12
HETATM   12  C27 UNL     1      -2.425   0.897  -3.960  1.00  0.00     0.290 C 
HETATM   13  N14 UNL     1      -2.420   1.646  -2.798  1.00  0.00    -0.319 N 
HETATM   14  H63 UNL     1      -1.603   2.234  -2.660  1.00  0.00     0.169 HD
HETATM   15  O6  UNL     1      -3.316   0.124  -4.302  1.00  0.00    -0.264 OA
BRANCH  13  16
HETATM   16  C28 UNL     1      -3.403   1.656  -1.835  1.00  0.00     0.053 A 
HETATM   17  C29 UNL     1      -3.328   2.422  -0.699  1.00  0.00     0.120 A 
HETATM   18  N15 UNL     1      -4.462   2.204   0.043  1.00  0.00    -0.354 N 
HETATM   19  C30 UNL     1      -5.287   1.289  -0.593  1.00  0.00     0.105 A 
HETATM   20  C52 UNL     1      -4.726   2.846   1.316  1.00  0.00     0.156 C 
HETATM   21  C31 UNL     1      -4.628   0.952  -1.773  1.00  0.00     0.066 A 
BRANCH  19  22
HETATM   22  C32 UNL     1      -6.575   0.834  -0.071  1.00  0.00     0.273 C 
HETATM   23  N16 UNL     1      -7.140  -0.210  -0.782  1.00  0.00    -0.320 N 
HETATM   24  H64 UNL     1      -6.635  -0.589  -1.569  1.00  0.00     0.169 HD
HETATM   25  O7  UNL     1      -7.090   1.343   0.922  1.00  0.00    -0.266 OA
BRANCH  23  26
HETATM   26  C33 UNL     1      -8.348  -0.814  -0.496  1.00  0.00     0.053 A 
HETATM   27  C34 UNL     1      -8.852  -1.856  -1.236  1.00  0.00     0.120 A 
HETATM   28  N17 UNL     1     -10.057  -2.227  -0.694  1.00  0.00    -0.354 N 
HETATM   29  C35 UNL     1     -10.360  -1.431   0.400  1.00  0.00     0.105 A 
HETATM   30  C51 UNL     1     -10.879  -3.300  -1.219  1.00  0.00     0.156 C 
HETATM   31  C36 UNL     1      -9.289  -0.551   0.527  1.00  0.00     0.066 A 
BRANCH  29  32
HETATM   32  C37 UNL     1     -11.576  -1.562   1.206  1.00  0.00     0.273 C 
HETATM   33  N18 UNL     1     -11.719  -0.591   2.180  1.00  0.00    -0.320 N 
HETATM   34  H65 UNL     1     -11.016   0.128   2.253  1.00  0.00     0.169 HD
HETATM   35  O8  UNL     1     -12.388  -2.461   1.008  1.00  0.00    -0.266 OA
BRANCH  33  36
HETATM   36  C38 UNL     1     -12.770  -0.499   3.072  1.00  0.00     0.053 A 
HETATM   37  C39 UNL     1     -12.859   0.506   4.008  1.00  0.00     0.120 A 
HETATM   38  N19 UNL     1     -13.998   0.305   4.748  1.00  0.00    -0.354 N 
HETATM   39  C40 UNL     1     -14.686  -0.790   4.266  1.00  0.00     0.104 A 
HETATM   40  C50 UNL     1     -14.349   1.089   5.914  1.00  0.00     0.156 C 
HETATM   41  C41 UNL     1     -13.902  -1.324   3.252  1.00  0.00     0.066 A 
BRANCH  39  42
HETATM   42  C42 UNL     1     -15.944  -1.315   4.753  1.00  0.00     0.268 C 
HETATM   43  N20 UNL     1     -16.913  -0.352   4.947  1.00  0.00    -0.356 N 
HETATM   44  H66 UNL     1     -16.757   0.546   4.509  1.00  0.00     0.162 HD
HETATM   45  O9  UNL     1     -16.151  -2.508   4.940  1.00  0.00    -0.266 OA
BRANCH  43  46
HETATM   46  C43 UNL     1     -18.272  -0.710   5.292  1.00  0.00     0.123 C 
BRANCH  46  47
HETATM   47  C44 UNL     1     -19.103  -1.125   4.076  1.00  0.00     0.020 C 
BRANCH  47  48
HETATM   48  C45 UNL     1     -19.341   0.039   3.108  1.00  0.00     0.002 C 
BRANCH  48  49
HETATM   49  C46 UNL     1     -20.315  -0.304   1.977  1.00  0.00     0.000 C 
BRANCH  49  50
HETATM   50  C47 UNL     1     -19.758  -1.332   0.988  1.00  0.00     0.002 C 
BRANCH  50  51
HETATM   51  C48 UNL     1     -20.746  -1.584  -0.157  1.00  0.00     0.030 C 
BRANCH  51  52
HETATM   52  C49 UNL     1     -20.249  -2.630  -1.156  1.00  0.00     0.267 C 
BRANCH  52  53
HETATM   53  N21 UNL     1     -19.063  -2.176  -1.870  1.00  0.00     0.078 N 
HETATM   54  H67 UNL     1     -19.280  -1.335  -2.401  1.00  0.00     0.312 HD
HETATM   55  H68 UNL     1     -18.783  -2.883  -2.548  1.00  0.00     0.312 HD
ENDBRANCH  52  53
ENDBRANCH  51  52
ENDBRANCH  50  51
ENDBRANCH  49  50
ENDBRANCH  48  49
ENDBRANCH  47  48
ENDBRANCH  46  47
ENDBRANCH  43  46
ENDBRANCH  39  42
ENDBRANCH  33  36
ENDBRANCH  29  32
ENDBRANCH  23  26
ENDBRANCH  19  22
ENDBRANCH  13  16
ENDBRANCH   8  12
ENDBRANCH   2   5
BRANCH   1  56
HETATM   56  C22 UNL     1       3.989   3.670  -5.701  1.00  0.00     0.310 C 
BRANCH  56  57
HETATM   57  C21 UNL     1       4.861   3.009  -4.627  1.00  0.00     0.065 C 
BRANCH  57  58
HETATM   58  C20 UNL     1       5.489   1.682  -5.060  1.00  0.00     0.125 C 
BRANCH  58  59
HETATM   59  N10 UNL     1       6.353   1.143  -4.029  1.00  0.00    -0.356 N 
HETATM   60  C19 UNL     1       5.856   0.501  -2.915  1.00  0.00     0.268 C 
HETATM   61  O4  UNL     1       4.646   0.374  -2.740  1.00  0.00    -0.266 OA
HETATM   62  H61 UNL     1       7.351   1.256  -4.130  1.00  0.00     0.162 HD
BRANCH  60  63
HETATM   63  C17 UNL     1       6.857   0.010  -1.979  1.00  0.00     0.104 A 
HETATM   64  C18 UNL     1       8.245   0.086  -2.033  1.00  0.00     0.066 A 
HETATM   65  C15 UNL     1       8.787  -0.532  -0.883  1.00  0.00     0.053 A 
HETATM   66  C16 UNL     1       7.726  -0.987  -0.140  1.00  0.00     0.120 A 
HETATM   67  N9  UNL     1       6.567  -0.659  -0.801  1.00  0.00    -0.354 N 
HETATM   68  C54 UNL     1       5.241  -0.980  -0.312  1.00  0.00     0.156 C 
BRANCH  65  69
HETATM   69  N8  UNL     1      10.101  -0.702  -0.498  1.00  0.00    -0.320 N 
HETATM   70  C14 UNL     1      11.201  -0.211  -1.176  1.00  0.00     0.273 C 
HETATM   71  O3  UNL     1      11.158   0.499  -2.175  1.00  0.00    -0.266 OA
HETATM   72  H60 UNL     1      10.257  -1.151   0.393  1.00  0.00     0.169 HD
BRANCH  70  73
HETATM   73  C12 UNL     1      12.454  -0.597  -0.557  1.00  0.00     0.105 A 
HETATM   74  C13 UNL     1      13.504   0.240  -0.206  1.00  0.00     0.066 A 
HETATM   75  C10 UNL     1      14.521  -0.541   0.387  1.00  0.00     0.053 A 
HETATM   76  C11 UNL     1      14.094  -1.849   0.351  1.00  0.00     0.120 A 
HETATM   77  N7  UNL     1      12.861  -1.881  -0.253  1.00  0.00    -0.354 N 
HETATM   78  C55 UNL     1      12.155  -3.100  -0.584  1.00  0.00     0.156 C 
BRANCH  75  79
HETATM   79  N6  UNL     1      15.737  -0.170   0.915  1.00  0.00    -0.319 N 
HETATM   80  C9  UNL     1      16.232   1.117   0.994  1.00  0.00     0.290 C 
HETATM   81  O2  UNL     1      15.652   2.129   0.614  1.00  0.00    -0.264 OA
HETATM   82  H59 UNL     1      16.345  -0.895   1.285  1.00  0.00     0.169 HD
BRANCH  80  83
HETATM   83  C8  UNL     1      17.557   1.142   1.603  1.00  0.00     0.178 A 
HETATM   84  N4  UNL     1      18.344   2.248   1.823  1.00  0.00    -0.339 N 
HETATM   85  C7  UNL     1      19.503   1.830   2.414  1.00  0.00     0.140 A 
HETATM   86  C56 UNL     1      18.015   3.614   1.491  1.00  0.00     0.157 C 
HETATM   87  C6  UNL     1      19.375   0.470   2.531  1.00  0.00     0.125 A 
HETATM   88  N5  UNL     1      18.175   0.047   2.031  1.00  0.00    -0.323 N 
ATOM     89  H5  UNL     1      17.827  -0.911   1.994  1.00  0.00     0.169 HD
BRANCH  87  90
HETATM   90  N3  UNL     1      20.239  -0.451   3.049  1.00  0.00    -0.305 N 
HETATM   91  C5  UNL     1      21.479  -0.199   3.590  1.00  0.00     0.291 C 
HETATM   92  O1  UNL     1      22.001   0.908   3.688  1.00  0.00    -0.264 OA
HETATM   93  H58 UNL     1      19.934  -1.418   3.032  1.00  0.00     0.170 HD
BRANCH  91  94
HETATM   94  C4  UNL     1      22.124  -1.426   4.045  1.00  0.00     0.176 A 
HETATM   95  N1  UNL     1      23.364  -1.540   4.629  1.00  0.00    -0.342 N 
HETATM   96  C1  UNL     1      24.280  -0.461   4.908  1.00  0.00     0.157 C 
HETATM   97  C2  UNL     1      23.584  -2.862   4.902  1.00  0.00     0.109 A 
HETATM   98  C3  UNL     1      22.454  -3.511   4.467  1.00  0.00     0.107 A 
HETATM   99  N2  UNL     1      21.555  -2.621   3.940  1.00  0.00    -0.346 N 
ATOM    100  H2  UNL     1      20.638  -2.833   3.548  1.00  0.00     0.167 HD
ENDBRANCH  91  94
ENDBRANCH  87  90
ENDBRANCH  80  83
ENDBRANCH  75  79
ENDBRANCH  70  73
ENDBRANCH  65  69
ENDBRANCH  60  63
ENDBRANCH  58  59
ENDBRANCH  57  58
ENDBRANCH  56  57
BRANCH  56 101
HETATM  101  N22 UNL     1       4.758   4.113  -6.879  1.00  0.00     0.092 N 
HETATM  102  H69 UNL     1       5.731   4.282  -6.639  1.00  0.00     0.313 HD
HETATM  103  H70 UNL     1       4.745   3.359  -7.574  1.00  0.00     0.313 HD
ENDBRANCH  56 101
ENDBRANCH   1  56
TORSDOF 28
