REMARK  18 active torsions:
REMARK  status: ('A' for Active; 'I' for Inactive)
REMARK    1  A    between atoms: C5_5  and  S1_47 
REMARK    2  A    between atoms: C7_7  and  C8_8 
REMARK    3  A    between atoms: C7_7  and  S1_47 
REMARK    4  A    between atoms: C8_8  and  C30_30 
REMARK    5  A    between atoms: C11_11  and  N6_39 
REMARK    6  A    between atoms: C13_13  and  C14_14 
REMARK       I    between atoms: C13_13  and  N6_39 
REMARK    7  A    between atoms: C14_14  and  C26_26 
REMARK    8  A    between atoms: C15_15  and  C18_18 
REMARK    9  A    between atoms: C15_15  and  O3_52 
REMARK       I    between atoms: C18_18  and  N8_42 
REMARK   10  A    between atoms: C19_19  and  C20_20 
REMARK       I    between atoms: C19_19  and  N9_43 
REMARK   11  A    between atoms: C22_22  and  O7_56 
REMARK   12  A    between atoms: C23_23  and  O6_55 
REMARK   13  A    between atoms: C28_28  and  N11_46 
REMARK   14  A    between atoms: C30_30  and  O9_58 
REMARK   15  A    between atoms: C31_31  and  N2_35 
REMARK   16  A    between atoms: C31_31  and  O10_59 
REMARK   17  A    between atoms: N7_40  and  O3_52 
REMARK   18  A    between atoms: N8_42  and  N9_43 
ROOT
HETATM    1  C13 UNL     1       1.022  -3.763  -2.219  1.00  0.00     0.273 C 
HETATM    2  N6  UNL     1       1.041  -2.393  -2.376  1.00  0.00    -0.340 N 
HETATM    3  O2  UNL     1       0.407  -4.555  -2.914  1.00  0.00    -0.266 OA
HETATM    4  H29 UNL     1       1.557  -1.875  -1.657  1.00  0.00     0.163 HD
ENDROOT
BRANCH   1   5
HETATM    5  C14 UNL     1       1.862  -4.250  -1.046  1.00  0.00     0.149 C 
HETATM    6  N7  UNL     1       3.078  -4.701  -1.180  1.00  0.00    -0.258 N 
ATOM      7  H7  UNL     1       3.644  -5.050  -0.406  1.00  0.00     0.194 HD
BRANCH   5   8
HETATM    8  C26 UNL     1       1.347  -4.102   0.311  1.00  0.00     0.074 A 
HETATM    9  C27 UNL     1       1.878  -4.713   1.433  1.00  0.00     0.084 A 
HETATM   10  S2  UNL     1       1.067  -4.170   2.840  1.00  0.00    -0.070 SA
HETATM   11  C28 UNL     1       0.072  -3.163   1.870  1.00  0.00     0.121 A 
HETATM   12  N10 UNL     1       0.305  -3.219   0.583  1.00  0.00    -0.339 N 
ATOM     13  H10 UNL     1      -0.206  -2.689  -0.123  1.00  0.00     0.167 HD
BRANCH  11  14
HETATM   14  N11 UNL     1      -0.835  -2.335   2.417  1.00  0.00    -0.283 NA
HETATM   15  H32 UNL     1      -0.594  -1.968   3.332  1.00  0.00     0.126 HD
HETATM   16  H33 UNL     1      -1.150  -1.593   1.798  1.00  0.00     0.126 HD
ENDBRANCH  11  14
ENDBRANCH   5   8
BRANCH   6  17
HETATM   17  O3  UNL     1       3.520  -4.651  -2.514  1.00  0.00    -0.259 OA
BRANCH  17  18
HETATM   18  C15 UNL     1       4.960  -4.693  -2.556  1.00  0.00     0.163 C 
HETATM   19  C16 UNL     1       5.361  -4.398  -4.005  1.00  0.00     0.059 C 
HETATM   20  C17 UNL     1       5.453  -6.087  -2.161  1.00  0.00     0.059 C 
BRANCH  18  21
HETATM   21  C18 UNL     1       5.557  -3.601  -1.635  1.00  0.00     0.272 C 
HETATM   22  N8  UNL     1       4.986  -2.342  -1.810  1.00  0.00    -0.265 N 
HETATM   23  H30 UNL     1       4.076  -2.324  -2.276  1.00  0.00     0.190 HD
HETATM   24  O4  UNL     1       6.449  -3.792  -0.807  1.00  0.00    -0.268 OA
BRANCH  22  25
HETATM   25  N9  UNL     1       5.066  -1.480  -0.683  1.00  0.00    -0.263 N 
HETATM   26  C19 UNL     1       3.854  -1.008  -0.203  1.00  0.00     0.270 C 
HETATM   27  O5  UNL     1       2.819  -1.068  -0.868  1.00  0.00    -0.266 OA
HETATM   28  H31 UNL     1       5.807  -1.740  -0.031  1.00  0.00     0.190 HD
BRANCH  26  29
HETATM   29  C20 UNL     1       3.828  -0.475   1.186  1.00  0.00     0.036 A 
HETATM   30  C21 UNL     1       2.588  -0.408   1.836  1.00  0.00     0.056 A 
HETATM   31  C22 UNL     1       2.527   0.049   3.144  1.00  0.00     0.099 A 
HETATM   32  C23 UNL     1       3.678   0.462   3.810  1.00  0.00     0.098 A 
HETATM   33  C24 UNL     1       4.912   0.424   3.171  1.00  0.00     0.040 A 
HETATM   34  C25 UNL     1       4.988  -0.045   1.854  1.00  0.00     0.020 A 
BRANCH  31  35
HETATM   35  O7  UNL     1       1.319   0.084   3.782  1.00  0.00    -0.358 OA
HETATM   36  H35 UNL     1       1.522   0.443   4.670  1.00  0.00     0.217 HD
ENDBRANCH  31  35
BRANCH  32  37
HETATM   37  O6  UNL     1       3.541   0.902   5.096  1.00  0.00    -0.358 OA
HETATM   38  H34 UNL     1       4.422   1.133   5.440  1.00  0.00     0.217 HD
ENDBRANCH  32  37
ENDBRANCH  26  29
ENDBRANCH  22  25
ENDBRANCH  18  21
ENDBRANCH  17  18
ENDBRANCH   6  17
ENDBRANCH   1   5
BRANCH   2  39
HETATM   39  C11 UNL     1      -0.042  -1.684  -3.117  1.00  0.00     0.199 C 
HETATM   40  C10 UNL     1      -0.253  -0.217  -2.639  1.00  0.00     0.159 C 
HETATM   41  N5  UNL     1      -1.472  -0.660  -1.959  1.00  0.00    -0.234 NA
HETATM   42  S3  UNL     1      -0.688   0.984  -3.930  1.00  0.00    -0.145 SA
HETATM   43  C9  UNL     1      -2.672   0.131  -1.825  1.00  0.00     0.121 C 
HETATM   44  C12 UNL     1      -1.493  -1.888  -2.563  1.00  0.00     0.226 C 
HETATM   45  C8  UNL     1      -2.346   1.615  -1.610  1.00  0.00     0.075 C 
HETATM   46  C29 UNL     1      -1.579   2.178  -2.845  1.00  0.00     0.098 C 
HETATM   47  O1  UNL     1      -2.386  -2.697  -2.642  1.00  0.00    -0.277 OA
BRANCH  45  48
HETATM   48  C7  UNL     1      -1.520   1.884  -0.320  1.00  0.00     0.103 C 
BRANCH  48  49
HETATM   49  S1  UNL     1      -1.977   1.001   1.224  1.00  0.00    -0.109 SA
BRANCH  49  50
HETATM   50  C5  UNL     1      -3.496   1.781   1.623  1.00  0.00     0.093 A 
HETATM   51  C6  UNL     1      -4.600   1.004   1.607  1.00  0.00     0.063 A 
HETATM   52  C2  UNL     1      -5.924   1.686   1.854  1.00  0.00     0.009 A 
HETATM   53  C1  UNL     1      -7.152   0.808   1.824  1.00  0.00     0.068 C 
HETATM   54  N1  UNL     1      -6.100   2.961   2.068  1.00  0.00    -0.344 N 
HETATM   55  C3  UNL     1      -4.929   3.661   2.075  1.00  0.00     0.142 A 
ATOM     56  H1  UNL     1      -7.015   3.388   2.214  1.00  0.00     0.167 HD
HETATM   57  C4  UNL     1      -4.791   4.992   2.131  1.00  0.00     0.159 A 
HETATM   58  N4  UNL     1      -3.663   3.118   1.933  1.00  0.00    -0.235 N 
HETATM   59  N2  UNL     1      -3.449   5.364   2.062  1.00  0.00    -0.274 N 
HETATM   60  N3  UNL     1      -2.683   4.135   1.893  1.00  0.00    -0.136 NA
HETATM   61  H28 UNL     1      -2.081   4.018   2.716  1.00  0.00     0.173 HD
BRANCH  59  62
HETATM   62  C31 UNL     1      -2.954   6.566   1.395  1.00  0.00     0.233 C 
HETATM   63  C32 UNL     1      -3.704   7.826   1.792  1.00  0.00     0.064 C 
BRANCH  62  64
HETATM   64  O10 UNL     1      -3.053   6.367  -0.004  1.00  0.00    -0.376 OA
HETATM   65  H37 UNL     1      -2.944   5.399  -0.076  1.00  0.00     0.212 HD
ENDBRANCH  62  64
ENDBRANCH  59  62
ENDBRANCH  49  50
ENDBRANCH  48  49
ENDBRANCH  45  48
BRANCH  45  66
HETATM   66  C30 UNL     1      -3.660   2.371  -1.520  1.00  0.00     0.151 C 
HETATM   67  O8  UNL     1      -4.779   1.888  -1.559  1.00  0.00    -0.649 OA
BRANCH  66  68
HETATM   68  O9  UNL     1      -3.508   3.705  -1.385  1.00  0.00    -0.776 OA
HETATM   69  H36 UNL     1      -4.428   4.046  -1.294  1.00  0.00     0.167 HD
ENDBRANCH  66  68
ENDBRANCH  45  66
ENDBRANCH   2  39
TORSDOF 18
