REMARK  32 active torsions:
REMARK  status: ('A' for Active; 'I' for Inactive)
REMARK    1  A    between atoms: C3_3  and  N11_73 
REMARK    2  A    between atoms: C5_5  and  C6_6 
REMARK       I    between atoms: C6_6  and  N2_64 
REMARK    3  A    between atoms: C7_7  and  C8_8 
REMARK    4  A    between atoms: C7_7  and  N2_64 
REMARK    5  A    between atoms: C8_8  and  C9_9 
REMARK       I    between atoms: C9_9  and  N3_65 
REMARK    6  A    between atoms: C10_10  and  N3_65 
REMARK    7  A    between atoms: C12_12  and  C14_14 
REMARK       I    between atoms: C14_14  and  N5_67 
REMARK    8  A    between atoms: C15_15  and  N5_67 
REMARK    9  A    between atoms: C17_17  and  C19_19 
REMARK       I    between atoms: C19_19  and  N7_69 
REMARK   10  A    between atoms: C20_20  and  C21_21 
REMARK   11  A    between atoms: C20_20  and  N7_69 
REMARK   12  A    between atoms: C21_21  and  C22_22 
REMARK       I    between atoms: C22_22  and  N8_70 
REMARK   13  A    between atoms: C23_23  and  C24_24 
REMARK   14  A    between atoms: C23_23  and  N8_70 
REMARK   15  A    between atoms: C24_24  and  C25_25 
REMARK   16  A    between atoms: C25_25  and  N9_71 
REMARK   17  A    between atoms: C27_27  and  C28_28 
REMARK   18  A    between atoms: C27_27  and  N9_71 
REMARK   19  A    between atoms: C28_28  and  C29_29 
REMARK   20  A    between atoms: C29_29  and  N10_72 
REMARK   21  A    between atoms: C32_32  and  C33_33 
REMARK       I    between atoms: C32_32  and  N11_73 
REMARK   22  A    between atoms: C33_33  and  C34_34 
REMARK   23  A    between atoms: C34_34  and  C35_35 
REMARK   24  A    between atoms: C35_35  and  N12_74 
REMARK   25  A    between atoms: C36_36  and  C37_37 
REMARK       I    between atoms: C36_36  and  N12_74 
REMARK   26  A    between atoms: C38_38  and  N15_78 
REMARK   27  A    between atoms: C41_41  and  C42_42 
REMARK       I    between atoms: C41_41  and  N15_78 
REMARK   28  A    between atoms: C44_44  and  N17_80 
REMARK   29  A    between atoms: C47_47  and  C48_48 
REMARK       I    between atoms: C47_47  and  N17_80 
REMARK   30  A    between atoms: C49_49  and  N20_84 
REMARK   31  A    between atoms: C52_52  and  C53_53 
REMARK       I    between atoms: C52_52  and  N20_84 
REMARK   32  A    between atoms: C55_55  and  N22_86 
REMARK       I    between atoms: C58_58  and  N22_86 
REMARK       I    between atoms: C58_58  and  N23_88 
REMARK       I    between atoms: C58_58  and  N24_89 
ROOT
HETATM    1  C32 UNL     1      -0.682  -1.096   5.089  1.00  0.00     0.222 C 
HETATM    2  N11 UNL     1      -0.810   0.123   4.442  1.00  0.00    -0.326 N 
HETATM    3  O6  UNL     1       0.363  -1.618   5.463  1.00  0.00    -0.273 OA
HETATM    4  H82 UNL     1      -1.736   0.443   4.190  1.00  0.00     0.169 HD
ENDROOT
BRANCH   1   5
HETATM    5  C33 UNL     1      -2.035  -1.765   5.274  1.00  0.00     0.105 C 
BRANCH   5   6
HETATM    6  C34 UNL     1      -1.941  -3.048   6.101  1.00  0.00     0.029 C 
BRANCH   6   7
HETATM    7  C35 UNL     1      -3.272  -3.793   6.177  1.00  0.00     0.123 C 
BRANCH   7   8
HETATM    8  N12 UNL     1      -4.314  -3.016   6.805  1.00  0.00    -0.354 N 
HETATM    9  C36 UNL     1      -4.439  -2.877   8.170  1.00  0.00     0.285 C 
HETATM   10  O7  UNL     1      -3.701  -3.446   8.969  1.00  0.00    -0.264 OA
HETATM   11  H83 UNL     1      -4.974  -2.482   6.247  1.00  0.00     0.162 HD
BRANCH   9  12
HETATM   12  C37 UNL     1      -5.525  -1.985   8.546  1.00  0.00     0.178 A 
HETATM   13  N13 UNL     1      -6.298  -1.371   7.656  1.00  0.00    -0.323 N 
HETATM   14  C38 UNL     1      -7.186  -0.631   8.388  1.00  0.00     0.125 A 
ATOM     15  H13 UNL     1      -6.241  -1.438   6.640  1.00  0.00     0.169 HD
HETATM   16  C39 UNL     1      -6.963  -0.784   9.732  1.00  0.00     0.140 A 
HETATM   17  N14 UNL     1      -5.905  -1.645   9.822  1.00  0.00    -0.339 N 
HETATM   18  C40 UNL     1      -5.300  -2.108  11.048  1.00  0.00     0.157 C 
BRANCH  14  19
HETATM   19  N15 UNL     1      -8.122   0.114   7.723  1.00  0.00    -0.306 N 
HETATM   20  C41 UNL     1      -9.069   0.928   8.303  1.00  0.00     0.274 C 
HETATM   21  O8  UNL     1      -9.175   1.101   9.515  1.00  0.00    -0.266 OA
HETATM   22  H84 UNL     1      -8.055   0.046   6.721  1.00  0.00     0.170 HD
BRANCH  20  23
HETATM   23  C42 UNL     1      -9.949   1.596   7.346  1.00  0.00     0.105 A 
HETATM   24  C43 UNL     1     -10.107   1.391   5.977  1.00  0.00     0.066 A 
HETATM   25  C44 UNL     1     -11.086   2.288   5.485  1.00  0.00     0.053 A 
HETATM   26  C45 UNL     1     -11.520   3.025   6.556  1.00  0.00     0.120 A 
HETATM   27  N16 UNL     1     -10.843   2.604   7.673  1.00  0.00    -0.354 N 
HETATM   28  C46 UNL     1     -11.047   3.167   8.993  1.00  0.00     0.156 C 
BRANCH  25  29
HETATM   29  N17 UNL     1     -11.495   2.367   4.172  1.00  0.00    -0.319 N 
HETATM   30  C47 UNL     1     -12.444   3.224   3.648  1.00  0.00     0.290 C 
HETATM   31  O9  UNL     1     -13.085   4.065   4.273  1.00  0.00    -0.264 OA
HETATM   32  H85 UNL     1     -11.067   1.738   3.495  1.00  0.00     0.169 HD
BRANCH  30  33
HETATM   33  C48 UNL     1     -12.603   3.010   2.216  1.00  0.00     0.178 A 
HETATM   34  N18 UNL     1     -11.908   2.095   1.556  1.00  0.00    -0.323 N 
HETATM   35  C49 UNL     1     -12.308   2.178   0.258  1.00  0.00     0.125 A 
ATOM     36  H18 UNL     1     -11.213   1.457   1.943  1.00  0.00     0.169 HD
HETATM   37  C50 UNL     1     -13.268   3.150   0.105  1.00  0.00     0.140 A 
HETATM   38  N19 UNL     1     -13.446   3.674   1.358  1.00  0.00    -0.339 N 
HETATM   39  C51 UNL     1     -14.356   4.737   1.709  1.00  0.00     0.157 C 
BRANCH  35  40
HETATM   40  N20 UNL     1     -11.824   1.391  -0.754  1.00  0.00    -0.306 N 
HETATM   41  C52 UNL     1     -10.825   0.449  -0.609  1.00  0.00     0.274 C 
HETATM   42  O10 UNL     1     -10.210   0.223   0.428  1.00  0.00    -0.266 OA
HETATM   43  H86 UNL     1     -12.199   1.561  -1.673  1.00  0.00     0.170 HD
BRANCH  41  44
HETATM   44  C53 UNL     1     -10.530  -0.272  -1.846  1.00  0.00     0.105 A 
HETATM   45  C54 UNL     1     -11.309  -0.433  -2.989  1.00  0.00     0.066 A 
HETATM   46  C55 UNL     1     -10.591  -1.239  -3.889  1.00  0.00     0.067 A 
HETATM   47  C56 UNL     1      -9.368  -1.516  -3.345  1.00  0.00     0.121 A 
HETATM   48  N21 UNL     1      -9.350  -0.964  -2.089  1.00  0.00    -0.354 N 
HETATM   49  C57 UNL     1      -8.222  -1.058  -1.184  1.00  0.00     0.156 C 
BRANCH  46  50
HETATM   50  N22 UNL     1     -10.992  -1.573  -5.174  1.00  0.00    -0.191 N 
HETATM   51  C58 UNL     1     -11.850  -2.546  -5.320  1.00  0.00     0.677 C 
HETATM   52  N23 UNL     1     -12.327  -2.835  -6.602  1.00  0.00    -0.226 N 
HETATM   53  N24 UNL     1     -12.413  -3.384  -4.367  1.00  0.00    -0.226 N 
HETATM   54  C59 UNL     1     -11.810  -2.053  -7.725  1.00  0.00     0.168 C 
HETATM   55  C60 UNL     1     -12.733  -4.192  -6.958  1.00  0.00     0.168 C 
HETATM   56  C61 UNL     1     -11.571  -4.087  -3.408  1.00  0.00     0.168 C 
HETATM   57  C62 UNL     1     -13.736  -3.038  -3.860  1.00  0.00     0.168 C 
ATOM     58  H22 UNL     1     -10.626  -1.072  -5.983  1.00  0.00     0.184 HD
ENDBRANCH  46  50
ENDBRANCH  41  44
ENDBRANCH  35  40
ENDBRANCH  30  33
ENDBRANCH  25  29
ENDBRANCH  20  23
ENDBRANCH  14  19
ENDBRANCH   9  12
ENDBRANCH   7   8
ENDBRANCH   6   7
ENDBRANCH   5   6
ENDBRANCH   1   5
BRANCH   2  59
HETATM   59  C3  UNL     1       0.228   0.974   4.116  1.00  0.00     0.052 A 
HETATM   60  C2  UNL     1       1.570   0.811   4.353  1.00  0.00     0.120 A 
HETATM   61  N1  UNL     1       2.234   1.920   3.887  1.00  0.00    -0.354 N 
HETATM   62  C1  UNL     1       3.646   2.146   4.120  1.00  0.00     0.156 C 
HETATM   63  C5  UNL     1       1.342   2.779   3.276  1.00  0.00     0.104 A 
HETATM   64  C4  UNL     1       0.083   2.219   3.460  1.00  0.00     0.066 A 
BRANCH  63  65
HETATM   65  C6  UNL     1       1.617   4.045   2.624  1.00  0.00     0.268 C 
HETATM   66  N2  UNL     1       2.740   4.057   1.830  1.00  0.00    -0.355 N 
HETATM   67  H75 UNL     1       3.350   3.248   1.841  1.00  0.00     0.162 HD
HETATM   68  O1  UNL     1       0.882   5.022   2.729  1.00  0.00    -0.266 OA
BRANCH  66  69
HETATM   69  C7  UNL     1       3.309   5.288   1.322  1.00  0.00     0.132 C 
BRANCH  69  70
HETATM   70  C8  UNL     1       4.129   5.073   0.056  1.00  0.00     0.123 C 
BRANCH  70  71
HETATM   71  C9  UNL     1       5.346   4.194   0.292  1.00  0.00     0.223 C 
HETATM   72  N3  UNL     1       6.210   4.217  -0.790  1.00  0.00    -0.326 N 
HETATM   73  H76 UNL     1       5.971   4.789  -1.591  1.00  0.00     0.169 HD
HETATM   74  O2  UNL     1       5.480   3.532   1.319  1.00  0.00    -0.273 OA
BRANCH  72  75
HETATM   75  C10 UNL     1       7.390   3.505  -0.893  1.00  0.00     0.052 A 
HETATM   76  C11 UNL     1       7.947   2.641   0.017  1.00  0.00     0.120 A 
HETATM   77  N4  UNL     1       9.105   2.133  -0.517  1.00  0.00    -0.354 N 
HETATM   78  C12 UNL     1       9.352   2.720  -1.741  1.00  0.00     0.105 A 
HETATM   79  C31 UNL     1       9.871   1.070   0.101  1.00  0.00     0.156 C 
HETATM   80  C13 UNL     1       8.261   3.536  -2.008  1.00  0.00     0.066 A 
BRANCH  78  81
HETATM   81  C14 UNL     1      10.485   2.481  -2.617  1.00  0.00     0.273 C 
HETATM   82  N5  UNL     1      11.700   2.533  -1.962  1.00  0.00    -0.320 N 
HETATM   83  H77 UNL     1      11.714   2.860  -1.007  1.00  0.00     0.169 HD
HETATM   84  O3  UNL     1      10.338   2.294  -3.820  1.00  0.00    -0.266 OA
BRANCH  82  85
HETATM   85  C15 UNL     1      12.923   2.252  -2.536  1.00  0.00     0.053 A 
HETATM   86  C16 UNL     1      14.112   2.365  -1.858  1.00  0.00     0.120 A 
HETATM   87  N6  UNL     1      15.127   1.990  -2.704  1.00  0.00    -0.354 N 
HETATM   88  C17 UNL     1      14.613   1.618  -3.936  1.00  0.00     0.104 A 
HETATM   89  C30 UNL     1      16.529   1.993  -2.337  1.00  0.00     0.156 C 
HETATM   90  C18 UNL     1      13.237   1.796  -3.836  1.00  0.00     0.066 A 
BRANCH  88  91
HETATM   91  C19 UNL     1      15.411   1.125  -5.048  1.00  0.00     0.268 C 
HETATM   92  N7  UNL     1      14.721   0.942  -6.225  1.00  0.00    -0.355 N 
HETATM   93  H78 UNL     1      13.741   1.185  -6.271  1.00  0.00     0.162 HD
HETATM   94  O4  UNL     1      16.603   0.849  -4.955  1.00  0.00    -0.266 OA
BRANCH  92  95
HETATM   95  C20 UNL     1      15.320   0.329  -7.396  1.00  0.00     0.132 C 
BRANCH  95  96
HETATM   96  C21 UNL     1      15.439  -1.186  -7.285  1.00  0.00     0.122 C 
BRANCH  96  97
HETATM   97  C22 UNL     1      14.071  -1.828  -7.287  1.00  0.00     0.219 C 
HETATM   98  N8  UNL     1      13.491  -1.908  -6.042  1.00  0.00    -0.361 N 
HETATM   99  H79 UNL     1      13.959  -1.469  -5.258  1.00  0.00     0.162 HD
HETATM  100  O5  UNL     1      13.526  -2.201  -8.321  1.00  0.00    -0.274 OA
BRANCH  98 101
HETATM  101  C23 UNL     1      12.134  -2.380  -5.842  1.00  0.00     0.124 C 
BRANCH 101 102
HETATM  102  C24 UNL     1      11.112  -1.290  -6.159  1.00  0.00     0.050 C 
BRANCH 102 103
HETATM  103  C25 UNL     1       9.669  -1.751  -5.916  1.00  0.00     0.273 C 
BRANCH 103 104
HETATM  104  N9  UNL     1       9.397  -2.160  -4.524  1.00  0.00     0.084 N 
HETATM  105  C26 UNL     1       9.413  -0.997  -3.627  1.00  0.00     0.309 C 
BRANCH 104 106
HETATM  106  C27 UNL     1       8.092  -2.845  -4.408  1.00  0.00     0.273 C 
BRANCH 106 107
HETATM  107  C28 UNL     1       8.111  -4.297  -4.912  1.00  0.00     0.060 C 
BRANCH 107 108
HETATM  108  C29 UNL     1       9.027  -5.224  -4.110  1.00  0.00     0.268 C 
BRANCH 108 109
HETATM  109  N10 UNL     1       8.505  -5.483  -2.769  1.00  0.00     0.078 N 
HETATM  110  H80 UNL     1       9.140  -6.115  -2.283  1.00  0.00     0.312 HD
HETATM  111  H81 UNL     1       7.614  -5.972  -2.839  1.00  0.00     0.312 HD
ENDBRANCH 108 109
ENDBRANCH 107 108
ENDBRANCH 106 107
ENDBRANCH 104 106
ENDBRANCH 103 104
ENDBRANCH 102 103
ENDBRANCH 101 102
ENDBRANCH  98 101
ENDBRANCH  96  97
ENDBRANCH  95  96
ENDBRANCH  92  95
ENDBRANCH  88  91
ENDBRANCH  82  85
ENDBRANCH  78  81
ENDBRANCH  72  75
ENDBRANCH  70  71
ENDBRANCH  69  70
ENDBRANCH  66  69
ENDBRANCH  63  65
ENDBRANCH   2  59
TORSDOF 32
