REMARK  13 active torsions:
REMARK  status: ('A' for Active; 'I' for Inactive)
REMARK    1  A    between atoms: C6_6  and  C67_67 
REMARK    2  A    between atoms: C15_15  and  O15_91 
REMARK    3  A    between atoms: C21_21  and  N8_102 
REMARK    4  A    between atoms: C26_26  and  C27_27 
REMARK       I    between atoms: C26_26  and  N8_102 
REMARK    5  A    between atoms: C36_36  and  O14_90 
REMARK    6  A    between atoms: C42_42  and  N16_111 
REMARK    7  A    between atoms: C52_52  and  O13_89 
REMARK       I    between atoms: C52_52  and  N16_111 
REMARK    8  A    between atoms: C53_53  and  C54_54 
REMARK    9  A    between atoms: C53_53  and  O13_89 
REMARK       I    between atoms: C67_67  and  N17_112 
REMARK   10  A    between atoms: C68_68  and  C69_69 
REMARK   11  A    between atoms: C68_68  and  C76_76 
REMARK   12  A    between atoms: C68_68  and  N17_112 
REMARK   13  A    between atoms: C69_69  and  C70_70 
REMARK       I    between atoms: C76_76  and  N18_113 
ROOT
HETATM    1  C26 UNL     1       2.878  -1.316  -1.106  1.00  0.00     0.242 C 
HETATM    2  O6  UNL     1       2.702  -0.868  -2.238  1.00  0.00    -0.271 OA
HETATM    3  N8  UNL     1       3.144  -0.501  -0.027  1.00  0.00    -0.346 N 
HETATM    4  H76 UNL     1       3.187  -0.934   0.898  1.00  0.00     0.163 HD
ENDROOT
BRANCH   1   5
HETATM    5  C27 UNL     1       2.816  -2.822  -0.769  1.00  0.00     0.194 C 
HETATM    6  C28 UNL     1       2.858  -3.622  -2.082  1.00  0.00     0.157 C 
HETATM    7  N9  UNL     1       2.923  -5.064  -1.895  1.00  0.00    -0.358 N 
HETATM    8  C29 UNL     1       1.791  -5.823  -1.669  1.00  0.00     0.230 C 
HETATM    9  H77 UNL     1       3.683  -5.576  -2.340  1.00  0.00     0.162 HD
HETATM   10  C30 UNL     1       2.045  -7.333  -1.751  1.00  0.00     0.197 C 
HETATM   11  O7  UNL     1       0.692  -5.343  -1.399  1.00  0.00    -0.272 OA
HETATM   12  N10 UNL     1       3.094  -7.676  -2.733  1.00  0.00    -0.264 NA
HETATM   13  C31 UNL     1       2.739  -7.766  -4.044  1.00  0.00     0.123 C 
HETATM   14  H78 UNL     1       3.565  -8.539  -2.459  1.00  0.00     0.130 HD
HETATM   15  N11 UNL     1       3.124  -8.775  -4.786  1.00  0.00    -0.350 N 
HETATM   16  S2  UNL     1       1.796  -6.596  -4.880  1.00  0.00    -0.063 SA
HETATM   17  C32 UNL     1       2.553  -8.700  -6.043  1.00  0.00     0.104 C 
ATOM     18  H11 UNL     1       3.757  -9.513  -4.479  1.00  0.00     0.166 HD
HETATM   19  C33 UNL     1       1.760  -7.596  -6.272  1.00  0.00     0.005 C 
HETATM   20  C34 UNL     1       0.960  -7.212  -7.480  1.00  0.00     0.089 C 
HETATM   21  C35 UNL     1      -0.484  -7.663  -7.391  1.00  0.00    -0.020 A 
HETATM   22  C36 UNL     1      -1.010  -8.724  -8.132  1.00  0.00     0.072 A 
HETATM   23  C40 UNL     1      -1.349  -6.989  -6.508  1.00  0.00     0.017 A 
HETATM   24  C37 UNL     1      -2.355  -9.079  -8.027  1.00  0.00     0.037 A 
HETATM   25  C38 UNL     1      -3.188  -8.422  -7.122  1.00  0.00     0.010 A 
HETATM   26  C39 UNL     1      -2.681  -7.390  -6.328  1.00  0.00    -0.055 A 
HETATM   27  C41 UNL     1      -3.516  -6.763  -5.228  1.00  0.00     0.073 C 
HETATM   28  C42 UNL     1      -2.991  -7.154  -3.830  1.00  0.00     0.183 C 
HETATM   29  C43 UNL     1      -3.797  -6.445  -2.718  1.00  0.00     0.241 C 
HETATM   30  O8  UNL     1      -4.516  -5.467  -2.921  1.00  0.00    -0.271 OA
HETATM   31  N12 UNL     1      -3.529  -6.880  -1.440  1.00  0.00    -0.346 N 
HETATM   32  C44 UNL     1      -4.181  -6.338  -0.253  1.00  0.00     0.172 C 
HETATM   33  H79 UNL     1      -2.672  -7.418  -1.307  1.00  0.00     0.163 HD
HETATM   34  C45 UNL     1      -3.493  -5.055   0.272  1.00  0.00     0.240 C 
HETATM   35  C51 UNL     1      -4.244  -7.405   0.833  1.00  0.00     0.042 C 
HETATM   36  O9  UNL     1      -3.280  -4.841   1.465  1.00  0.00    -0.271 OA
HETATM   37  N13 UNL     1      -3.229  -4.100  -0.688  1.00  0.00    -0.346 N 
HETATM   38  C46 UNL     1      -2.973  -2.699  -0.339  1.00  0.00     0.172 C 
HETATM   39  H80 UNL     1      -3.669  -4.272  -1.591  1.00  0.00     0.163 HD
HETATM   40  C47 UNL     1      -1.553  -2.380   0.211  1.00  0.00     0.240 C 
HETATM   41  C50 UNL     1      -3.268  -1.809  -1.546  1.00  0.00     0.042 C 
HETATM   42  O10 UNL     1      -1.020  -1.282   0.053  1.00  0.00    -0.271 OA
HETATM   43  N14 UNL     1      -0.989  -3.350   1.016  1.00  0.00    -0.351 N 
HETATM   44  C48 UNL     1       0.082  -3.005   1.939  1.00  0.00     0.225 C 
HETATM   45  H81 UNL     1      -1.656  -4.038   1.361  1.00  0.00     0.163 HD
HETATM   46  C49 UNL     1       1.465  -2.761   1.323  1.00  0.00     0.236 C 
HETATM   47  O11 UNL     1       2.408  -2.326   1.986  1.00  0.00    -0.272 OA
HETATM   48  N15 UNL     1       1.601  -3.081  -0.000  1.00  0.00    -0.345 N 
HETATM   49  H82 UNL     1       0.808  -3.519  -0.469  1.00  0.00     0.163 HD
BRANCH  22  50
HETATM   50  O14 UNL     1      -0.257  -9.482  -8.983  1.00  0.00    -0.360 OA
HETATM   51  H68 UNL     1       0.644  -9.541  -8.628  1.00  0.00     0.217 HD
ENDBRANCH  22  50
BRANCH  28  52
HETATM   52  N16 UNL     1      -2.991  -8.611  -3.649  1.00  0.00    -0.323 N 
HETATM   53  C52 UNL     1      -2.074  -9.235  -2.866  1.00  0.00     0.361 C 
HETATM   54  O12 UNL     1      -1.409  -8.686  -1.999  1.00  0.00    -0.239 OA
HETATM   55  H83 UNL     1      -3.340  -9.191  -4.399  1.00  0.00     0.165 HD
BRANCH  53  56
HETATM   56  O13 UNL     1      -1.987 -10.534  -3.230  1.00  0.00    -0.303 OA
BRANCH  56  57
HETATM   57  C53 UNL     1      -0.908 -11.270  -2.618  1.00  0.00     0.194 C 
BRANCH  57  58
HETATM   58  C54 UNL     1       0.440 -10.880  -3.240  1.00  0.00     0.078 A 
HETATM   59  C55 UNL     1       0.703 -11.566  -4.578  1.00  0.00    -0.036 A 
HETATM   60  C56 UNL     1      -0.061 -11.528  -5.734  1.00  0.00     0.009 A 
HETATM   61  C60 UNL     1       1.922 -12.277  -4.526  1.00  0.00    -0.018 A 
HETATM   62  C57 UNL     1       0.400 -12.224  -6.852  1.00  0.00     0.001 A 
HETATM   63  C58 UNL     1       1.611 -12.935  -6.806  1.00  0.00     0.001 A 
HETATM   64  C59 UNL     1       2.381 -12.964  -5.638  1.00  0.00     0.013 A 
HETATM   65  C61 UNL     1       2.495 -12.132  -3.204  1.00  0.00    -0.018 A 
HETATM   66  C62 UNL     1       3.671 -12.632  -2.671  1.00  0.00     0.013 A 
HETATM   67  C66 UNL     1       1.637 -11.333  -2.417  1.00  0.00    -0.036 A 
HETATM   68  C63 UNL     1       3.984 -12.327  -1.342  1.00  0.00     0.001 A 
HETATM   69  C64 UNL     1       3.129 -11.530  -0.564  1.00  0.00     0.001 A 
HETATM   70  C65 UNL     1       1.944 -11.023  -1.100  1.00  0.00     0.009 A 
ENDBRANCH  57  58
ENDBRANCH  56  57
ENDBRANCH  53  56
ENDBRANCH  28  52
ENDBRANCH   1   5
BRANCH   3  71
HETATM   71  C21 UNL     1       3.026   0.948  -0.107  1.00  0.00     0.180 C 
HETATM   72  C20 UNL     1       1.561   1.419   0.014  1.00  0.00     0.073 C 
HETATM   73  C18 UNL     1       0.864   1.438   1.363  1.00  0.00    -0.055 A 
HETATM   74  C17 UNL     1       1.358   0.833   2.520  1.00  0.00     0.010 A 
HETATM   75  C19 UNL     1      -0.384   2.085   1.438  1.00  0.00     0.017 A 
HETATM   76  C16 UNL     1       0.644   0.898   3.719  1.00  0.00     0.037 A 
HETATM   77  C15 UNL     1      -0.573   1.566   3.780  1.00  0.00     0.072 A 
HETATM   78  C14 UNL     1      -1.118   2.160   2.638  1.00  0.00    -0.020 A 
HETATM   79  C13 UNL     1      -2.435   2.905   2.648  1.00  0.00     0.089 C 
HETATM   80  C12 UNL     1      -2.290   4.265   3.254  1.00  0.00     0.006 A 
HETATM   81  C11 UNL     1      -1.440   5.286   2.892  1.00  0.00     0.105 A 
HETATM   82  S1  UNL     1      -3.223   4.762   4.601  1.00  0.00    -0.057 SA
HETATM   83  N5  UNL     1      -1.443   6.389   3.719  1.00  0.00    -0.346 N 
HETATM   84  C10 UNL     1      -2.362   6.255   4.650  1.00  0.00     0.145 A 
ATOM     85  H5  UNL     1      -0.822   7.193   3.623  1.00  0.00     0.167 HD
HETATM   86  N4  UNL     1      -2.656   7.181   5.587  1.00  0.00    -0.362 N 
HETATM   87  C9  UNL     1      -2.040   8.506   5.529  1.00  0.00     0.224 C 
HETATM   88  H73 UNL     1      -3.592   7.167   5.978  1.00  0.00     0.162 HD
HETATM   89  C8  UNL     1      -2.544   9.333   4.342  1.00  0.00     0.235 C 
HETATM   90  O3  UNL     1      -3.407  10.207   4.436  1.00  0.00    -0.272 OA
HETATM   91  N3  UNL     1      -1.935   9.036   3.147  1.00  0.00    -0.357 N 
HETATM   92  C7  UNL     1      -2.223   9.711   1.897  1.00  0.00     0.157 C 
HETATM   93  H72 UNL     1      -1.343   8.203   3.125  1.00  0.00     0.162 HD
HETATM   94  C6  UNL     1      -1.078  10.628   1.444  1.00  0.00     0.194 C 
HETATM   95  N2  UNL     1       0.171   9.880   1.271  1.00  0.00    -0.345 N 
HETATM   96  C5  UNL     1       0.377   8.993   0.245  1.00  0.00     0.236 C 
HETATM   97  H71 UNL     1       0.793   9.809   2.081  1.00  0.00     0.163 HD
HETATM   98  C4  UNL     1       1.739   8.295   0.283  1.00  0.00     0.225 C 
HETATM   99  O2  UNL     1      -0.465   8.752  -0.617  1.00  0.00    -0.272 OA
HETATM  100  N1  UNL     1       1.757   7.145   1.169  1.00  0.00    -0.351 N 
HETATM  101  C3  UNL     1       1.940   7.327   2.530  1.00  0.00     0.240 C 
HETATM  102  H70 UNL     1       2.190   6.303   0.812  1.00  0.00     0.163 HD
HETATM  103  C2  UNL     1       2.251   6.022   3.306  1.00  0.00     0.172 C 
HETATM  104  O1  UNL     1       1.730   8.410   3.073  1.00  0.00    -0.271 OA
HETATM  105  C1  UNL     1       2.975   6.304   4.617  1.00  0.00     0.042 C 
HETATM  106  N7  UNL     1       2.918   4.988   2.499  1.00  0.00    -0.346 N 
HETATM  107  C24 UNL     1       4.216   5.150   2.040  1.00  0.00     0.240 C 
HETATM  108  H75 UNL     1       2.639   4.027   2.683  1.00  0.00     0.163 HD
HETATM  109  C23 UNL     1       4.899   3.834   1.615  1.00  0.00     0.172 C 
HETATM  110  O5  UNL     1       4.781   6.239   2.040  1.00  0.00    -0.271 OA
HETATM  111  C25 UNL     1       6.188   4.088   0.843  1.00  0.00     0.042 C 
HETATM  112  N6  UNL     1       3.971   3.029   0.821  1.00  0.00    -0.346 N 
HETATM  113  C22 UNL     1       3.978   1.650   0.886  1.00  0.00     0.241 C 
HETATM  114  H74 UNL     1       3.530   3.477   0.028  1.00  0.00     0.163 HD
HETATM  115  O4  UNL     1       4.695   1.037   1.674  1.00  0.00    -0.271 OA
BRANCH  77 116
HETATM  116  O15 UNL     1      -1.176   1.599   5.004  1.00  0.00    -0.360 OA
HETATM  117  H69 UNL     1      -1.854   2.293   5.020  1.00  0.00     0.217 HD
ENDBRANCH  77 116
BRANCH  94 118
HETATM  118  C67 UNL     1      -0.771  11.844   2.357  1.00  0.00     0.242 C 
HETATM  119  O16 UNL     1       0.315  12.428   2.301  1.00  0.00    -0.271 OA
HETATM  120  N17 UNL     1      -1.782  12.307   3.176  1.00  0.00    -0.346 N 
HETATM  121  H84 UNL     1      -2.452  11.614   3.508  1.00  0.00     0.163 HD
BRANCH 120 122
HETATM  122  C68 UNL     1      -1.484  13.350   4.162  1.00  0.00     0.180 C 
BRANCH 122 123
HETATM  123  C69 UNL     1      -2.780  14.054   4.593  1.00  0.00     0.073 C 
BRANCH 123 124
HETATM  124  C70 UNL     1      -2.553  15.381   5.281  1.00  0.00    -0.056 A 
HETATM  125  C71 UNL     1      -2.778  15.517   6.658  1.00  0.00     0.007 A 
HETATM  126  C72 UNL     1      -2.548  16.737   7.295  1.00  0.00     0.001 A 
HETATM  127  C73 UNL     1      -2.093  17.832   6.563  1.00  0.00     0.000 A 
HETATM  128  C74 UNL     1      -1.871  17.709   5.193  1.00  0.00     0.001 A 
HETATM  129  C75 UNL     1      -2.101  16.490   4.553  1.00  0.00     0.007 A 
ENDBRANCH 123 124
ENDBRANCH 122 123
BRANCH 122 130
HETATM  130  C76 UNL     1      -0.787  12.698   5.381  1.00  0.00     0.238 C 
HETATM  131  O17 UNL     1      -0.879  11.508   5.676  1.00  0.00    -0.271 OA
HETATM  132  N18 UNL     1      -0.070  13.542   6.180  1.00  0.00    -0.368 N 
HETATM  133  H85 UNL     1       0.108  14.507   5.932  1.00  0.00     0.159 HD
HETATM  134  H86 UNL     1       0.446  13.137   6.950  1.00  0.00     0.159 HD
ENDBRANCH 122 130
ENDBRANCH 120 122
ENDBRANCH  94 118
ENDBRANCH   3  71
TORSDOF 13
