REMARK  16 active torsions:
REMARK  status: ('A' for Active; 'I' for Inactive)
REMARK    1  A    between atoms: C5_5  and  O1_51 
REMARK       I    between atoms: C6_6  and  N2_47 
REMARK    2  A    between atoms: C6_6  and  O1_51 
REMARK    3  A    between atoms: C7_7  and  N2_47 
REMARK    4  A    between atoms: C12_12  and  C13_13 
REMARK    5  A    between atoms: C19_19  and  C20_20 
REMARK    6  A    between atoms: C19_19  and  N1_46 
REMARK    7  A    between atoms: C20_20  and  C21_21 
REMARK    8  A    between atoms: C24_24  and  N3_48 
REMARK    9  A    between atoms: C27_27  and  C28_28 
REMARK       I    between atoms: C27_27  and  N3_48 
REMARK   10  A    between atoms: C30_30  and  C34_34 
REMARK   11  A    between atoms: C34_34  and  N4_49 
REMARK   12  A    between atoms: C35_35  and  C36_36 
REMARK   13  A    between atoms: C35_35  and  N4_49 
REMARK   14  A    between atoms: C36_36  and  C37_37 
REMARK   15  A    between atoms: C36_36  and  O6_56 
REMARK   16  A    between atoms: C43_43  and  O5_55 
ROOT
HETATM    1  C21 UNL     1       0.224  -1.487   0.188  1.00  0.00    -0.056 A 
HETATM    2  C22 UNL     1       0.298  -2.371   1.270  1.00  0.00     0.009 A 
HETATM    3  C23 UNL     1       1.537  -2.752   1.798  1.00  0.00     0.030 A 
HETATM    4  C24 UNL     1       2.720  -2.251   1.256  1.00  0.00     0.035 A 
HETATM    5  C25 UNL     1       2.647  -1.365   0.174  1.00  0.00     0.030 A 
HETATM    6  C26 UNL     1       1.410  -0.983  -0.355  1.00  0.00     0.009 A 
ENDROOT
BRANCH   4   7
HETATM    7  N3  UNL     1       4.006  -2.587   1.724  1.00  0.00    -0.323 N 
HETATM    8  C27 UNL     1       4.324  -3.365   2.824  1.00  0.00     0.256 C 
HETATM    9  O3  UNL     1       3.560  -3.861   3.641  1.00  0.00    -0.267 OA
HETATM   10  H41 UNL     1       4.776  -2.143   1.226  1.00  0.00     0.169 HD
BRANCH   8  11
HETATM   11  C28 UNL     1       5.783  -3.544   3.024  1.00  0.00     0.032 A 
HETATM   12  C29 UNL     1       6.611  -3.850   1.939  1.00  0.00     0.026 A 
HETATM   13  C30 UNL     1       8.006  -3.831   2.082  1.00  0.00    -0.029 A 
HETATM   14  C31 UNL     1       8.548  -3.625   3.359  1.00  0.00     0.009 A 
HETATM   15  C32 UNL     1       7.715  -3.402   4.460  1.00  0.00     0.002 A 
HETATM   16  C33 UNL     1       6.332  -3.350   4.292  1.00  0.00     0.017 A 
BRANCH  13  17
HETATM   17  C34 UNL     1       8.900  -4.022   0.883  1.00  0.00     0.308 C 
BRANCH  17  18
HETATM   18  N4  UNL     1       8.535  -3.190  -0.281  1.00  0.00     0.090 N 
HETATM   19  H42 UNL     1       9.116  -3.516  -1.057  1.00  0.00     0.316 HD
BRANCH  18  20
HETATM   20  C35 UNL     1       8.831  -1.749  -0.083  1.00  0.00     0.306 C 
BRANCH  20  21
HETATM   21  C36 UNL     1       7.616  -0.966   0.488  1.00  0.00     0.180 C 
BRANCH  21  22
HETATM   22  C37 UNL     1       7.746   0.540   0.337  1.00  0.00    -0.015 A 
HETATM   23  C38 UNL     1       7.578   1.246  -0.878  1.00  0.00     0.003 A 
HETATM   24  C39 UNL     1       7.228   0.604  -2.156  1.00  0.00     0.020 A 
HETATM   25  C42 UNL     1       7.747   2.649  -0.890  1.00  0.00     0.079 A 
HETATM   26  C40 UNL     1       7.042   1.322  -3.270  1.00  0.00     0.075 A 
HETATM   27  C41 UNL     1       7.168   2.793  -3.262  1.00  0.00     0.245 A 
HETATM   28  N5  UNL     1       7.530   3.370  -2.079  1.00  0.00    -0.321 N 
HETATM   29  O4  UNL     1       6.961   3.451  -4.275  1.00  0.00    -0.268 OA
HETATM   30  H43 UNL     1       7.527   4.379  -2.081  1.00  0.00     0.169 HD
HETATM   31  C43 UNL     1       8.110   3.331   0.274  1.00  0.00     0.093 A 
HETATM   32  C44 UNL     1       8.255   2.651   1.472  1.00  0.00     0.039 A 
HETATM   33  C45 UNL     1       8.076   1.268   1.502  1.00  0.00     0.013 A 
BRANCH  31  34
HETATM   34  O5  UNL     1       8.364   4.673   0.287  1.00  0.00    -0.358 OA
HETATM   35  H44 UNL     1       8.748   4.904  -0.575  1.00  0.00     0.217 HD
ENDBRANCH  31  34
ENDBRANCH  21  22
BRANCH  21  36
HETATM   36  O6  UNL     1       6.398  -1.442  -0.104  1.00  0.00    -0.389 OA
HETATM   37  H45 UNL     1       6.646  -2.327  -0.447  1.00  0.00     0.210 HD
ENDBRANCH  21  36
ENDBRANCH  20  21
ENDBRANCH  18  20
ENDBRANCH  17  18
ENDBRANCH  13  17
ENDBRANCH   8  11
ENDBRANCH   4   7
BRANCH   1  38
HETATM   38  C20 UNL     1      -1.116  -1.059  -0.362  1.00  0.00     0.068 C 
BRANCH  38  39
HETATM   39  C19 UNL     1      -1.663   0.173   0.380  1.00  0.00     0.277 C 
BRANCH  39  40
HETATM   40  N1  UNL     1      -2.951   0.635  -0.165  1.00  0.00     0.088 N 
HETATM   41  C2  UNL     1      -4.080  -0.243   0.182  1.00  0.00     0.275 C 
HETATM   42  C1  UNL     1      -5.000   0.329   1.260  1.00  0.00     0.063 C 
HETATM   43  C5  UNL     1      -5.580   1.681   0.837  1.00  0.00     0.137 C 
HETATM   44  C4  UNL     1      -4.627   2.455  -0.078  1.00  0.00     0.063 C 
HETATM   45  C3  UNL     1      -3.180   2.048   0.174  1.00  0.00     0.275 C 
BRANCH  43  46
HETATM   46  O1  UNL     1      -6.822   1.434   0.144  1.00  0.00    -0.298 OA
BRANCH  46  47
HETATM   47  C6  UNL     1      -7.693   2.478   0.077  1.00  0.00     0.365 C 
HETATM   48  N2  UNL     1      -8.787   2.062  -0.623  1.00  0.00    -0.302 N 
HETATM   49  H40 UNL     1      -8.718   1.102  -0.935  1.00  0.00     0.171 HD
HETATM   50  O2  UNL     1      -7.483   3.573   0.573  1.00  0.00    -0.238 OA
BRANCH  48  51
HETATM   51  C7  UNL     1      -9.957   2.777  -0.959  1.00  0.00     0.048 A 
HETATM   52  C8  UNL     1     -10.157   4.108  -0.570  1.00  0.00     0.030 A 
HETATM   53  C9  UNL     1     -11.329   4.787  -0.915  1.00  0.00     0.002 A 
HETATM   54  C10 UNL     1     -12.317   4.146  -1.653  1.00  0.00     0.001 A 
HETATM   55  C11 UNL     1     -12.134   2.822  -2.048  1.00  0.00     0.014 A 
HETATM   56  C12 UNL     1     -10.961   2.120  -1.712  1.00  0.00     0.001 A 
BRANCH  56  57
HETATM   57  C13 UNL     1     -10.825   0.726  -2.162  1.00  0.00    -0.024 A 
HETATM   58  C14 UNL     1     -10.157   0.422  -3.358  1.00  0.00     0.012 A 
HETATM   59  C15 UNL     1     -10.012  -0.902  -3.776  1.00  0.00     0.001 A 
HETATM   60  C16 UNL     1     -10.535  -1.938  -3.004  1.00  0.00     0.000 A 
HETATM   61  C17 UNL     1     -11.203  -1.651  -1.815  1.00  0.00     0.001 A 
HETATM   62  C18 UNL     1     -11.348  -0.327  -1.397  1.00  0.00     0.012 A 
ENDBRANCH  56  57
ENDBRANCH  48  51
ENDBRANCH  46  47
ENDBRANCH  43  46
ENDBRANCH  39  40
ENDBRANCH  38  39
ENDBRANCH   1  38
TORSDOF 16
