REMARK  0 active torsions:
REMARK  status: ('A' for Active; 'I' for Inactive)
REMARK       I    between atoms: C2_2  and  N1_58 
REMARK       I    between atoms: C3_3  and  C4_4 
REMARK       I    between atoms: C3_3  and  C15_15 
REMARK       I    between atoms: C3_3  and  N1_58 
REMARK       I    between atoms: C4_4  and  C5_5 
REMARK       I    between atoms: C5_5  and  C6_6 
REMARK       I    between atoms: C6_6  and  C7_7 
REMARK       I    between atoms: C7_7  and  N2_59 
REMARK       I    between atoms: C8_8  and  C9_9 
REMARK       I    between atoms: C8_8  and  N2_59 
REMARK       I    between atoms: C11_11  and  O5_46 
REMARK       I    between atoms: C12_12  and  O4_45 
REMARK       I    between atoms: C13_13  and  O3_44 
REMARK       I    between atoms: C15_15  and  N3_60 
REMARK       I    between atoms: C16_16  and  C17_17 
REMARK       I    between atoms: C16_16  and  C28_28 
REMARK       I    between atoms: C16_16  and  N3_60 
REMARK       I    between atoms: C17_17  and  C18_18 
REMARK       I    between atoms: C18_18  and  C19_19 
REMARK       I    between atoms: C19_19  and  C20_20 
REMARK       I    between atoms: C20_20  and  N4_61 
REMARK       I    between atoms: C21_21  and  C22_22 
REMARK       I    between atoms: C21_21  and  N4_61 
REMARK       I    between atoms: C24_24  and  O10_51 
REMARK       I    between atoms: C25_25  and  O9_50 
REMARK       I    between atoms: C26_26  and  O8_49 
REMARK       I    between atoms: C28_28  and  N5_62 
REMARK       I    between atoms: C29_29  and  C30_30 
REMARK       I    between atoms: C29_29  and  C41_41 
REMARK       I    between atoms: C29_29  and  N5_62 
REMARK       I    between atoms: C30_30  and  C31_31 
REMARK       I    between atoms: C31_31  and  C32_32 
REMARK       I    between atoms: C32_32  and  C33_33 
REMARK       I    between atoms: C33_33  and  N6_63 
REMARK       I    between atoms: C34_34  and  C35_35 
REMARK       I    between atoms: C34_34  and  N6_63 
REMARK       I    between atoms: C37_37  and  O15_56 
REMARK       I    between atoms: C38_38  and  O14_55 
REMARK       I    between atoms: C39_39  and  O13_54 
REMARK       I    between atoms: C41_41  and  N7_64 
ROOT
HETATM    1  C1  UNL     1       0.328  -1.665   4.226  1.00  0.00     0.117 C 
HETATM    2  C2  UNL     1       0.825  -1.541   2.812  1.00  0.00     0.214 C 
HETATM    3  C3  UNL     1       2.462  -0.406   1.354  1.00  0.00     0.176 C 
HETATM    4  C4  UNL     1       3.531   0.691   1.497  1.00  0.00     0.035 C 
HETATM    5  C5  UNL     1       4.483   0.861   0.307  1.00  0.00     0.004 C 
HETATM    6  C6  UNL     1       5.252  -0.410  -0.052  1.00  0.00     0.020 C 
HETATM    7  C7  UNL     1       6.252  -0.152  -1.177  1.00  0.00     0.123 C 
HETATM    8  C8  UNL     1       8.035  -1.822  -0.831  1.00  0.00     0.251 C 
HETATM    9  C9  UNL     1       8.632  -3.115  -1.269  1.00  0.00     0.037 A 
HETATM   10  C10 UNL     1       9.351  -3.861  -0.317  1.00  0.00     0.056 A 
HETATM   11  C11 UNL     1       9.927  -5.072  -0.686  1.00  0.00     0.102 A 
HETATM   12  C12 UNL     1       9.796  -5.537  -1.989  1.00  0.00     0.132 A 
HETATM   13  C13 UNL     1       9.098  -4.794  -2.931  1.00  0.00     0.102 A 
HETATM   14  C14 UNL     1       8.517  -3.580  -2.587  1.00  0.00     0.056 A 
HETATM   15  C15 UNL     1       1.551  -0.099   0.141  1.00  0.00     0.241 C 
HETATM   16  C16 UNL     1      -0.601   0.942  -0.548  1.00  0.00     0.176 C 
HETATM   17  C17 UNL     1      -0.646   2.452  -0.819  1.00  0.00     0.035 C 
HETATM   18  C18 UNL     1       0.645   2.973  -1.461  1.00  0.00     0.004 C 
HETATM   19  C19 UNL     1       0.581   4.457  -1.828  1.00  0.00     0.020 C 
HETATM   20  C20 UNL     1       0.490   5.371  -0.609  1.00  0.00     0.123 C 
HETATM   21  C21 UNL     1       0.822   7.732  -0.041  1.00  0.00     0.251 C 
HETATM   22  C22 UNL     1       0.706   9.142  -0.498  1.00  0.00     0.037 A 
HETATM   23  C23 UNL     1       0.275  10.108   0.424  1.00  0.00     0.056 A 
HETATM   24  C24 UNL     1       0.158  11.429   0.017  1.00  0.00     0.102 A 
HETATM   25  C25 UNL     1       0.478  11.796  -1.284  1.00  0.00     0.132 A 
HETATM   26  C26 UNL     1       0.925  10.843  -2.194  1.00  0.00     0.102 A 
HETATM   27  C27 UNL     1       1.045   9.511  -1.812  1.00  0.00     0.056 A 
HETATM   28  C28 UNL     1      -1.978   0.421  -0.074  1.00  0.00     0.241 C 
HETATM   29  C29 UNL     1      -3.154  -1.551   0.835  1.00  0.00     0.176 C 
HETATM   30  C30 UNL     1      -2.993  -2.422   2.091  1.00  0.00     0.035 C 
HETATM   31  C31 UNL     1      -4.250  -3.161   2.564  1.00  0.00     0.004 C 
HETATM   32  C32 UNL     1      -5.398  -2.223   2.944  1.00  0.00     0.020 C 
HETATM   33  C33 UNL     1      -6.665  -2.963   3.382  1.00  0.00     0.123 C 
HETATM   34  C34 UNL     1      -7.498  -3.645   1.139  1.00  0.00     0.251 C 
HETATM   35  C35 UNL     1      -8.161  -4.720   0.351  1.00  0.00     0.037 A 
HETATM   36  C36 UNL     1      -8.996  -4.337  -0.714  1.00  0.00     0.056 A 
HETATM   37  C37 UNL     1      -9.629  -5.315  -1.474  1.00  0.00     0.102 A 
HETATM   38  C38 UNL     1      -9.432  -6.659  -1.184  1.00  0.00     0.132 A 
HETATM   39  C39 UNL     1      -8.595  -7.036  -0.142  1.00  0.00     0.102 A 
HETATM   40  C40 UNL     1      -7.948  -6.079   0.629  1.00  0.00     0.056 A 
HETATM   41  C41 UNL     1      -3.393  -2.403  -0.430  1.00  0.00     0.238 C 
HETATM   42  O1  UNL     1       0.436  -2.271   1.908  1.00  0.00    -0.274 OA
HETATM   43  O2  UNL     1       8.489  -1.244   0.150  1.00  0.00    -0.268 OA
HETATM   44  O3  UNL     1       8.984  -5.249  -4.213  1.00  0.00    -0.358 OA
HETATM   45  O4  UNL     1      10.357  -6.728  -2.363  1.00  0.00    -0.356 OA
HETATM   46  O5  UNL     1      10.634  -5.839   0.197  1.00  0.00    -0.358 OA
HETATM   47  O6  UNL     1       1.889  -0.352  -1.013  1.00  0.00    -0.271 OA
HETATM   48  O7  UNL     1       1.107   7.481   1.124  1.00  0.00    -0.268 OA
HETATM   49  O8  UNL     1       1.243  11.270  -3.454  1.00  0.00    -0.358 OA
HETATM   50  O9  UNL     1       0.354  13.108  -1.655  1.00  0.00    -0.356 OA
HETATM   51  O10 UNL     1      -0.275  12.370   0.905  1.00  0.00    -0.358 OA
HETATM   52  O11 UNL     1      -3.038   0.971  -0.366  1.00  0.00    -0.271 OA
HETATM   53  O12 UNL     1      -7.289  -2.556   0.613  1.00  0.00    -0.268 OA
HETATM   54  O13 UNL     1      -8.395  -8.358   0.132  1.00  0.00    -0.358 OA
HETATM   55  O14 UNL     1     -10.050  -7.630  -1.924  1.00  0.00    -0.356 OA
HETATM   56  O15 UNL     1     -10.454  -5.002  -2.517  1.00  0.00    -0.358 OA
HETATM   57  O16 UNL     1      -2.495  -2.755  -1.193  1.00  0.00    -0.271 OA
HETATM   58  N1  UNL     1       1.692  -0.486   2.611  1.00  0.00    -0.348 N 
HETATM   59  N2  UNL     1       6.955  -1.361  -1.554  1.00  0.00    -0.357 N 
HETATM   60  N3  UNL     1       0.420   0.625   0.447  1.00  0.00    -0.346 N 
HETATM   61  N4  UNL     1       0.561   6.767  -0.995  1.00  0.00    -0.357 N 
HETATM   62  N5  UNL     1      -1.930  -0.777   0.618  1.00  0.00    -0.346 N 
HETATM   63  N6  UNL     1      -7.162  -3.951   2.440  1.00  0.00    -0.357 N 
HETATM   64  N7  UNL     1      -4.676  -2.809  -0.655  1.00  0.00    -0.368 N 
HETATM   65  H37 UNL     1       9.466  -6.101  -4.218  1.00  0.00     0.217 HD
HETATM   66  H38 UNL     1      10.790  -7.057  -1.548  1.00  0.00     0.218 HD
HETATM   67  H39 UNL     1      10.666  -5.369   1.050  1.00  0.00     0.217 HD
HETATM   68  H40 UNL     1       1.596  10.517  -3.959  1.00  0.00     0.217 HD
HETATM   69  H41 UNL     1       0.640  13.124  -2.591  1.00  0.00     0.218 HD
HETATM   70  H42 UNL     1      -0.265  13.211   0.403  1.00  0.00     0.217 HD
HETATM   71  H43 UNL     1      -8.928  -8.834  -0.539  1.00  0.00     0.217 HD
HETATM   72  H44 UNL     1     -10.567  -7.133  -2.592  1.00  0.00     0.218 HD
HETATM   73  H45 UNL     1     -10.470  -4.034  -2.619  1.00  0.00     0.217 HD
HETATM   74  H46 UNL     1       2.152  -0.131   3.441  1.00  0.00     0.163 HD
HETATM   75  H47 UNL     1       6.499  -1.972  -2.219  1.00  0.00     0.162 HD
HETATM   76  H48 UNL     1       0.158   0.664   1.425  1.00  0.00     0.163 HD
HETATM   77  H49 UNL     1       0.019   7.049  -1.801  1.00  0.00     0.162 HD
HETATM   78  H50 UNL     1      -1.082  -1.330   0.490  1.00  0.00     0.163 HD
HETATM   79  H51 UNL     1      -7.551  -4.793   2.844  1.00  0.00     0.162 HD
HETATM   80  H52 UNL     1      -4.855  -3.290  -1.525  1.00  0.00     0.159 HD
HETATM   81  H53 UNL     1      -5.479  -2.385  -0.190  1.00  0.00     0.159 HD
ENDROOT
TORSDOF 33
