REMARK  18 active torsions:
REMARK  status: ('A' for Active; 'I' for Inactive)
REMARK    1  A    between atoms: C2_2  and  O1_44 
REMARK    2  A    between atoms: C3_3  and  N2_55 
REMARK    3  A    between atoms: C6_6  and  C8_8 
REMARK    4  A    between atoms: C7_7  and  O2_45 
REMARK       I    between atoms: C8_8  and  N1_54 
REMARK    5  A    between atoms: C9_9  and  N1_54 
REMARK    6  A    between atoms: C10_10  and  O7_50 
REMARK    7  A    between atoms: C11_11  and  O6_49 
REMARK    8  A    between atoms: C12_12  and  C15_15 
REMARK    9  A    between atoms: C15_15  and  O5_48 
REMARK   10  A    between atoms: C17_17  and  C18_18 
REMARK       I    between atoms: C17_17  and  N2_55 
REMARK   11  A    between atoms: C21_21  and  N3_56 
REMARK   12  A    between atoms: C24_24  and  C25_25 
REMARK       I    between atoms: C24_24  and  N3_56 
REMARK   13  A    between atoms: C25_25  and  C26_26 
REMARK   14  A    between atoms: C25_25  and  N7_62 
REMARK   15  A    between atoms: C26_26  and  C27_27 
REMARK   16  A    between atoms: C29_29  and  C30_30 
REMARK       I    between atoms: C29_29  and  N7_62 
REMARK   17  A    between atoms: C33_33  and  C36_36 
REMARK   18  A    between atoms: C37_37  and  C38_38 
ROOT
HETATM    1  C18 UNL     1      -0.692   0.321   0.099  1.00  0.00     0.032 A 
HETATM    2  C19 UNL     1       0.395   1.033   0.616  1.00  0.00     0.019 A 
HETATM    3  C20 UNL     1       1.584   0.367   0.930  1.00  0.00     0.030 A 
HETATM    4  C21 UNL     1       1.707  -1.013   0.725  1.00  0.00     0.034 A 
HETATM    5  C22 UNL     1       0.626  -1.715   0.188  1.00  0.00     0.030 A 
HETATM    6  C23 UNL     1      -0.567  -1.054  -0.129  1.00  0.00     0.019 A 
ENDROOT
BRANCH   4   7
HETATM    7  N3  UNL     1       2.938  -1.600   1.068  1.00  0.00    -0.325 N 
HETATM    8  C24 UNL     1       3.304  -2.931   0.990  1.00  0.00     0.245 C 
HETATM    9  O9  UNL     1       2.556  -3.858   0.681  1.00  0.00    -0.271 OA
HETATM   10  H32 UNL     1       3.653  -0.962   1.424  1.00  0.00     0.169 HD
BRANCH   8  11
HETATM   11  C25 UNL     1       4.743  -3.230   1.471  1.00  0.00     0.182 C 
BRANCH  11  12
HETATM   12  C26 UNL     1       4.773  -3.239   3.007  1.00  0.00     0.095 C 
BRANCH  12  13
HETATM   13  C27 UNL     1       6.103  -3.608   3.557  1.00  0.00     0.046 A 
HETATM   14  C28 UNL     1       7.037  -2.799   4.232  1.00  0.00     0.135 A 
HETATM   15  N6  UNL     1       8.116  -3.519   4.551  1.00  0.00    -0.296 N 
HETATM   16  N5  UNL     1       7.777  -4.730   4.077  1.00  0.00    -0.243 N 
ATOM     17  H6  UNL     1       8.970  -3.227   5.027  1.00  0.00     0.187 HD
HETATM   18  N4  UNL     1       6.595  -4.851   3.446  1.00  0.00    -0.289 N 
HETATM   19  H33 UNL     1       8.398  -5.528   4.187  1.00  0.00     0.208 HD
ATOM     20  H4  UNL     1       6.182  -5.671   3.001  1.00  0.00     0.188 HD
ENDBRANCH  12  13
ENDBRANCH  11  12
BRANCH  11  21
HETATM   21  N7  UNL     1       5.773  -2.385   0.833  1.00  0.00    -0.343 N 
HETATM   22  C29 UNL     1       6.000  -1.067   1.150  1.00  0.00     0.252 C 
HETATM   23  O10 UNL     1       5.255  -0.433   1.891  1.00  0.00    -0.268 OA
HETATM   24  H34 UNL     1       6.533  -2.900   0.406  1.00  0.00     0.163 HD
BRANCH  22  25
HETATM   25  C30 UNL     1       7.210  -0.431   0.564  1.00  0.00     0.032 A 
HETATM   26  C31 UNL     1       7.747  -0.847  -0.661  1.00  0.00     0.018 A 
HETATM   27  C32 UNL     1       8.886  -0.217  -1.173  1.00  0.00     0.022 A 
HETATM   28  C33 UNL     1       9.486   0.831  -0.470  1.00  0.00     0.018 A 
HETATM   29  C34 UNL     1       8.943   1.256   0.744  1.00  0.00     0.022 A 
HETATM   30  C35 UNL     1       7.804   0.630   1.258  1.00  0.00     0.018 A 
BRANCH  28  31
HETATM   31  C36 UNL     1      10.650   1.472  -0.998  1.00  0.00    -0.061 C 
HETATM   32  C37 UNL     1      11.628   2.011  -1.442  1.00  0.00    -0.061 C 
BRANCH  32  33
HETATM   33  C38 UNL     1      12.791   2.654  -1.970  1.00  0.00     0.018 A 
HETATM   34  C39 UNL     1      14.064   2.234  -1.568  1.00  0.00     0.024 A 
HETATM   35  C40 UNL     1      15.200   2.862  -2.084  1.00  0.00     0.044 A 
HETATM   36  C41 UNL     1      15.053   3.902  -2.996  1.00  0.00     0.116 A 
HETATM   37  C42 UNL     1      13.793   4.327  -3.402  1.00  0.00     0.044 A 
HETATM   38  F1  UNL     1      16.143   4.503  -3.491  1.00  0.00    -0.206 F 
HETATM   39  C43 UNL     1      12.656   3.701  -2.887  1.00  0.00     0.024 A 
ENDBRANCH  32  33
ENDBRANCH  28  31
ENDBRANCH  22  25
ENDBRANCH  11  21
ENDBRANCH   8  11
ENDBRANCH   4   7
BRANCH   1  40
HETATM   40  C17 UNL     1      -1.945   1.066  -0.218  1.00  0.00     0.256 C 
HETATM   41  O8  UNL     1      -1.857   2.235  -0.570  1.00  0.00    -0.267 OA
HETATM   42  N2  UNL     1      -3.111   0.351  -0.031  1.00  0.00    -0.320 N 
HETATM   43  H31 UNL     1      -3.043  -0.571   0.385  1.00  0.00     0.169 HD
BRANCH  42  44
HETATM   44  C3  UNL     1      -4.432   0.770  -0.303  1.00  0.00     0.071 A 
HETATM   45  C2  UNL     1      -5.479  -0.085   0.073  1.00  0.00     0.129 A 
HETATM   46  C7  UNL     1      -6.814   0.204  -0.252  1.00  0.00     0.117 A 
HETATM   47  C6  UNL     1      -7.142   1.403  -0.892  1.00  0.00     0.068 A 
HETATM   48  C5  UNL     1      -6.093   2.278  -1.228  1.00  0.00     0.022 A 
HETATM   49  C4  UNL     1      -4.755   1.962  -0.947  1.00  0.00     0.034 A 
BRANCH  45  50
HETATM   50  O1  UNL     1      -5.210  -1.265   0.737  1.00  0.00    -0.351 OA
HETATM   51  C1  UNL     1      -5.206  -1.030   2.152  1.00  0.00     0.210 C 
ENDBRANCH  45  50
BRANCH  46  52
HETATM   52  O2  UNL     1      -7.773  -0.728   0.065  1.00  0.00    -0.357 OA
HETATM   53  H27 UNL     1      -7.286  -1.519   0.375  1.00  0.00     0.217 HD
ENDBRANCH  46  52
BRANCH  47  54
HETATM   54  C8  UNL     1      -8.537   1.826  -1.253  1.00  0.00     0.259 C 
HETATM   55  O3  UNL     1      -8.691   2.886  -1.852  1.00  0.00    -0.267 OA
HETATM   56  N1  UNL     1      -9.549   0.970  -0.876  1.00  0.00    -0.320 N 
HETATM   57  H30 UNL     1      -9.264   0.115  -0.399  1.00  0.00     0.169 HD
BRANCH  56  58
HETATM   58  C9  UNL     1     -10.940   1.123  -1.047  1.00  0.00     0.071 A 
HETATM   59  C10 UNL     1     -11.771   0.069  -0.626  1.00  0.00     0.129 A 
HETATM   60  C11 UNL     1     -13.168   0.174  -0.683  1.00  0.00     0.118 A 
HETATM   61  C12 UNL     1     -13.752   1.307  -1.245  1.00  0.00     0.073 A 
HETATM   62  C13 UNL     1     -12.933   2.355  -1.687  1.00  0.00     0.023 A 
HETATM   63  C14 UNL     1     -11.537   2.263  -1.586  1.00  0.00     0.034 A 
BRANCH  59  64
HETATM   64  O7  UNL     1     -11.225  -1.080  -0.092  1.00  0.00    -0.351 OA
HETATM   65  C16 UNL     1     -10.973  -2.021  -1.144  1.00  0.00     0.210 C 
ENDBRANCH  59  64
BRANCH  60  66
HETATM   66  O6  UNL     1     -13.927  -0.829  -0.141  1.00  0.00    -0.357 OA
HETATM   67  H29 UNL     1     -13.309  -1.429   0.315  1.00  0.00     0.217 HD
ENDBRANCH  60  66
BRANCH  61  68
HETATM   68  C15 UNL     1     -15.210   1.485  -1.372  1.00  0.00     0.179 C 
HETATM   69  O4  UNL     1     -15.813   2.526  -1.182  1.00  0.00    -0.646 OA
BRANCH  68  70
HETATM   70  O5  UNL     1     -15.827   0.387  -1.837  1.00  0.00    -0.773 OA
HETATM   71  H28 UNL     1     -16.770   0.642  -1.883  1.00  0.00     0.167 HD
ENDBRANCH  68  70
ENDBRANCH  61  68
ENDBRANCH  56  58
ENDBRANCH  47  54
ENDBRANCH  42  44
ENDBRANCH   1  40
TORSDOF 18
