REMARK  0 active torsions:
REMARK  status: ('A' for Active; 'I' for Inactive)
REMARK       I    between atoms: C2_2  and  C4_4 
REMARK       I    between atoms: C4_4  and  C5_5 
REMARK       I    between atoms: C5_5  and  C6_6 
REMARK       I    between atoms: C5_5  and  N9_81 
REMARK       I    between atoms: C6_6  and  N1_72 
REMARK       I    between atoms: C7_7  and  C8_8 
REMARK       I    between atoms: C7_7  and  C12_12 
REMARK       I    between atoms: C7_7  and  N1_72 
REMARK       I    between atoms: C8_8  and  C9_9 
REMARK       I    between atoms: C9_9  and  C10_10 
REMARK       I    between atoms: C10_10  and  N2_73 
REMARK       I    between atoms: C11_11  and  N3_75 
REMARK       I    between atoms: C11_11  and  N4_76 
REMARK       I    between atoms: C12_12  and  C13_13 
REMARK       I    between atoms: C13_13  and  C14_14 
REMARK       I    between atoms: C14_14  and  C15_15 
REMARK       I    between atoms: C15_15  and  N5_77 
REMARK       I    between atoms: C16_16  and  N5_77 
REMARK       I    between atoms: C18_18  and  C19_19 
REMARK       I    between atoms: C18_18  and  N5_77 
REMARK       I    between atoms: C19_19  and  C20_20 
REMARK       I    between atoms: C19_19  and  N6_78 
REMARK       I    between atoms: C20_20  and  C21_21 
REMARK       I    between atoms: C24_24  and  O5_62 
REMARK       I    between atoms: C27_27  and  C28_28 
REMARK       I    between atoms: C27_27  and  N6_78 
REMARK       I    between atoms: C28_28  and  C29_29 
REMARK       I    between atoms: C28_28  and  N7_79 
REMARK       I    between atoms: C29_29  and  C30_30 
REMARK       I    between atoms: C36_36  and  C37_37 
REMARK       I    between atoms: C36_36  and  N7_79 
REMARK       I    between atoms: C37_37  and  N8_80 
REMARK       I    between atoms: C39_39  and  N8_80 
REMARK       I    between atoms: C41_41  and  C42_42 
REMARK       I    between atoms: C41_41  and  N9_81 
REMARK       I    between atoms: C42_42  and  C43_43 
REMARK       I    between atoms: C42_42  and  N10_82 
REMARK       I    between atoms: C43_43  and  O10_67 
REMARK       I    between atoms: C45_45  and  C46_46 
REMARK       I    between atoms: C45_45  and  N10_82 
REMARK       I    between atoms: C46_46  and  C47_47 
REMARK       I    between atoms: C46_46  and  N11_83 
REMARK       I    between atoms: C47_47  and  C48_48 
REMARK       I    between atoms: C51_51  and  O12_69 
REMARK       I    between atoms: C54_54  and  C55_55 
REMARK       I    between atoms: C54_54  and  N11_83 
REMARK       I    between atoms: C55_55  and  C56_56 
REMARK       I    between atoms: C55_55  and  N12_84 
REMARK       I    between atoms: C56_56  and  O14_71 
ROOT
HETATM    1  C1  UNL     1      -1.856   4.656   1.304  1.00  0.00     0.009 C 
HETATM    2  C2  UNL     1      -2.365   3.271   1.719  1.00  0.00    -0.020 C 
HETATM    3  C3  UNL     1      -1.771   2.899   3.076  1.00  0.00     0.009 C 
HETATM    4  C4  UNL     1      -2.039   2.254   0.603  1.00  0.00     0.038 C 
HETATM    5  C5  UNL     1      -2.544   0.813   0.789  1.00  0.00     0.177 C 
HETATM    6  C6  UNL     1      -1.659  -0.047   1.717  1.00  0.00     0.241 C 
HETATM    7  C7  UNL     1       0.523  -1.215   1.961  1.00  0.00     0.154 C 
HETATM    8  C8  UNL     1       0.319  -2.699   1.611  1.00  0.00     0.034 C 
HETATM    9  C9  UNL     1      -0.855  -3.391   2.316  1.00  0.00     0.022 C 
HETATM   10  C10 UNL     1      -0.791  -3.368   3.845  1.00  0.00     0.121 C 
HETATM   11  C11 UNL     1       0.711  -5.058   4.557  1.00  0.00     0.121 C 
HETATM   12  C12 UNL     1       1.958  -0.799   1.591  1.00  0.00     0.149 C 
HETATM   13  C13 UNL     1       2.561   0.377   2.335  1.00  0.00     0.082 C 
HETATM   14  C14 UNL     1       2.213   1.712   1.687  1.00  0.00     0.028 C 
HETATM   15  C15 UNL     1       3.057   2.105   0.464  1.00  0.00     0.135 C 
HETATM   16  C16 UNL     1       1.962   0.785  -1.300  1.00  0.00     0.222 C 
HETATM   17  C17 UNL     1       2.089  -0.118  -2.506  1.00  0.00     0.117 C 
HETATM   18  C18 UNL     1       4.372   0.994  -1.263  1.00  0.00     0.249 C 
HETATM   19  C19 UNL     1       5.479   0.374  -0.385  1.00  0.00     0.181 C 
HETATM   20  C20 UNL     1       5.646  -1.092  -0.820  1.00  0.00     0.073 C 
HETATM   21  C21 UNL     1       6.572  -1.879   0.075  1.00  0.00    -0.056 A 
HETATM   22  C22 UNL     1       7.918  -2.054  -0.274  1.00  0.00     0.010 A 
HETATM   23  C23 UNL     1       8.775  -2.784   0.551  1.00  0.00     0.037 A 
HETATM   24  C24 UNL     1       8.286  -3.329   1.734  1.00  0.00     0.065 A 
HETATM   25  C25 UNL     1       6.956  -3.161   2.099  1.00  0.00     0.037 A 
HETATM   26  C26 UNL     1       6.098  -2.438   1.270  1.00  0.00     0.010 A 
HETATM   27  C27 UNL     1       7.061   2.190   0.223  1.00  0.00     0.241 C 
HETATM   28  C28 UNL     1       8.263   3.040  -0.245  1.00  0.00     0.180 C 
HETATM   29  C29 UNL     1       9.302   3.202   0.876  1.00  0.00     0.073 C 
HETATM   30  C30 UNL     1      10.080   1.948   1.209  1.00  0.00    -0.056 A 
HETATM   31  C31 UNL     1       9.573   1.015   2.122  1.00  0.00     0.007 A 
HETATM   32  C32 UNL     1      10.300  -0.133   2.438  1.00  0.00     0.001 A 
HETATM   33  C33 UNL     1      11.537  -0.365   1.839  1.00  0.00     0.000 A 
HETATM   34  C34 UNL     1      12.048   0.552   0.923  1.00  0.00     0.001 A 
HETATM   35  C35 UNL     1      11.324   1.704   0.609  1.00  0.00     0.007 A 
HETATM   36  C36 UNL     1       8.729   3.235  -2.683  1.00  0.00     0.236 C 
HETATM   37  C37 UNL     1       9.256   2.471  -3.901  1.00  0.00     0.227 C 
HETATM   38  C38 UNL     1       7.481   2.820  -5.604  1.00  0.00     0.153 C 
HETATM   39  C39 UNL     1       7.549   0.770  -4.185  1.00  0.00     0.215 C 
HETATM   40  C40 UNL     1       6.384   0.206  -4.957  1.00  0.00     0.117 C 
HETATM   41  C41 UNL     1      -4.997   0.940   0.462  1.00  0.00     0.243 C 
HETATM   42  C42 UNL     1      -6.358   0.746   1.157  1.00  0.00     0.200 C 
HETATM   43  C43 UNL     1      -6.764   2.108   1.743  1.00  0.00     0.202 C 
HETATM   44  C44 UNL     1      -8.160   1.395   3.542  1.00  0.00     0.201 C 
HETATM   45  C45 UNL     1      -7.303  -1.065  -0.216  1.00  0.00     0.241 C 
HETATM   46  C46 UNL     1      -8.371  -1.461  -1.256  1.00  0.00     0.180 C 
HETATM   47  C47 UNL     1      -7.712  -1.403  -2.645  1.00  0.00     0.073 C 
HETATM   48  C48 UNL     1      -8.637  -1.768  -3.786  1.00  0.00    -0.056 A 
HETATM   49  C49 UNL     1      -8.878  -0.851  -4.821  1.00  0.00     0.010 A 
HETATM   50  C50 UNL     1      -9.727  -1.180  -5.880  1.00  0.00     0.037 A 
HETATM   51  C51 UNL     1     -10.334  -2.430  -5.907  1.00  0.00     0.065 A 
HETATM   52  C52 UNL     1     -10.102  -3.354  -4.897  1.00  0.00     0.037 A 
HETATM   53  C53 UNL     1      -9.251  -3.027  -3.840  1.00  0.00     0.010 A 
HETATM   54  C54 UNL     1     -10.570  -0.820  -0.298  1.00  0.00     0.254 C 
HETATM   55  C55 UNL     1     -11.595   0.335  -0.235  1.00  0.00     0.334 C 
HETATM   56  C56 UNL     1     -11.034   1.349   0.777  1.00  0.00     0.209 C 
HETATM   57  C57 UNL     1     -13.531  -1.014  -0.827  1.00  0.00     0.307 C 
HETATM   58  O1  UNL     1      -2.067  -0.436   2.812  1.00  0.00    -0.271 OA
HETATM   59  O2  UNL     1       2.584  -1.324   0.665  1.00  0.00    -0.296 OA
HETATM   60  O3  UNL     1       0.838   1.129  -0.918  1.00  0.00    -0.273 OA
HETATM   61  O4  UNL     1       4.583   1.313  -2.437  1.00  0.00    -0.271 OA
HETATM   62  O5  UNL     1       9.093  -4.040   2.572  1.00  0.00    -0.361 OA
HETATM   63  O6  UNL     1       6.451   2.444   1.262  1.00  0.00    -0.271 OA
HETATM   64  O7  UNL     1       8.175   4.327  -2.782  1.00  0.00    -0.272 OA
HETATM   65  O8  UNL     1       7.945   0.228  -3.148  1.00  0.00    -0.274 OA
HETATM   66  O9  UNL     1      -4.885   1.311  -0.705  1.00  0.00    -0.271 OA
HETATM   67  O10 UNL     1      -8.086   2.112   2.312  1.00  0.00    -0.393 OA
HETATM   68  O11 UNL     1      -6.392  -1.824   0.114  1.00  0.00    -0.271 OA
HETATM   69  O12 UNL     1     -11.171  -2.792  -6.921  1.00  0.00    -0.361 OA
HETATM   70  O13 UNL     1     -10.619  -1.834   0.393  1.00  0.00    -0.271 OA
HETATM   71  O14 UNL     1      -9.853   1.971   0.255  1.00  0.00    -0.398 OA
HETATM   72  N1  UNL     1      -0.411  -0.357   1.233  1.00  0.00    -0.348 N 
HETATM   73  N2  UNL     1       0.518  -3.819   4.313  1.00  0.00    -0.372 N 
ATOM     74  H2  UNL     1       1.274  -3.147   4.444  1.00  0.00     0.161 HD
HETATM   75  N3  UNL     1      -0.120  -6.116   4.432  1.00  0.00    -0.279 NA
HETATM   76  N4  UNL     1       1.910  -5.471   5.020  1.00  0.00    -0.279 NA
HETATM   77  N5  UNL     1       3.133   1.165  -0.653  1.00  0.00    -0.287 N 
HETATM   78  N6  UNL     1       6.701   1.149  -0.601  1.00  0.00    -0.346 N 
HETATM   79  N7  UNL     1       8.865   2.558  -1.490  1.00  0.00    -0.346 N 
HETATM   80  N8  UNL     1       8.154   1.915  -4.683  1.00  0.00    -0.348 N 
HETATM   81  N9  UNL     1      -3.913   0.756   1.292  1.00  0.00    -0.346 N 
HETATM   82  N10 UNL     1      -7.339   0.253   0.198  1.00  0.00    -0.344 N 
HETATM   83  N11 UNL     1      -9.534  -0.574  -1.180  1.00  0.00    -0.346 N 
HETATM   84  N12 UNL     1     -12.943  -0.123   0.168  1.00  0.00     0.095 N 
HETATM   85  H69 UNL     1       9.969  -4.113   2.160  1.00  0.00     0.217 HD
HETATM   86  H70 UNL     1     -11.214  -2.062  -7.560  1.00  0.00     0.217 HD
HETATM   87  H71 UNL     1      -9.424   2.406   1.026  1.00  0.00     0.209 HD
HETATM   88  H72 UNL     1      -0.143  -0.016   0.307  1.00  0.00     0.163 HD
HETATM   89  H73 UNL     1      -0.937  -5.938   3.862  1.00  0.00     0.126 HD
HETATM   90  H74 UNL     1       0.366  -6.944   4.108  1.00  0.00     0.126 HD
HETATM   91  H75 UNL     1       1.818  -6.099   5.809  1.00  0.00     0.126 HD
HETATM   92  H76 UNL     1       2.475  -4.666   5.274  1.00  0.00     0.126 HD
HETATM   93  H77 UNL     1       7.099   1.117  -1.538  1.00  0.00     0.163 HD
HETATM   94  H78 UNL     1       9.148   1.581  -1.516  1.00  0.00     0.163 HD
HETATM   95  H79 UNL     1      -4.032   0.211   2.143  1.00  0.00     0.163 HD
HETATM   96  H80 UNL     1      -8.228   0.742   0.133  1.00  0.00     0.163 HD
HETATM   97  H81 UNL     1      -9.439   0.368  -1.545  1.00  0.00     0.163 HD
HETATM   98  H82 UNL     1     -13.552   0.686   0.280  1.00  0.00     0.316 HD
ENDROOT
TORSDOF 38
