REMARK  18 active torsions:
REMARK  status: ('A' for Active; 'I' for Inactive)
REMARK    1  A    between atoms: C4_4  and  C5_5 
REMARK       I    between atoms: C5_5  and  N3_47 
REMARK    2  A    between atoms: C6_6  and  N3_47 
REMARK    3  A    between atoms: C8_8  and  C10_10 
REMARK       I    between atoms: C10_10  and  N5_49 
REMARK    4  A    between atoms: C11_11  and  N5_49 
REMARK    5  A    between atoms: C13_13  and  C15_15 
REMARK       I    between atoms: C15_15  and  N7_51 
REMARK    6  A    between atoms: C16_16  and  C17_17 
REMARK    7  A    between atoms: C16_16  and  N7_51 
REMARK    8  A    between atoms: C17_17  and  C18_18 
REMARK       I    between atoms: C18_18  and  N8_52 
REMARK    9  A    between atoms: C19_19  and  N8_52 
REMARK   10  A    between atoms: C21_21  and  C23_23 
REMARK       I    between atoms: C23_23  and  N10_54 
REMARK   11  A    between atoms: C24_24  and  N10_54 
REMARK   12  A    between atoms: C26_26  and  C28_28 
REMARK       I    between atoms: C28_28  and  N12_56 
REMARK   13  A    between atoms: C29_29  and  N12_56 
REMARK   14  A    between atoms: C32_32  and  C34_34 
REMARK       I    between atoms: C34_34  and  N14_58 
REMARK   15  A    between atoms: C35_35  and  C36_36 
REMARK   16  A    between atoms: C35_35  and  N14_58 
REMARK   17  A    between atoms: C36_36  and  C37_37 
REMARK   18  A    between atoms: C37_37  and  N15_59 
ROOT
HETATM    1  C18 UNL     1      -3.325  -5.649   1.605  1.00  0.00     0.223 C 
HETATM    2  N8  UNL     1      -2.052  -5.418   1.104  1.00  0.00    -0.326 N 
HETATM    3  O4  UNL     1      -3.945  -4.928   2.381  1.00  0.00    -0.273 OA
HETATM    4  H49 UNL     1      -1.666  -6.090   0.454  1.00  0.00     0.169 HD
ENDROOT
BRANCH   2   5
HETATM    5  C19 UNL     1      -1.270  -4.313   1.380  1.00  0.00     0.052 A 
HETATM    6  C20 UNL     1      -1.549  -3.263   2.216  1.00  0.00     0.120 A 
HETATM    7  N9  UNL     1      -0.490  -2.392   2.192  1.00  0.00    -0.354 N 
HETATM    8  C21 UNL     1       0.488  -2.848   1.324  1.00  0.00     0.105 A 
HETATM    9  C41 UNL     1      -0.446  -1.165   2.960  1.00  0.00     0.156 C 
HETATM   10  C22 UNL     1       0.011  -4.060   0.828  1.00  0.00     0.066 A 
BRANCH   8  11
HETATM   11  C23 UNL     1       1.743  -2.152   1.055  1.00  0.00     0.273 C 
HETATM   12  N10 UNL     1       2.401  -2.594  -0.080  1.00  0.00    -0.320 N 
HETATM   13  H50 UNL     1       1.948  -3.284  -0.662  1.00  0.00     0.169 HD
HETATM   14  O5  UNL     1       2.156  -1.242   1.771  1.00  0.00    -0.266 OA
BRANCH  12  15
HETATM   15  C24 UNL     1       3.612  -2.112  -0.537  1.00  0.00     0.053 A 
HETATM   16  C25 UNL     1       4.199  -2.538  -1.703  1.00  0.00     0.120 A 
HETATM   17  N11 UNL     1       5.386  -1.865  -1.860  1.00  0.00    -0.354 N 
HETATM   18  C26 UNL     1       5.582  -0.984  -0.809  1.00  0.00     0.105 A 
HETATM   19  C40 UNL     1       6.277  -2.062  -2.987  1.00  0.00     0.156 C 
HETATM   20  C27 UNL     1       4.483  -1.154   0.029  1.00  0.00     0.066 A 
BRANCH  18  21
HETATM   21  C28 UNL     1       6.734  -0.104  -0.665  1.00  0.00     0.273 C 
HETATM   22  N12 UNL     1       6.609   0.854   0.334  1.00  0.00    -0.320 N 
HETATM   23  H51 UNL     1       5.710   0.875   0.801  1.00  0.00     0.169 HD
HETATM   24  O6  UNL     1       7.730  -0.184  -1.379  1.00  0.00    -0.266 OA
BRANCH  22  25
HETATM   25  C29 UNL     1       7.539   1.783   0.712  1.00  0.00     0.053 A 
HETATM   26  C30 UNL     1       7.355   2.730   1.655  1.00  0.00     0.125 A 
HETATM   27  N13 UNL     1       8.583   3.536   1.768  1.00  0.00    -0.336 N 
HETATM   28  C31 UNL     1       8.749   4.540   2.536  1.00  0.00     0.128 C 
HETATM   29  C32 UNL     1       9.520   2.943   0.784  1.00  0.00     0.108 A 
HETATM   30  C33 UNL     1       8.899   1.910   0.178  1.00  0.00     0.066 A 
BRANCH  29  31
HETATM   31  C34 UNL     1      10.926   3.387   0.590  1.00  0.00     0.268 C 
HETATM   32  N14 UNL     1      11.552   2.968  -0.558  1.00  0.00    -0.356 N 
HETATM   33  H52 UNL     1      11.090   2.387  -1.246  1.00  0.00     0.162 HD
HETATM   34  O7  UNL     1      11.453   4.108   1.431  1.00  0.00    -0.266 OA
BRANCH  32  35
HETATM   35  C35 UNL     1      12.922   3.361  -0.866  1.00  0.00     0.125 C 
BRANCH  35  36
HETATM   36  C36 UNL     1      13.937   2.486  -0.135  1.00  0.00     0.050 C 
BRANCH  36  37
HETATM   37  C37 UNL     1      15.381   2.773  -0.569  1.00  0.00     0.273 C 
BRANCH  37  38
HETATM   38  N15 UNL     1      15.777   4.182  -0.434  1.00  0.00     0.080 N 
HETATM   39  C38 UNL     1      17.067   4.408  -1.097  1.00  0.00     0.309 C 
HETATM   40  C39 UNL     1      15.875   4.592   0.971  1.00  0.00     0.309 C 
ENDBRANCH  37  38
ENDBRANCH  36  37
ENDBRANCH  35  36
ENDBRANCH  32  35
ENDBRANCH  29  31
ENDBRANCH  22  25
ENDBRANCH  18  21
ENDBRANCH  12  15
ENDBRANCH   8  11
ENDBRANCH   2   5
BRANCH   1  41
HETATM   41  C17 UNL     1      -3.899  -6.953   1.078  1.00  0.00     0.123 C 
BRANCH  41  42
HETATM   42  C16 UNL     1      -5.365  -7.132   1.455  1.00  0.00     0.132 C 
BRANCH  42  43
HETATM   43  N7  UNL     1      -6.226  -6.146   0.831  1.00  0.00    -0.355 N 
HETATM   44  C15 UNL     1      -6.582  -6.220  -0.498  1.00  0.00     0.268 C 
HETATM   45  O3  UNL     1      -6.257  -7.182  -1.191  1.00  0.00    -0.266 OA
HETATM   46  H48 UNL     1      -6.302  -5.255   1.304  1.00  0.00     0.162 HD
BRANCH  44  47
HETATM   47  C13 UNL     1      -7.315  -5.071  -1.005  1.00  0.00     0.104 A 
HETATM   48  C14 UNL     1      -7.864  -3.989  -0.322  1.00  0.00     0.066 A 
HETATM   49  C11 UNL     1      -8.465  -3.111  -1.257  1.00  0.00     0.053 A 
HETATM   50  C12 UNL     1      -8.293  -3.677  -2.494  1.00  0.00     0.120 A 
HETATM   51  N6  UNL     1      -7.616  -4.860  -2.340  1.00  0.00    -0.354 N 
HETATM   52  C42 UNL     1      -7.271  -5.737  -3.440  1.00  0.00     0.156 C 
BRANCH  49  53
HETATM   53  N5  UNL     1      -9.106  -1.929  -0.940  1.00  0.00    -0.320 N 
HETATM   54  C10 UNL     1      -9.612  -1.013  -1.843  1.00  0.00     0.273 C 
HETATM   55  O2  UNL     1      -9.476  -1.059  -3.060  1.00  0.00    -0.266 OA
HETATM   56  H47 UNL     1      -9.129  -1.681   0.039  1.00  0.00     0.169 HD
BRANCH  54  57
HETATM   57  C8  UNL     1     -10.294   0.093  -1.193  1.00  0.00     0.105 A 
HETATM   58  C9  UNL     1     -10.131   1.444  -1.466  1.00  0.00     0.066 A 
HETATM   59  C6  UNL     1     -10.963   2.184  -0.593  1.00  0.00     0.053 A 
HETATM   60  C7  UNL     1     -11.648   1.270   0.170  1.00  0.00     0.120 A 
HETATM   61  N4  UNL     1     -11.278   0.010  -0.228  1.00  0.00    -0.354 N 
HETATM   62  C43 UNL     1     -11.913  -1.201   0.248  1.00  0.00     0.156 C 
BRANCH  59  63
HETATM   63  N3  UNL     1     -11.047   3.559  -0.555  1.00  0.00    -0.319 N 
HETATM   64  C5  UNL     1     -11.850   4.318   0.275  1.00  0.00     0.290 C 
HETATM   65  O1  UNL     1     -12.613   3.880   1.132  1.00  0.00    -0.264 OA
HETATM   66  H46 UNL     1     -10.478   4.090  -1.208  1.00  0.00     0.169 HD
BRANCH  64  67
HETATM   67  C4  UNL     1     -11.683   5.744   0.014  1.00  0.00     0.176 A 
HETATM   68  N1  UNL     1     -12.350   6.780   0.627  1.00  0.00    -0.342 N 
HETATM   69  C1  UNL     1     -13.356   6.660   1.654  1.00  0.00     0.157 C 
HETATM   70  C2  UNL     1     -11.897   7.952   0.086  1.00  0.00     0.109 A 
HETATM   71  C3  UNL     1     -10.962   7.580  -0.848  1.00  0.00     0.107 A 
HETATM   72  N2  UNL     1     -10.831   6.216  -0.888  1.00  0.00    -0.346 N 
ATOM     73  H2  UNL     1     -10.207   5.675  -1.487  1.00  0.00     0.167 HD
ENDBRANCH  64  67
ENDBRANCH  59  63
ENDBRANCH  54  57
ENDBRANCH  49  53
ENDBRANCH  44  47
ENDBRANCH  42  43
ENDBRANCH  41  42
ENDBRANCH   1  41
TORSDOF 18
