REMARK  0 active torsions:
REMARK  status: ('A' for Active; 'I' for Inactive)
REMARK       I    between atoms: C4_4  and  C5_5 
REMARK       I    between atoms: C5_5  and  N3_63 
REMARK       I    between atoms: C6_6  and  N3_63 
REMARK       I    between atoms: C8_8  and  C9_9 
REMARK       I    between atoms: C9_9  and  N6_67 
REMARK       I    between atoms: C10_10  and  N6_67 
REMARK       I    between atoms: C12_12  and  C13_13 
REMARK       I    between atoms: C13_13  and  N9_71 
REMARK       I    between atoms: C14_14  and  C15_15 
REMARK       I    between atoms: C14_14  and  N9_71 
REMARK       I    between atoms: C15_15  and  C16_16 
REMARK       I    between atoms: C16_16  and  C17_17 
REMARK       I    between atoms: C17_17  and  N10_72 
REMARK       I    between atoms: C18_18  and  N10_72 
REMARK       I    between atoms: C20_20  and  C22_22 
REMARK       I    between atoms: C22_22  and  N12_74 
REMARK       I    between atoms: C23_23  and  N12_74 
REMARK       I    between atoms: C25_25  and  C27_27 
REMARK       I    between atoms: C27_27  and  N14_76 
REMARK       I    between atoms: C28_28  and  N14_76 
REMARK       I    between atoms: C30_30  and  C32_32 
REMARK       I    between atoms: C32_32  and  N16_78 
REMARK       I    between atoms: C33_33  and  C34_34 
REMARK       I    between atoms: C33_33  and  N16_78 
REMARK       I    between atoms: C34_34  and  C35_35 
REMARK       I    between atoms: C35_35  and  N17_79 
REMARK       I    between atoms: C36_36  and  C37_37 
REMARK       I    between atoms: C36_36  and  N17_79 
REMARK       I    between atoms: C37_37  and  C38_38 
REMARK       I    between atoms: C38_38  and  N18_80 
REMARK       I    between atoms: C40_40  and  C41_41 
REMARK       I    between atoms: C40_40  and  N18_80 
REMARK       I    between atoms: C41_41  and  C42_42 
REMARK       I    between atoms: C42_42  and  N19_81 
REMARK       I    between atoms: C43_43  and  C44_44 
REMARK       I    between atoms: C43_43  and  N19_81 
REMARK       I    between atoms: C44_44  and  N20_82 
REMARK       I    between atoms: C46_46  and  C47_47 
REMARK       I    between atoms: C46_46  and  N20_82 
REMARK       I    between atoms: C47_47  and  N21_83 
REMARK       I    between atoms: C48_48  and  C49_49 
REMARK       I    between atoms: C48_48  and  N21_83 
REMARK       I    between atoms: C49_49  and  C50_50 
REMARK       I    between atoms: C50_50  and  O11_94 
REMARK       I    between atoms: C51_51  and  C52_52 
REMARK       I    between atoms: C51_51  and  N21_83 
REMARK       I    between atoms: C52_52  and  O13_96 
REMARK       I    between atoms: C53_53  and  C54_54 
REMARK       I    between atoms: C53_53  and  N20_82 
REMARK       I    between atoms: C54_54  and  O15_98 
ROOT
HETATM    1  C1  UNL     1      24.976   0.589   1.688  1.00  0.00     0.157 C 
HETATM    2  C2  UNL     1      25.375  -1.717   0.806  1.00  0.00     0.109 A 
HETATM    3  C3  UNL     1      24.570  -2.633   0.174  1.00  0.00     0.107 A 
HETATM    4  C4  UNL     1      23.318  -0.923   0.550  1.00  0.00     0.176 A 
HETATM    5  C5  UNL     1      22.144  -0.057   0.581  1.00  0.00     0.291 C 
HETATM    6  C6  UNL     1      19.808  -0.129  -0.146  1.00  0.00     0.125 A 
HETATM    7  C7  UNL     1      19.322   1.093   0.243  1.00  0.00     0.140 A 
HETATM    8  C8  UNL     1      17.746  -0.107  -0.754  1.00  0.00     0.178 A 
HETATM    9  C9  UNL     1      16.474  -0.541  -1.324  1.00  0.00     0.291 C 
HETATM   10  C10 UNL     1      15.581  -2.495  -2.482  1.00  0.00     0.125 A 
HETATM   11  C11 UNL     1      15.709  -3.755  -3.014  1.00  0.00     0.140 A 
HETATM   12  C12 UNL     1      13.652  -2.975  -3.294  1.00  0.00     0.178 A 
HETATM   13  C13 UNL     1      12.252  -2.843  -3.664  1.00  0.00     0.285 C 
HETATM   14  C14 UNL     1      10.354  -1.237  -3.529  1.00  0.00     0.123 C 
HETATM   15  C15 UNL     1       9.450  -1.804  -2.434  1.00  0.00     0.029 C 
HETATM   16  C16 UNL     1       8.092  -1.110  -2.361  1.00  0.00     0.105 C 
HETATM   17  C17 UNL     1       7.187  -1.371  -3.554  1.00  0.00     0.222 C 
HETATM   18  C18 UNL     1       4.953  -0.706  -4.348  1.00  0.00     0.052 A 
HETATM   19  C19 UNL     1       4.924  -1.314  -5.577  1.00  0.00     0.120 A 
HETATM   20  C20 UNL     1       2.937  -0.267  -5.333  1.00  0.00     0.105 A 
HETATM   21  C21 UNL     1       3.709  -0.044  -4.196  1.00  0.00     0.066 A 
HETATM   22  C22 UNL     1       1.591   0.198  -5.659  1.00  0.00     0.273 C 
HETATM   23  C23 UNL     1      -0.456   1.017  -4.557  1.00  0.00     0.053 A 
HETATM   24  C24 UNL     1      -1.211   1.392  -5.639  1.00  0.00     0.120 A 
HETATM   25  C25 UNL     1      -2.487   1.758  -3.809  1.00  0.00     0.105 A 
HETATM   26  C26 UNL     1      -1.252   1.256  -3.407  1.00  0.00     0.066 A 
HETATM   27  C27 UNL     1      -3.644   2.148  -3.010  1.00  0.00     0.273 C 
HETATM   28  C28 UNL     1      -4.653   1.754  -0.799  1.00  0.00     0.053 A 
HETATM   29  C29 UNL     1      -5.669   2.676  -0.803  1.00  0.00     0.120 A 
HETATM   30  C30 UNL     1      -5.894   1.482   1.100  1.00  0.00     0.104 A 
HETATM   31  C31 UNL     1      -4.775   1.025   0.411  1.00  0.00     0.066 A 
HETATM   32  C32 UNL     1      -6.487   0.994   2.331  1.00  0.00     0.268 C 
HETATM   33  C33 UNL     1      -6.042  -0.406   4.346  1.00  0.00     0.132 C 
HETATM   34  C34 UNL     1      -6.561   0.487   5.472  1.00  0.00     0.122 C 
HETATM   35  C35 UNL     1      -8.064   0.399   5.658  1.00  0.00     0.219 C 
HETATM   36  C36 UNL     1      -9.947   1.256   6.963  1.00  0.00     0.124 C 
HETATM   37  C37 UNL     1     -10.385   2.477   7.763  1.00  0.00     0.050 C 
HETATM   38  C38 UNL     1     -11.913   2.517   7.941  1.00  0.00     0.273 C 
HETATM   39  C39 UNL     1     -12.546   3.995   6.130  1.00  0.00     0.309 C 
HETATM   40  C40 UNL     1     -14.059   2.254   6.793  1.00  0.00     0.273 C 
HETATM   41  C41 UNL     1     -14.339   0.761   7.048  1.00  0.00     0.050 C 
HETATM   42  C42 UNL     1     -13.453  -0.251   6.316  1.00  0.00     0.124 C 
HETATM   43  C43 UNL     1     -12.328  -0.656   4.167  1.00  0.00     0.243 C 
HETATM   44  C44 UNL     1     -11.544   0.043   3.045  1.00  0.00     0.339 C 
HETATM   45  C45 UNL     1      -9.831  -1.681   2.440  1.00  0.00     0.273 C 
HETATM   46  C46 UNL     1     -10.477   0.127   0.800  1.00  0.00     0.257 C 
HETATM   47  C47 UNL     1      -9.656  -0.504  -0.354  1.00  0.00     0.145 C 
HETATM   48  C48 UNL     1     -10.121   1.269  -2.089  1.00  0.00     0.128 C 
HETATM   49  C49 UNL     1     -11.193   0.544  -2.908  1.00  0.00     0.129 C 
HETATM   50  C50 UNL     1     -12.360   0.135  -2.064  1.00  0.00     0.140 C 
HETATM   51  C51 UNL     1      -7.982   0.019  -2.094  1.00  0.00     0.227 C 
HETATM   52  C52 UNL     1      -8.282  -1.112  -3.058  1.00  0.00     0.157 C 
HETATM   53  C53 UNL     1     -12.076  -1.837   1.335  1.00  0.00     0.346 C 
HETATM   54  C54 UNL     1     -13.456  -1.253   1.039  1.00  0.00     0.166 C 
HETATM   55  C55 UNL     1      -7.531   3.359   0.692  1.00  0.00     0.156 C 
HETATM   56  C56 UNL     1      -3.466   2.354  -6.060  1.00  0.00     0.156 C 
HETATM   57  C57 UNL     1       3.355  -1.496  -7.499  1.00  0.00     0.156 C 
HETATM   58  C58 UNL     1      14.108  -5.273  -4.200  1.00  0.00     0.157 C 
HETATM   59  C59 UNL     1      17.082   2.184   0.044  1.00  0.00     0.157 C 
HETATM   60  N1  UNL     1      24.571  -0.636   1.040  1.00  0.00    -0.342 N 
HETATM   61  N2  UNL     1      23.302  -2.139   0.018  1.00  0.00    -0.346 N 
ATOM     62  H2  UNL     1      22.508  -2.609  -0.418  1.00  0.00     0.167 HD
HETATM   63  N3  UNL     1      21.056  -0.661  -0.006  1.00  0.00    -0.305 N 
HETATM   64  N4  UNL     1      18.012   1.098  -0.148  1.00  0.00    -0.339 N 
HETATM   65  N5  UNL     1      18.835  -0.868  -0.760  1.00  0.00    -0.323 N 
ATOM     66  H5  UNL     1      18.926  -1.809  -1.143  1.00  0.00     0.169 HD
HETATM   67  N6  UNL     1      16.584  -1.805  -1.863  1.00  0.00    -0.305 N 
HETATM   68  N7  UNL     1      14.475  -4.051  -3.527  1.00  0.00    -0.339 N 
HETATM   69  N8  UNL     1      14.317  -2.022  -2.656  1.00  0.00    -0.323 N 
ATOM     70  H8  UNL     1      13.954  -1.117  -2.356  1.00  0.00     0.169 HD
HETATM   71  N9  UNL     1      11.733  -1.614  -3.323  1.00  0.00    -0.354 N 
HETATM   72  N10 UNL     1       5.978  -0.703  -3.421  1.00  0.00    -0.326 N 
HETATM   73  N11 UNL     1       3.725  -1.030  -6.177  1.00  0.00    -0.354 N 
HETATM   74  N12 UNL     1       0.833   0.518  -4.544  1.00  0.00    -0.320 N 
HETATM   75  N13 UNL     1      -2.419   1.858  -5.188  1.00  0.00    -0.354 N 
HETATM   76  N14 UNL     1      -3.684   1.546  -1.763  1.00  0.00    -0.320 N 
HETATM   77  N15 UNL     1      -6.405   2.520   0.341  1.00  0.00    -0.354 N 
HETATM   78  N16 UNL     1      -5.620   0.319   3.159  1.00  0.00    -0.355 N 
HETATM   79  N17 UNL     1      -8.547   1.290   6.600  1.00  0.00    -0.361 N 
HETATM   80  N18 UNL     1     -12.632   2.620   6.652  1.00  0.00     0.084 N 
HETATM   81  N19 UNL     1     -12.947   0.217   5.041  1.00  0.00    -0.360 N 
HETATM   82  N20 UNL     1     -10.983  -0.854   1.879  1.00  0.00    -0.052 N 
HETATM   83  N21 UNL     1      -9.146   0.490  -1.308  1.00  0.00    -0.401 N 
HETATM   84  O1  UNL     1      22.153   1.067   1.077  1.00  0.00    -0.264 OA
HETATM   85  O2  UNL     1      15.467   0.159  -1.303  1.00  0.00    -0.264 OA
HETATM   86  O3  UNL     1      11.597  -3.725  -4.211  1.00  0.00    -0.264 OA
HETATM   87  O4  UNL     1       7.521  -2.089  -4.488  1.00  0.00    -0.273 OA
HETATM   88  O5  UNL     1       1.187   0.257  -6.816  1.00  0.00    -0.266 OA
HETATM   89  O6  UNL     1      -4.509   2.904  -3.441  1.00  0.00    -0.266 OA
HETATM   90  O7  UNL     1      -7.672   1.151   2.613  1.00  0.00    -0.266 OA
HETATM   91  O8  UNL     1      -8.792  -0.391   5.063  1.00  0.00    -0.274 OA
HETATM   92  O9  UNL     1     -12.422  -1.877   4.259  1.00  0.00    -0.272 OA
HETATM   93  O10 UNL     1     -12.610  -1.006  -1.706  1.00  0.00    -0.650 OA
HETATM   94  O11 UNL     1     -13.082   1.178  -1.617  1.00  0.00    -0.776 OA
HETATM   95  O12 UNL     1      -8.481  -1.008  -4.257  1.00  0.00    -0.649 OA
HETATM   96  O13 UNL     1      -8.354  -2.321  -2.459  1.00  0.00    -0.775 OA
HETATM   97  O14 UNL     1     -13.727  -0.076   0.838  1.00  0.00    -0.649 OA
HETATM   98  O15 UNL     1     -14.411  -2.203   0.984  1.00  0.00    -0.775 OA
HETATM   99  H71 UNL     1      21.195  -1.596  -0.375  1.00  0.00     0.170 HD
HETATM  100  H72 UNL     1      17.496  -2.241  -1.789  1.00  0.00     0.170 HD
HETATM  101  H73 UNL     1      12.377  -0.991  -2.836  1.00  0.00     0.162 HD
HETATM  102  H74 UNL     1       5.820  -0.163  -2.581  1.00  0.00     0.169 HD
HETATM  103  H75 UNL     1       1.227   0.321  -3.638  1.00  0.00     0.169 HD
HETATM  104  H76 UNL     1      -2.998   0.834  -1.565  1.00  0.00     0.169 HD
HETATM  105  H77 UNL     1      -4.643   0.279   2.902  1.00  0.00     0.162 HD
HETATM  106  H78 UNL     1      -7.888   1.712   7.244  1.00  0.00     0.162 HD
HETATM  107  H79 UNL     1     -12.591   1.171   5.081  1.00  0.00     0.162 HD
HETATM  108  H80 UNL     1     -13.737   0.812  -0.978  1.00  0.00     0.167 HD
HETATM  109  H81 UNL     1      -8.535  -2.933  -3.206  1.00  0.00     0.167 HD
HETATM  110  H82 UNL     1     -15.258  -1.759   0.764  1.00  0.00     0.167 HD
ENDROOT
TORSDOF 41
