REMARK  8 active torsions:
REMARK  status: ('A' for Active; 'I' for Inactive)
REMARK    1  A    between atoms: C6_6  and  C7_7 
REMARK       I    between atoms: C7_7  and  N1_27 
REMARK    2  A    between atoms: C8_8  and  N1_27 
REMARK    3  A    between atoms: C8_8  and  N2_28 
REMARK       I    between atoms: C9_9  and  N3_30 
REMARK       I    between atoms: C9_9  and  N4_31 
REMARK    4  A    between atoms: C11_11  and  C12_12 
REMARK       I    between atoms: C12_12  and  N6_33 
REMARK    5  A    between atoms: C13_13  and  N6_33 
REMARK    6  A    between atoms: C20_20  and  C21_21 
REMARK       I    between atoms: C21_21  and  N8_35 
REMARK    7  A    between atoms: C22_22  and  N8_35 
REMARK    8  A    between atoms: C22_22  and  N9_36 
REMARK       I    between atoms: C23_23  and  N10_38 
REMARK       I    between atoms: C23_23  and  N11_39 
ROOT
HETATM    1  C12 UNL     1      -0.103   0.575  -0.612  1.00  0.00     0.272 C 
HETATM    2  O2  UNL     1       0.491   1.299  -1.400  1.00  0.00    -0.266 OA
HETATM    3  N6  UNL     1       0.488  -0.364   0.216  1.00  0.00    -0.322 N 
HETATM    4  H19 UNL     1      -0.127  -1.043   0.637  1.00  0.00     0.169 HD
ENDROOT
BRANCH   1   5
HETATM    5  C11 UNL     1      -1.552   0.610  -0.496  1.00  0.00     0.102 A 
HETATM    6  C10 UNL     1      -2.469   0.989  -1.462  1.00  0.00     0.049 A 
HETATM    7  C4  UNL     1      -3.775   0.879  -0.916  1.00  0.00    -0.006 A 
HETATM    8  C3  UNL     1      -3.630   0.461   0.404  1.00  0.00     0.043 A 
HETATM    9  C5  UNL     1      -5.070   1.107  -1.420  1.00  0.00     0.030 A 
HETATM   10  C2  UNL     1      -4.719   0.266   1.261  1.00  0.00     0.031 A 
HETATM   11  N5  UNL     1      -2.281   0.328   0.639  1.00  0.00    -0.351 N 
HETATM   12  C1  UNL     1      -6.000   0.493   0.742  1.00  0.00     0.019 A 
HETATM   13  C6  UNL     1      -6.180   0.896  -0.586  1.00  0.00     0.033 A 
HETATM   14  H18 UNL     1      -1.883   0.103   1.539  1.00  0.00     0.166 HD
BRANCH  13  15
HETATM   15  C7  UNL     1      -7.535   1.144  -1.153  1.00  0.00     0.252 C 
HETATM   16  O1  UNL     1      -7.685   1.932  -2.080  1.00  0.00    -0.268 OA
HETATM   17  N1  UNL     1      -8.569   0.433  -0.591  1.00  0.00    -0.341 N 
HETATM   18  H13 UNL     1      -8.382  -0.361  -0.001  1.00  0.00     0.164 HD
BRANCH  17  19
HETATM   19  C8  UNL     1      -9.886   0.477  -1.148  1.00  0.00     0.248 C 
BRANCH  19  20
HETATM   20  N2  UNL     1     -10.826  -0.000  -0.153  1.00  0.00    -0.356 N 
HETATM   21  C9  UNL     1     -11.226   0.807   0.754  1.00  0.00     0.123 C 
HETATM   22  N3  UNL     1     -12.138   0.397   1.663  1.00  0.00    -0.279 NA
HETATM   23  N4  UNL     1     -10.865   2.082   1.019  1.00  0.00    -0.279 NA
HETATM   24  H14 UNL     1     -11.889   0.662   2.608  1.00  0.00     0.126 HD
HETATM   25  H15 UNL     1     -12.282  -0.605   1.591  1.00  0.00     0.126 HD
HETATM   26  H16 UNL     1     -10.285   2.520   0.311  1.00  0.00     0.126 HD
HETATM   27  H17 UNL     1     -11.655   2.671   1.257  1.00  0.00     0.126 HD
ATOM     28  H2  UNL     1     -11.162  -0.963  -0.176  1.00  0.00     0.163 HD
ENDBRANCH  19  20
ENDBRANCH  17  19
ENDBRANCH  13  15
ENDBRANCH   1   5
BRANCH   3  29
HETATM   29  C13 UNL     1       1.869  -0.592   0.410  1.00  0.00     0.037 A 
HETATM   30  C14 UNL     1       2.869   0.241  -0.106  1.00  0.00     0.059 A 
HETATM   31  C15 UNL     1       4.206  -0.085   0.167  1.00  0.00     0.045 A 
HETATM   32  C16 UNL     1       4.575  -1.189   0.927  1.00  0.00    -0.007 A 
HETATM   33  N7  UNL     1       5.365   0.545  -0.216  1.00  0.00    -0.351 N 
HETATM   34  C17 UNL     1       3.565  -2.018   1.445  1.00  0.00     0.016 A 
HETATM   35  C19 UNL     1       5.997  -1.200   0.989  1.00  0.00     0.049 A 
HETATM   36  C18 UNL     1       2.223  -1.706   1.181  1.00  0.00     0.030 A 
HETATM   37  C20 UNL     1       6.474  -0.109   0.281  1.00  0.00     0.102 A 
HETATM   38  H20 UNL     1       5.418   1.378  -0.789  1.00  0.00     0.166 HD
BRANCH  37  39
HETATM   39  C21 UNL     1       7.810   0.378   0.007  1.00  0.00     0.269 C 
HETATM   40  O3  UNL     1       8.001   1.362  -0.699  1.00  0.00    -0.266 OA
HETATM   41  N8  UNL     1       8.815  -0.333   0.623  1.00  0.00    -0.340 N 
HETATM   42  H21 UNL     1       8.547  -0.864   1.436  1.00  0.00     0.164 HD
BRANCH  41  43
HETATM   43  C22 UNL     1      10.178   0.131   0.588  1.00  0.00     0.248 C 
BRANCH  43  44
HETATM   44  N9  UNL     1      10.861  -0.143  -0.662  1.00  0.00    -0.356 N 
HETATM   45  C23 UNL     1      10.905  -1.318  -1.153  1.00  0.00     0.123 C 
HETATM   46  N10 UNL     1      10.336  -2.460  -0.709  1.00  0.00    -0.279 NA
HETATM   47  N11 UNL     1      11.594  -1.559  -2.290  1.00  0.00    -0.279 NA
HETATM   48  H22 UNL     1       9.543  -2.249  -0.112  1.00  0.00     0.126 HD
HETATM   49  H23 UNL     1      10.028  -3.033  -1.487  1.00  0.00     0.126 HD
HETATM   50  H24 UNL     1      12.121  -0.731  -2.552  1.00  0.00     0.126 HD
HETATM   51  H25 UNL     1      12.208  -2.359  -2.208  1.00  0.00     0.126 HD
ATOM     52  H9  UNL     1      11.316   0.622  -1.159  1.00  0.00     0.163 HD
ENDBRANCH  43  44
ENDBRANCH  41  43
ENDBRANCH  37  39
ENDBRANCH   3  29
TORSDOF 8
