REMARK  0 active torsions:
REMARK  status: ('A' for Active; 'I' for Inactive)
REMARK       I    between atoms: C3_3  and  C12_12 
REMARK       I    between atoms: C4_4  and  C6_6 
REMARK       I    between atoms: C5_5  and  N3_65 
REMARK       I    between atoms: C6_6  and  C7_7 
REMARK       I    between atoms: C6_6  and  N5_67 
REMARK       I    between atoms: C7_7  and  C8_8 
REMARK       I    between atoms: C8_8  and  N4_66 
REMARK       I    between atoms: C9_9  and  C10_10 
REMARK       I    between atoms: C9_9  and  N5_67 
REMARK       I    between atoms: C10_10  and  C11_11 
REMARK       I    between atoms: C10_10  and  N7_69 
REMARK       I    between atoms: C11_11  and  N6_68 
REMARK       I    between atoms: C12_12  and  N8_70 
REMARK       I    between atoms: C13_13  and  C14_14 
REMARK       I    between atoms: C13_13  and  C31_31 
REMARK       I    between atoms: C13_13  and  N8_70 
REMARK       I    between atoms: C14_14  and  C15_15 
REMARK       I    between atoms: C14_14  and  O4_94 
REMARK       I    between atoms: C18_18  and  O4_94 
REMARK       I    between atoms: C19_19  and  O9_99 
REMARK       I    between atoms: C20_20  and  O8_98 
REMARK       I    between atoms: C21_21  and  O7_97 
REMARK       I    between atoms: C22_22  and  C23_23 
REMARK       I    between atoms: C23_23  and  O6_96 
REMARK       I    between atoms: C24_24  and  O9_99 
REMARK       I    between atoms: C25_25  and  O15_105 
REMARK       I    between atoms: C26_26  and  O13_103 
REMARK       I    between atoms: C27_27  and  O12_102 
REMARK       I    between atoms: C28_28  and  C29_29 
REMARK       I    between atoms: C29_29  and  O11_101 
REMARK       I    between atoms: C30_30  and  N11_74 
REMARK       I    between atoms: C30_30  and  O13_103 
REMARK       I    between atoms: C31_31  and  N12_75 
REMARK       I    between atoms: C32_32  and  C34_34 
REMARK       I    between atoms: C32_32  and  N12_75 
REMARK       I    between atoms: C34_34  and  C35_35 
REMARK       I    between atoms: C34_34  and  O21_111 
REMARK       I    between atoms: C35_35  and  C37_37 
REMARK       I    between atoms: C37_37  and  N13_76 
REMARK       I    between atoms: C38_38  and  C39_39 
REMARK       I    between atoms: C38_38  and  C41_41 
REMARK       I    between atoms: C38_38  and  N13_76 
REMARK       I    between atoms: C39_39  and  O18_108 
REMARK       I    between atoms: C41_41  and  N14_77 
REMARK       I    between atoms: C42_42  and  C43_43 
REMARK       I    between atoms: C42_42  and  N14_77 
REMARK       I    between atoms: C43_43  and  C44_44 
REMARK       I    between atoms: C45_45  and  C47_47 
REMARK       I    between atoms: C48_48  and  C50_50 
REMARK       I    between atoms: C50_50  and  N17_82 
REMARK       I    between atoms: C51_51  and  C52_52 
REMARK       I    between atoms: C51_51  and  N17_82 
REMARK       I    between atoms: C52_52  and  C53_53 
REMARK       I    between atoms: C53_53  and  C54_54 
REMARK       I    between atoms: C54_54  and  N18_83 
REMARK       I    between atoms: C55_55  and  N18_83 
REMARK       I    between atoms: C55_55  and  N19_84 
REMARK       I    between atoms: C55_55  and  N23_90 
REMARK       I    between atoms: C56_56  and  C57_57 
REMARK       I    between atoms: C56_56  and  N19_84 
REMARK       I    between atoms: C57_57  and  C58_58 
REMARK       I    between atoms: C58_58  and  C59_59 
REMARK       I    between atoms: C59_59  and  N20_86 
REMARK       I    between atoms: C60_60  and  N21_88 
REMARK       I    between atoms: C60_60  and  N22_89 
ROOT
HETATM    1  C1  UNL     1       1.063   2.287  -0.325  1.00  0.00     0.054 C 
HETATM    2  C2  UNL     1      -0.009   2.481   0.698  1.00  0.00     0.009 A 
HETATM    3  C3  UNL     1      -1.228   1.833   0.642  1.00  0.00     0.111 A 
HETATM    4  C4  UNL     1      -1.971   2.817   2.578  1.00  0.00     0.117 A 
HETATM    5  C5  UNL     1       0.149   3.271   1.823  1.00  0.00     0.087 A 
HETATM    6  C6  UNL     1      -3.093   3.044   3.592  1.00  0.00     0.296 C 
HETATM    7  C7  UNL     1      -3.690   1.724   4.115  1.00  0.00     0.146 C 
HETATM    8  C8  UNL     1      -4.477   0.926   3.100  1.00  0.00     0.217 C 
HETATM    9  C9  UNL     1      -4.366   4.235   1.792  1.00  0.00     0.315 C 
HETATM   10  C10 UNL     1      -5.549   5.189   1.495  1.00  0.00     0.336 C 
HETATM   11  C11 UNL     1      -5.167   6.662   1.737  1.00  0.00     0.250 C 
HETATM   12  C12 UNL     1      -1.574   0.788  -0.391  1.00  0.00     0.269 C 
HETATM   13  C13 UNL     1      -2.894  -1.323  -0.585  1.00  0.00     0.212 C 
HETATM   14  C14 UNL     1      -4.387  -1.772  -0.598  1.00  0.00     0.207 C 
HETATM   15  C15 UNL     1      -5.377  -0.642  -0.540  1.00  0.00     0.057 A 
HETATM   16  C16 UNL     1      -6.598  -0.524   0.085  1.00  0.00     0.116 A 
HETATM   17  C17 UNL     1      -6.276   1.345  -0.901  1.00  0.00     0.180 A 
HETATM   18  C18 UNL     1      -4.298  -3.768  -1.950  1.00  0.00     0.293 C 
HETATM   19  C19 UNL     1      -5.303  -4.535  -2.846  1.00  0.00     0.211 C 
HETATM   20  C20 UNL     1      -4.766  -5.943  -3.107  1.00  0.00     0.183 C 
HETATM   21  C21 UNL     1      -3.343  -5.888  -3.674  1.00  0.00     0.180 C 
HETATM   22  C22 UNL     1      -2.456  -5.078  -2.720  1.00  0.00     0.179 C 
HETATM   23  C23 UNL     1      -1.027  -4.933  -3.258  1.00  0.00     0.198 C 
HETATM   24  C24 UNL     1      -6.680  -3.108  -4.207  1.00  0.00     0.292 C 
HETATM   25  C25 UNL     1      -7.770  -3.993  -4.850  1.00  0.00     0.205 C 
HETATM   26  C26 UNL     1      -9.067  -3.198  -5.044  1.00  0.00     0.198 C 
HETATM   27  C27 UNL     1      -8.785  -1.867  -5.760  1.00  0.00     0.181 C 
HETATM   28  C28 UNL     1      -7.544  -1.111  -5.233  1.00  0.00     0.179 C 
HETATM   29  C29 UNL     1      -7.780  -0.187  -4.024  1.00  0.00     0.198 C 
HETATM   30  C30 UNL     1     -10.943  -2.614  -3.716  1.00  0.00     0.358 C 
HETATM   31  C31 UNL     1      -2.101  -2.307   0.301  1.00  0.00     0.243 C 
HETATM   32  C32 UNL     1      -1.480  -2.959   2.613  1.00  0.00     0.110 C 
HETATM   33  C33 UNL     1      -2.238  -4.274   2.823  1.00  0.00     0.035 C 
HETATM   34  C34 UNL     1      -1.202  -2.233   3.963  1.00  0.00     0.153 C 
HETATM   35  C35 UNL     1      -0.492  -0.873   3.823  1.00  0.00     0.104 C 
HETATM   36  C36 UNL     1      -0.108  -0.281   5.183  1.00  0.00     0.022 C 
HETATM   37  C37 UNL     1       0.717  -0.938   2.910  1.00  0.00     0.224 C 
HETATM   38  C38 UNL     1       2.852  -2.058   2.447  1.00  0.00     0.205 C 
HETATM   39  C39 UNL     1       4.238  -2.165   3.117  1.00  0.00     0.146 C 
HETATM   40  C40 UNL     1       4.322  -3.187   4.248  1.00  0.00     0.042 C 
HETATM   41  C41 UNL     1       2.422  -3.408   1.838  1.00  0.00     0.243 C 
HETATM   42  C42 UNL     1       2.577  -4.820  -0.201  1.00  0.00     0.129 C 
HETATM   43  C43 UNL     1       3.765  -5.772   0.007  1.00  0.00     0.084 C 
HETATM   44  C44 UNL     1       5.062  -5.123  -0.390  1.00  0.00     0.052 A 
HETATM   45  C45 UNL     1       6.601  -3.535  -0.586  1.00  0.00     0.073 A 
HETATM   46  C46 UNL     1       7.251  -4.541  -1.265  1.00  0.00     0.083 A 
HETATM   47  C47 UNL     1       7.130  -2.066  -0.364  1.00  0.00     0.102 A 
HETATM   48  C48 UNL     1       7.014   0.044   0.359  1.00  0.00     0.108 A 
HETATM   49  C49 UNL     1       8.261   0.067  -0.247  1.00  0.00     0.087 A 
HETATM   50  C50 UNL     1       6.341   1.156   1.049  1.00  0.00     0.268 C 
HETATM   51  C51 UNL     1       6.219   3.614   1.306  1.00  0.00     0.123 C 
HETATM   52  C52 UNL     1       5.021   4.027   0.456  1.00  0.00     0.021 C 
HETATM   53  C53 UNL     1       4.475   5.409   0.825  1.00  0.00     0.021 C 
HETATM   54  C54 UNL     1       5.405   6.572   0.470  1.00  0.00     0.122 C 
HETATM   55  C55 UNL     1       6.713   6.396  -1.630  1.00  0.00     0.146 C 
HETATM   56  C56 UNL     1       8.943   5.680  -1.900  1.00  0.00     0.122 C 
HETATM   57  C57 UNL     1      10.146   5.335  -1.021  1.00  0.00     0.021 C 
HETATM   58  C58 UNL     1       9.922   4.070  -0.188  1.00  0.00     0.021 C 
HETATM   59  C59 UNL     1      11.199   3.579   0.490  1.00  0.00     0.121 C 
HETATM   60  C60 UNL     1      13.205   2.541  -0.161  1.00  0.00     0.121 C 
HETATM   61  N1  UNL     1      -2.223   2.008   1.548  1.00  0.00    -0.339 N 
ATOM     62  H1  UNL     1      -3.124   1.541   1.446  1.00  0.00     0.167 HD
HETATM   63  N2  UNL     1      -0.811   3.467   2.746  1.00  0.00    -0.335 N 
ATOM     64  H2  UNL     1      -0.661   4.086   3.543  1.00  0.00     0.168 HD
HETATM   65  N3  UNL     1       1.344   3.945   2.086  1.00  0.00    -0.288 NA
HETATM   66  N4  UNL     1      -5.757   1.360   2.910  1.00  0.00    -0.370 N 
HETATM   67  N5  UNL     1      -4.143   4.063   3.251  1.00  0.00     0.098 N 
HETATM   68  N6  UNL     1      -6.238   7.516   1.725  1.00  0.00    -0.368 N 
HETATM   69  N7  UNL     1      -6.746   4.863   2.322  1.00  0.00     0.093 N 
HETATM   70  N8  UNL     1      -2.672   0.022  -0.037  1.00  0.00    -0.340 N 
HETATM   71  N9  UNL     1      -7.146   0.717  -0.139  1.00  0.00    -0.360 N 
ATOM     72  H9  UNL     1      -8.035   1.074   0.210  1.00  0.00     0.166 HD
HETATM   73  N10 UNL     1      -5.210   0.549  -1.205  1.00  0.00    -0.352 N 
HETATM   74  N11 UNL     1     -11.328  -2.397  -2.439  1.00  0.00    -0.346 N 
HETATM   75  N12 UNL     1      -2.207  -2.116   1.670  1.00  0.00    -0.352 N 
HETATM   76  N13 UNL     1       1.785  -1.667   3.374  1.00  0.00    -0.345 N 
HETATM   77  N14 UNL     1       2.734  -3.562   0.512  1.00  0.00    -0.359 N 
HETATM   78  N15 UNL     1       5.368  -3.884  -0.074  1.00  0.00    -0.351 N 
ATOM     79  H15 UNL     1       4.774  -3.264   0.476  1.00  0.00     0.166 HD
HETATM   80  N16 UNL     1       6.389  -1.197   0.290  1.00  0.00    -0.344 N 
ATOM     81  H16 UNL     1       5.476  -1.406   0.694  1.00  0.00     0.167 HD
HETATM   82  N17 UNL     1       6.846   2.414   0.791  1.00  0.00    -0.356 N 
HETATM   83  N18 UNL     1       5.555   6.671  -0.970  1.00  0.00    -0.367 N 
HETATM   84  N19 UNL     1       7.762   5.914  -1.071  1.00  0.00    -0.367 N 
ATOM     85  H19 UNL     1       7.772   5.700  -0.074  1.00  0.00     0.162 HD
HETATM   86  N20 UNL     1      12.043   2.937  -0.515  1.00  0.00    -0.372 N 
ATOM     87  H20 UNL     1      11.714   2.809  -1.472  1.00  0.00     0.161 HD
HETATM   88  N21 UNL     1      14.024   1.964  -1.066  1.00  0.00    -0.279 NA
HETATM   89  N22 UNL     1      13.817   2.604   1.042  1.00  0.00    -0.279 NA
HETATM   90  N23 UNL     1       6.531   6.698  -2.941  1.00  0.00    -0.274 NA
HETATM   91  O1  UNL     1      -4.031  -0.045   2.493  1.00  0.00    -0.274 OA
HETATM   92  O2  UNL     1      -4.025   7.075   1.899  1.00  0.00    -0.271 OA
HETATM   93  O3  UNL     1      -0.964   0.632  -1.438  1.00  0.00    -0.266 OA
HETATM   94  O4  UNL     1      -4.777  -2.433  -1.801  1.00  0.00    -0.345 OA
HETATM   95  O5  UNL     1      -2.996  -3.755  -2.527  1.00  0.00    -0.348 OA
HETATM   96  O6  UNL     1      -0.129  -4.506  -2.229  1.00  0.00    -0.398 OA
HETATM   97  O7  UNL     1      -2.865  -7.231  -3.817  1.00  0.00    -0.390 OA
HETATM   98  O8  UNL     1      -5.592  -6.703  -4.006  1.00  0.00    -0.390 OA
HETATM   99  O9  UNL     1      -5.473  -3.880  -4.120  1.00  0.00    -0.346 OA
HETATM  100  O10 UNL     1      -6.418  -1.974  -5.029  1.00  0.00    -0.348 OA
HETATM  101  O11 UNL     1      -8.355  -0.836  -2.900  1.00  0.00    -0.398 OA
HETATM  102  O12 UNL     1      -8.566  -2.198  -7.147  1.00  0.00    -0.390 OA
HETATM  103  O13 UNL     1      -9.659  -3.030  -3.737  1.00  0.00    -0.293 OA
HETATM  104  O14 UNL     1     -11.661  -2.424  -4.682  1.00  0.00    -0.239 OA
HETATM  105  O15 UNL     1      -8.022  -5.175  -4.054  1.00  0.00    -0.388 OA
HETATM  106  O16 UNL     1      -1.514  -3.280  -0.172  1.00  0.00    -0.271 OA
HETATM  107  O17 UNL     1       0.713  -0.376   1.818  1.00  0.00    -0.273 OA
HETATM  108  O18 UNL     1       4.624  -0.901   3.678  1.00  0.00    -0.393 OA
HETATM  109  O19 UNL     1       1.851  -4.274   2.505  1.00  0.00    -0.271 OA
HETATM  110  O20 UNL     1       5.376   0.970   1.789  1.00  0.00    -0.266 OA
HETATM  111  O21 UNL     1      -2.431  -2.000   4.675  1.00  0.00    -0.393 OA
HETATM  112  S1  UNL     1       6.270  -5.958  -1.280  1.00  0.00    -0.086 SA
HETATM  113  S2  UNL     1       8.630  -1.469  -0.926  1.00  0.00    -0.080 SA
HETATM  114  H64 UNL     1       1.237   4.405   2.986  1.00  0.00     0.125 HD
HETATM  115  H65 UNL     1       2.123   3.290   2.100  1.00  0.00     0.125 HD
HETATM  116  H66 UNL     1      -6.271   0.970   2.126  1.00  0.00     0.159 HD
HETATM  117  H67 UNL     1      -5.993   2.305   3.185  1.00  0.00     0.159 HD
HETATM  118  H68 UNL     1      -3.766   4.966   3.567  1.00  0.00     0.317 HD
HETATM  119  H69 UNL     1      -6.063   8.462   2.033  1.00  0.00     0.159 HD
HETATM  120  H70 UNL     1      -7.132   7.095   1.964  1.00  0.00     0.159 HD
HETATM  121  H71 UNL     1      -7.084   3.945   2.035  1.00  0.00     0.314 HD
HETATM  122  H72 UNL     1      -6.391   4.730   3.276  1.00  0.00     0.314 HD
HETATM  123  H73 UNL     1      -3.038   0.213   0.899  1.00  0.00     0.163 HD
HETATM  124  H74 UNL     1      -4.402   0.802  -1.763  1.00  0.00     0.166 HD
HETATM  125  H75 UNL     1     -12.189  -1.886  -2.312  1.00  0.00     0.161 HD
HETATM  126  H76 UNL     1     -10.586  -2.265  -1.766  1.00  0.00     0.161 HD
HETATM  127  H77 UNL     1      -2.842  -1.410   2.048  1.00  0.00     0.163 HD
HETATM  128  H78 UNL     1       1.636  -2.301   4.147  1.00  0.00     0.163 HD
HETATM  129  H79 UNL     1       3.431  -2.930   0.122  1.00  0.00     0.162 HD
HETATM  130  H80 UNL     1       7.485   2.541   0.019  1.00  0.00     0.162 HD
HETATM  131  H81 UNL     1       5.032   7.437  -1.378  1.00  0.00     0.162 HD
HETATM  132  H82 UNL     1      13.632   2.071  -1.996  1.00  0.00     0.126 HD
HETATM  133  H83 UNL     1      14.960   2.350  -1.033  1.00  0.00     0.126 HD
HETATM  134  H84 UNL     1      14.381   1.783   1.228  1.00  0.00     0.126 HD
HETATM  135  H85 UNL     1      13.196   2.797   1.817  1.00  0.00     0.126 HD
HETATM  136  H86 UNL     1       5.611   6.428  -3.270  1.00  0.00     0.127 HD
HETATM  137  H87 UNL     1       7.243   6.326  -3.555  1.00  0.00     0.127 HD
HETATM  138  H88 UNL     1      -0.630  -3.906  -1.630  1.00  0.00     0.209 HD
HETATM  139  H89 UNL     1      -3.597  -7.706  -4.262  1.00  0.00     0.210 HD
HETATM  140  H90 UNL     1      -6.415  -6.191  -4.164  1.00  0.00     0.210 HD
HETATM  141  H91 UNL     1      -8.137  -0.289  -2.117  1.00  0.00     0.209 HD
HETATM  142  H92 UNL     1      -8.430  -1.371  -7.641  1.00  0.00     0.210 HD
HETATM  143  H93 UNL     1      -8.750  -4.935  -3.447  1.00  0.00     0.210 HD
HETATM  144  H94 UNL     1       4.753  -0.275   2.929  1.00  0.00     0.210 HD
HETATM  145  H95 UNL     1      -2.800  -2.865   4.921  1.00  0.00     0.210 HD
ENDROOT
TORSDOF 52
