REMARK  0 active torsions:
REMARK  status: ('A' for Active; 'I' for Inactive)
REMARK       I    between atoms: C4_4  and  C5_5 
REMARK       I    between atoms: C5_5  and  N3_81 
REMARK       I    between atoms: C6_6  and  N3_81 
REMARK       I    between atoms: C8_8  and  C9_9 
REMARK       I    between atoms: C9_9  and  N6_85 
REMARK       I    between atoms: C10_10  and  N6_85 
REMARK       I    between atoms: C12_12  and  C14_14 
REMARK       I    between atoms: C14_14  and  N8_87 
REMARK       I    between atoms: C15_15  and  N8_87 
REMARK       I    between atoms: C17_17  and  C19_19 
REMARK       I    between atoms: C19_19  and  N10_89 
REMARK       I    between atoms: C20_20  and  C21_21 
REMARK       I    between atoms: C20_20  and  N10_89 
REMARK       I    between atoms: C21_21  and  C22_22 
REMARK       I    between atoms: C22_22  and  C23_23 
REMARK       I    between atoms: C23_23  and  N11_90 
REMARK       I    between atoms: C23_23  and  O14_118 
REMARK       I    between atoms: C24_24  and  N11_90 
REMARK       I    between atoms: C26_26  and  C27_27 
REMARK       I    between atoms: C27_27  and  N14_95 
REMARK       I    between atoms: C28_28  and  N14_95 
REMARK       I    between atoms: C30_30  and  C32_32 
REMARK       I    between atoms: C32_32  and  N16_97 
REMARK       I    between atoms: C33_33  and  N16_97 
REMARK       I    between atoms: C35_35  and  C37_37 
REMARK       I    between atoms: C37_37  and  N18_99 
REMARK       I    between atoms: C38_38  and  N18_99 
REMARK       I    between atoms: C40_40  and  C42_42 
REMARK       I    between atoms: C42_42  and  N20_101 
REMARK       I    between atoms: C43_43  and  C44_44 
REMARK       I    between atoms: C43_43  and  N20_101 
REMARK       I    between atoms: C44_44  and  C45_45 
REMARK       I    between atoms: C45_45  and  C46_46 
REMARK       I    between atoms: C46_46  and  C47_47 
REMARK       I    between atoms: C47_47  and  C48_48 
REMARK       I    between atoms: C48_48  and  C49_49 
REMARK       I    between atoms: C49_49  and  N21_102 
REMARK       I    between atoms: C50_50  and  N21_102 
REMARK       I    between atoms: C50_50  and  N22_104 
REMARK       I    between atoms: C50_50  and  S1_119 
REMARK       I    between atoms: C51_51  and  N22_104 
REMARK       I    between atoms: C53_53  and  C70_70 
REMARK       I    between atoms: C54_54  and  C57_57 
REMARK       I    between atoms: C70_70  and  O13_117 
ROOT
HETATM    1  C1  UNL     1      19.341   4.580  -4.892  1.00  0.00     0.157 C 
HETATM    2  C2  UNL     1      18.932   6.807  -5.953  1.00  0.00     0.109 A 
HETATM    3  C3  UNL     1      17.884   7.694  -5.901  1.00  0.00     0.107 A 
HETATM    4  C4  UNL     1      17.311   6.043  -4.643  1.00  0.00     0.176 A 
HETATM    5  C5  UNL     1      16.524   5.208  -3.740  1.00  0.00     0.291 C 
HETATM    6  C6  UNL     1      14.351   5.286  -2.634  1.00  0.00     0.125 A 
HETATM    7  C7  UNL     1      13.152   5.894  -2.350  1.00  0.00     0.140 A 
HETATM    8  C8  UNL     1      13.321   3.940  -1.316  1.00  0.00     0.178 A 
HETATM    9  C9  UNL     1      13.050   2.765  -0.498  1.00  0.00     0.290 C 
HETATM   10  C10 UNL     1      14.165   0.659   0.106  1.00  0.00     0.053 A 
HETATM   11  C11 UNL     1      15.244  -0.188   0.001  1.00  0.00     0.120 A 
HETATM   12  C12 UNL     1      13.770  -1.175   1.390  1.00  0.00     0.105 A 
HETATM   13  C13 UNL     1      13.232   0.030   0.959  1.00  0.00     0.066 A 
HETATM   14  C14 UNL     1      13.144  -2.127   2.289  1.00  0.00     0.273 C 
HETATM   15  C15 UNL     1      13.662  -3.455   4.288  1.00  0.00     0.053 A 
HETATM   16  C16 UNL     1      14.525  -3.801   5.300  1.00  0.00     0.120 A 
HETATM   17  C17 UNL     1      12.627  -4.988   5.627  1.00  0.00     0.104 A 
HETATM   18  C18 UNL     1      12.480  -4.204   4.486  1.00  0.00     0.066 A 
HETATM   19  C19 UNL     1      11.685  -5.915   6.237  1.00  0.00     0.268 C 
HETATM   20  C20 UNL     1       9.281  -6.520   6.347  1.00  0.00     0.123 C 
HETATM   21  C21 UNL     1       8.776  -6.012   7.701  1.00  0.00     0.027 C 
HETATM   22  C22 UNL     1       8.601  -4.498   7.819  1.00  0.00     0.085 C 
HETATM   23  C23 UNL     1       7.966  -3.882   6.605  1.00  0.00     0.116 C 
HETATM   24  C24 UNL     1       8.057  -2.791   4.581  1.00  0.00     0.124 A 
HETATM   25  C25 UNL     1       8.772  -2.192   3.580  1.00  0.00     0.140 A 
HETATM   26  C26 UNL     1       6.603  -2.195   3.117  1.00  0.00     0.178 A 
HETATM   27  C27 UNL     1       5.327  -1.981   2.440  1.00  0.00     0.290 C 
HETATM   28  C28 UNL     1       2.933  -2.389   2.826  1.00  0.00     0.053 A 
HETATM   29  C29 UNL     1       1.923  -2.873   3.618  1.00  0.00     0.120 A 
HETATM   30  C30 UNL     1       0.945  -2.030   1.756  1.00  0.00     0.105 A 
HETATM   31  C31 UNL     1       2.324  -1.860   1.664  1.00  0.00     0.066 A 
HETATM   32  C32 UNL     1      -0.116  -1.653   0.821  1.00  0.00     0.273 C 
HETATM   33  C33 UNL     1      -0.458  -0.743  -1.436  1.00  0.00     0.053 A 
HETATM   34  C34 UNL     1       0.056  -0.283  -2.624  1.00  0.00     0.120 A 
HETATM   35  C35 UNL     1      -2.198  -0.157  -2.797  1.00  0.00     0.105 A 
HETATM   36  C36 UNL     1      -1.866  -0.670  -1.546  1.00  0.00     0.066 A 
HETATM   37  C37 UNL     1      -3.511   0.108  -3.387  1.00  0.00     0.273 C 
HETATM   38  C38 UNL     1      -5.887   0.301  -2.756  1.00  0.00     0.053 A 
HETATM   39  C39 UNL     1      -6.476   0.566  -3.968  1.00  0.00     0.120 A 
HETATM   40  C40 UNL     1      -8.134   0.519  -2.442  1.00  0.00     0.104 A 
HETATM   41  C41 UNL     1      -6.927   0.295  -1.795  1.00  0.00     0.066 A 
HETATM   42  C42 UNL     1      -9.444   0.565  -1.825  1.00  0.00     0.268 C 
HETATM   43  C43 UNL     1     -11.767  -0.186  -2.016  1.00  0.00     0.123 C 
HETATM   44  C44 UNL     1     -12.760  -0.761  -3.023  1.00  0.00     0.020 C 
HETATM   45  C45 UNL     1     -12.517  -2.251  -3.291  1.00  0.00     0.002 C 
HETATM   46  C46 UNL     1     -13.568  -2.898  -4.202  1.00  0.00     0.000 C 
HETATM   47  C47 UNL     1     -15.013  -2.908  -3.690  1.00  0.00     0.002 C 
HETATM   48  C48 UNL     1     -15.397  -4.073  -2.768  1.00  0.00     0.020 C 
HETATM   49  C49 UNL     1     -14.645  -4.191  -1.442  1.00  0.00     0.121 C 
HETATM   50  C50 UNL     1     -14.071  -2.680   0.352  1.00  0.00     0.137 C 
HETATM   51  C51 UNL     1     -14.530  -0.229   0.619  1.00  0.00     0.035 A 
HETATM   52  C52 UNL     1     -15.537  -0.068  -0.335  1.00  0.00     0.048 A 
HETATM   53  C53 UNL     1     -15.951   1.211  -0.739  1.00  0.00     0.051 A 
HETATM   54  C54 UNL     1     -15.375   2.363  -0.189  1.00  0.00    -0.007 A 
HETATM   55  C55 UNL     1     -14.386   2.208   0.790  1.00  0.00     0.015 A 
HETATM   56  C56 UNL     1     -13.968   0.930   1.180  1.00  0.00     0.030 A 
HETATM   57  C57 UNL     1     -15.795   3.736  -0.576  1.00  0.00     0.001 A 
HETATM   58  C58 UNL     1     -15.112   4.423  -1.532  1.00  0.00     0.010 A 
HETATM   59  C59 UNL     1     -13.948   3.852  -2.225  1.00  0.00     0.019 A 
HETATM   60  C60 UNL     1     -13.277   4.536  -3.161  1.00  0.00     0.056 A 
HETATM   61  C61 UNL     1     -13.692   5.904  -3.537  1.00  0.00     0.174 A 
HETATM   62  C62 UNL     1     -14.867   6.476  -2.853  1.00  0.00     0.092 A 
HETATM   63  C63 UNL     1     -15.530   5.782  -1.918  1.00  0.00     0.091 A 
HETATM   64  C64 UNL     1     -17.323   5.687  -0.357  1.00  0.00     0.091 A 
HETATM   65  C65 UNL     1     -16.966   4.406   0.043  1.00  0.00     0.010 A 
HETATM   66  C66 UNL     1     -17.746   3.799   1.030  1.00  0.00     0.019 A 
HETATM   67  C67 UNL     1     -18.849   4.468   1.585  1.00  0.00     0.056 A 
HETATM   68  C68 UNL     1     -19.238   5.761   1.201  1.00  0.00     0.174 A 
HETATM   69  C69 UNL     1     -18.429   6.341   0.209  1.00  0.00     0.092 A 
HETATM   70  C70 UNL     1     -16.984   1.308  -1.780  1.00  0.00     0.177 C 
HETATM   71  C71 UNL     1      -8.733   1.192  -4.802  1.00  0.00     0.156 C 
HETATM   72  C72 UNL     1      -0.828   0.593  -4.780  1.00  0.00     0.156 C 
HETATM   73  C73 UNL     1      -0.559  -3.031   3.522  1.00  0.00     0.156 C 
HETATM   74  C74 UNL     1       8.140  -1.164   1.400  1.00  0.00     0.157 C 
HETATM   75  C75 UNL     1      14.504  -5.331   7.270  1.00  0.00     0.156 C 
HETATM   76  C76 UNL     1      15.831  -2.485   0.758  1.00  0.00     0.156 C 
HETATM   77  C77 UNL     1      11.196   5.228  -0.936  1.00  0.00     0.157 C 
HETATM   78  N1  UNL     1      18.558   5.764  -5.152  1.00  0.00    -0.342 N 
HETATM   79  N2  UNL     1      16.885   7.219  -5.091  1.00  0.00    -0.346 N 
ATOM     80  H2  UNL     1      15.998   7.674  -4.877  1.00  0.00     0.167 HD
HETATM   81  N3  UNL     1      15.318   5.807  -3.446  1.00  0.00    -0.305 N 
HETATM   82  N4  UNL     1      12.505   5.028  -1.510  1.00  0.00    -0.339 N 
HETATM   83  N5  UNL     1      14.449   4.088  -1.996  1.00  0.00    -0.323 N 
ATOM     84  H5  UNL     1      15.232   3.436  -2.034  1.00  0.00     0.169 HD
HETATM   85  N6  UNL     1      14.100   1.869  -0.546  1.00  0.00    -0.319 N 
HETATM   86  N7  UNL     1      14.983  -1.311   0.746  1.00  0.00    -0.354 N 
HETATM   87  N8  UNL     1      13.986  -2.541   3.304  1.00  0.00    -0.320 N 
HETATM   88  N9  UNL     1      13.902  -4.733   6.096  1.00  0.00    -0.354 N 
HETATM   89  N10 UNL     1      10.387  -5.760   5.814  1.00  0.00    -0.356 N 
HETATM   90  N11 UNL     1       8.692  -3.319   5.697  1.00  0.00    -0.326 N 
ATOM     91  H11 UNL     1       9.706  -3.264   5.797  1.00  0.00     0.169 HD
HETATM   92  N12 UNL     1       7.845  -1.823   2.650  1.00  0.00    -0.339 N 
HETATM   93  N13 UNL     1       6.714  -2.795   4.302  1.00  0.00    -0.323 N 
ATOM     94  H13 UNL     1       5.962  -3.175   4.877  1.00  0.00     0.169 HD
HETATM   95  N14 UNL     1       4.262  -2.450   3.186  1.00  0.00    -0.319 N 
HETATM   96  N15 UNL     1       0.729  -2.651   2.977  1.00  0.00    -0.354 N 
HETATM   97  N16 UNL     1       0.341  -1.173  -0.393  1.00  0.00    -0.320 N 
HETATM   98  N17 UNL     1      -0.991   0.060  -3.442  1.00  0.00    -0.354 N 
HETATM   99  N18 UNL     1      -4.551   0.084  -2.476  1.00  0.00    -0.320 N 
HETATM  100  N19 UNL     1      -7.823   0.743  -3.768  1.00  0.00    -0.354 N 
HETATM  101  N20 UNL     1     -10.441  -0.025  -2.574  1.00  0.00    -0.356 N 
HETATM  102  N21 UNL     1     -14.692  -2.917  -0.746  1.00  0.00    -0.371 N 
ATOM    103  H21 UNL     1     -15.251  -2.167  -1.153  1.00  0.00     0.161 HD
HETATM  104  N22 UNL     1     -14.011  -1.477   1.002  1.00  0.00    -0.337 N 
HETATM  105  O1  UNL     1      16.922   4.124  -3.324  1.00  0.00    -0.264 OA
HETATM  106  O2  UNL     1      12.012   2.619   0.141  1.00  0.00    -0.264 OA
HETATM  107  O3  UNL     1      11.976  -2.472   2.148  1.00  0.00    -0.266 OA
HETATM  108  O4  UNL     1      12.003  -6.753   7.076  1.00  0.00    -0.266 OA
HETATM  109  O5  UNL     1       5.235  -1.445   1.339  1.00  0.00    -0.264 OA
HETATM  110  O6  UNL     1      -1.304  -1.768   1.108  1.00  0.00    -0.266 OA
HETATM  111  O7  UNL     1      -3.642   0.339  -4.586  1.00  0.00    -0.266 OA
HETATM  112  O8  UNL     1      -9.643   1.026  -0.706  1.00  0.00    -0.266 OA
HETATM  113  O9  UNL     1     -13.075   6.535  -4.389  1.00  0.00    -0.288 OA
HETATM  114  O10 UNL     1     -16.627   6.378  -1.314  1.00  0.00    -0.309 OA
HETATM  115  O11 UNL     1     -20.242   6.357   1.711  1.00  0.00    -0.288 OA
HETATM  116  O12 UNL     1     -16.844   1.760  -2.899  1.00  0.00    -0.646 OA
HETATM  117  O13 UNL     1     -18.149   0.821  -1.322  1.00  0.00    -0.773 OA
HETATM  118  O14 UNL     1       6.629  -4.026   6.573  1.00  0.00    -0.349 OA
HETATM  119  S1  UNL     1     -13.128  -3.891   1.222  1.00  0.00    -0.107 SA
HETATM  120  H68 UNL     1      15.154   6.708  -3.881  1.00  0.00     0.170 HD
HETATM  121  H69 UNL     1      14.886   2.150  -1.131  1.00  0.00     0.169 HD
HETATM  122  H70 UNL     1      14.881  -2.084   3.394  1.00  0.00     0.169 HD
HETATM  123  H71 UNL     1      10.156  -4.914   5.303  1.00  0.00     0.162 HD
HETATM  124  H72 UNL     1       4.489  -2.871   4.079  1.00  0.00     0.169 HD
HETATM  125  H73 UNL     1       1.335  -1.136  -0.558  1.00  0.00     0.169 HD
HETATM  126  H74 UNL     1      -4.333  -0.068  -1.502  1.00  0.00     0.169 HD
HETATM  127  H75 UNL     1     -10.133  -0.692  -3.267  1.00  0.00     0.162 HD
HETATM  128  H76 UNL     1     -13.392  -1.458   1.802  1.00  0.00     0.168 HD
HETATM  129  H77 UNL     1     -18.805   1.070  -2.006  1.00  0.00     0.167 HD
HETATM  130  H78 UNL     1       6.292  -3.607   5.757  1.00  0.00     0.219 HD
HETATM  131  H79 UNL     1     -13.848  -4.955   0.855  1.00  0.00     0.110 HD
ENDROOT
TORSDOF 36
