REMARK  0 active torsions:
REMARK  status: ('A' for Active; 'I' for Inactive)
REMARK       I    between atoms: C2_2  and  C3_3 
REMARK       I    between atoms: C2_2  and  C7_7 
REMARK       I    between atoms: C3_3  and  C4_4 
REMARK       I    between atoms: C4_4  and  C5_5 
REMARK       I    between atoms: C5_5  and  C6_6 
REMARK       I    between atoms: C6_6  and  N1_64 
REMARK       I    between atoms: C7_7  and  N2_65 
REMARK       I    between atoms: C8_8  and  C9_9 
REMARK       I    between atoms: C8_8  and  C13_13 
REMARK       I    between atoms: C8_8  and  N2_65 
REMARK       I    between atoms: C9_9  and  C10_10 
REMARK       I    between atoms: C13_13  and  N3_66 
REMARK       I    between atoms: C14_14  and  C15_15 
REMARK       I    between atoms: C14_14  and  C20_20 
REMARK       I    between atoms: C14_14  and  N3_66 
REMARK       I    between atoms: C15_15  and  C16_16 
REMARK       I    between atoms: C16_16  and  C17_17 
REMARK       I    between atoms: C17_17  and  C18_18 
REMARK       I    between atoms: C18_18  and  C19_19 
REMARK       I    between atoms: C19_19  and  N4_67 
REMARK       I    between atoms: C20_20  and  N6_70 
REMARK       I    between atoms: C24_24  and  C25_25 
REMARK       I    between atoms: C25_25  and  N7_71 
REMARK       I    between atoms: C26_26  and  C28_28 
REMARK       I    between atoms: C26_26  and  N7_71 
REMARK       I    between atoms: C28_28  and  N8_72 
REMARK       I    between atoms: C29_29  and  C30_30 
REMARK       I    between atoms: C29_29  and  C32_32 
REMARK       I    between atoms: C29_29  and  N8_72 
REMARK       I    between atoms: C30_30  and  O6_89 
REMARK       I    between atoms: C32_32  and  N9_73 
REMARK       I    between atoms: C33_33  and  C34_34 
REMARK       I    between atoms: C33_33  and  C36_36 
REMARK       I    between atoms: C33_33  and  N9_73 
REMARK       I    between atoms: C34_34  and  C35_35 
REMARK       I    between atoms: C35_35  and  O9_92 
REMARK       I    between atoms: C36_36  and  N10_74 
REMARK       I    between atoms: C37_37  and  C38_38 
REMARK       I    between atoms: C37_37  and  C42_42 
REMARK       I    between atoms: C37_37  and  N10_74 
REMARK       I    between atoms: C38_38  and  C39_39 
REMARK       I    between atoms: C39_39  and  C40_40 
REMARK       I    between atoms: C40_40  and  C41_41 
REMARK       I    between atoms: C41_41  and  N11_75 
REMARK       I    between atoms: C42_42  and  N12_76 
REMARK       I    between atoms: C43_43  and  C44_44 
REMARK       I    between atoms: C43_43  and  C51_51 
REMARK       I    between atoms: C43_43  and  N12_76 
REMARK       I    between atoms: C44_44  and  C45_45 
REMARK       I    between atoms: C48_48  and  O12_95 
REMARK       I    between atoms: C51_51  and  N13_77 
REMARK       I    between atoms: C52_52  and  C53_53 
REMARK       I    between atoms: C52_52  and  C57_57 
REMARK       I    between atoms: C52_52  and  N13_77 
REMARK       I    between atoms: C53_53  and  C54_54 
REMARK       I    between atoms: C54_54  and  C55_55 
REMARK       I    between atoms: C55_55  and  N14_78 
REMARK       I    between atoms: C56_56  and  N15_80 
REMARK       I    between atoms: C56_56  and  N16_81 
REMARK       I    between atoms: C57_57  and  N17_82 
REMARK       I    between atoms: C58_58  and  C59_59 
REMARK       I    between atoms: C58_58  and  C63_63 
REMARK       I    between atoms: C58_58  and  N17_82 
REMARK       I    between atoms: C59_59  and  C60_60 
REMARK       I    between atoms: C63_63  and  N18_83 
ROOT
HETATM    1  C1  UNL     1       7.793   3.071  -1.041  1.00  0.00     0.020 C 
HETATM    2  C2  UNL     1       8.755   2.454  -0.025  1.00  0.00     0.074 C 
HETATM    3  C3  UNL     1       8.273   2.752   1.407  1.00  0.00     0.013 C 
HETATM    4  C4  UNL     1       9.336   2.415   2.460  1.00  0.00     0.002 C 
HETATM    5  C5  UNL     1       8.840   2.511   3.908  1.00  0.00     0.030 C 
HETATM    6  C6  UNL     1       8.682   3.931   4.457  1.00  0.00     0.267 C 
HETATM    7  C7  UNL     1       8.875   0.954  -0.288  1.00  0.00     0.222 C 
HETATM    8  C8  UNL     1       9.936  -0.724  -1.839  1.00  0.00     0.177 C 
HETATM    9  C9  UNL     1      10.517  -1.660  -0.763  1.00  0.00     0.038 C 
HETATM   10  C10 UNL     1      11.778  -1.131  -0.050  1.00  0.00    -0.020 C 
HETATM   11  C11 UNL     1      12.203  -2.114   1.043  1.00  0.00     0.009 C 
HETATM   12  C12 UNL     1      12.941  -0.898  -1.015  1.00  0.00     0.009 C 
HETATM   13  C13 UNL     1       8.706  -1.351  -2.533  1.00  0.00     0.241 C 
HETATM   14  C14 UNL     1       6.327  -1.906  -2.285  1.00  0.00     0.176 C 
HETATM   15  C15 UNL     1       5.423  -2.657  -1.288  1.00  0.00     0.035 C 
HETATM   16  C16 UNL     1       5.175  -1.934   0.048  1.00  0.00     0.003 C 
HETATM   17  C17 UNL     1       6.098  -2.381   1.189  1.00  0.00     0.007 C 
HETATM   18  C18 UNL     1       5.694  -3.712   1.827  1.00  0.00     0.075 C 
HETATM   19  C19 UNL     1       4.437  -3.591   2.667  1.00  0.00     0.068 C 
HETATM   20  C20 UNL     1       5.653  -0.599  -2.780  1.00  0.00     0.243 C 
HETATM   21  C21 UNL     1       4.531  -1.825  -4.683  1.00  0.00     0.127 C 
HETATM   22  C22 UNL     1       3.386  -1.408  -5.589  1.00  0.00     0.022 C 
HETATM   23  C23 UNL     1       3.568   0.102  -5.703  1.00  0.00     0.037 C 
HETATM   24  C24 UNL     1       4.072   0.519  -4.319  1.00  0.00     0.179 C 
HETATM   25  C25 UNL     1       2.908   1.011  -3.433  1.00  0.00     0.241 C 
HETATM   26  C26 UNL     1       1.340   0.302  -1.638  1.00  0.00     0.172 C 
HETATM   27  C27 UNL     1      -0.057   0.499  -2.203  1.00  0.00     0.042 C 
HETATM   28  C28 UNL     1       1.379  -0.905  -0.688  1.00  0.00     0.240 C 
HETATM   29  C29 UNL     1       1.128  -1.613   1.682  1.00  0.00     0.205 C 
HETATM   30  C30 UNL     1       0.942  -0.862   3.017  1.00  0.00     0.146 C 
HETATM   31  C31 UNL     1       2.043   0.166   3.253  1.00  0.00     0.042 C 
HETATM   32  C32 UNL     1       0.329  -2.944   1.713  1.00  0.00     0.243 C 
HETATM   33  C33 UNL     1      -0.664  -4.756   0.278  1.00  0.00     0.186 C 
HETATM   34  C34 UNL     1       0.243  -5.917   0.687  1.00  0.00     0.144 C 
HETATM   35  C35 UNL     1       1.487  -5.986  -0.143  1.00  0.00     0.141 C 
HETATM   36  C36 UNL     1      -2.080  -4.944   0.880  1.00  0.00     0.241 C 
HETATM   37  C37 UNL     1      -4.045  -3.730   1.834  1.00  0.00     0.176 C 
HETATM   38  C38 UNL     1      -4.099  -4.323   3.254  1.00  0.00     0.035 C 
HETATM   39  C39 UNL     1      -2.983  -3.916   4.228  1.00  0.00     0.004 C 
HETATM   40  C40 UNL     1      -2.791  -2.409   4.403  1.00  0.00     0.030 C 
HETATM   41  C41 UNL     1      -1.751  -2.101   5.480  1.00  0.00     0.267 C 
HETATM   42  C42 UNL     1      -4.604  -2.288   1.793  1.00  0.00     0.241 C 
HETATM   43  C43 UNL     1      -4.493  -0.134   0.581  1.00  0.00     0.180 C 
HETATM   44  C44 UNL     1      -3.336   0.755   0.101  1.00  0.00     0.073 C 
HETATM   45  C45 UNL     1      -3.454   2.178   0.588  1.00  0.00    -0.056 A 
HETATM   46  C46 UNL     1      -4.014   3.172  -0.225  1.00  0.00     0.010 A 
HETATM   47  C47 UNL     1      -4.171   4.474   0.254  1.00  0.00     0.037 A 
HETATM   48  C48 UNL     1      -3.752   4.785   1.543  1.00  0.00     0.065 A 
HETATM   49  C49 UNL     1      -3.177   3.817   2.357  1.00  0.00     0.037 A 
HETATM   50  C50 UNL     1      -3.031   2.514   1.883  1.00  0.00     0.010 A 
HETATM   51  C51 UNL     1      -5.582  -0.225  -0.505  1.00  0.00     0.241 C 
HETATM   52  C52 UNL     1      -7.546   0.916  -1.512  1.00  0.00     0.176 C 
HETATM   53  C53 UNL     1      -8.704  -0.024  -1.165  1.00  0.00     0.036 C 
HETATM   54  C54 UNL     1      -9.380   0.304   0.174  1.00  0.00     0.022 C 
HETATM   55  C55 UNL     1     -10.883   0.050   0.110  1.00  0.00     0.121 C 
HETATM   56  C56 UNL     1     -12.729   0.984  -1.006  1.00  0.00     0.121 C 
HETATM   57  C57 UNL     1      -7.939   2.409  -1.667  1.00  0.00     0.241 C 
HETATM   58  C58 UNL     1      -9.548   4.054  -2.581  1.00  0.00     0.176 C 
HETATM   59  C59 UNL     1     -10.497   4.041  -3.792  1.00  0.00     0.038 C 
HETATM   60  C60 UNL     1     -10.867   5.441  -4.329  1.00  0.00    -0.020 C 
HETATM   61  C61 UNL     1     -12.198   5.937  -3.757  1.00  0.00     0.009 C 
HETATM   62  C62 UNL     1     -10.969   5.410  -5.858  1.00  0.00     0.009 C 
HETATM   63  C63 UNL     1     -10.192   4.694  -1.337  1.00  0.00     0.238 C 
HETATM   64  N1  UNL     1       7.549   4.641   3.882  1.00  0.00     0.078 N 
HETATM   65  N2  UNL     1       9.650   0.639  -1.382  1.00  0.00    -0.347 N 
HETATM   66  N3  UNL     1       7.625  -1.587  -1.711  1.00  0.00    -0.346 N 
HETATM   67  N4  UNL     1       4.416  -2.910   3.767  1.00  0.00    -0.389 N 
ATOM     68  H4  UNL     1       3.600  -2.793   4.368  1.00  0.00     0.157 HD
HETATM   69  N5  UNL     1       3.297  -4.208   2.268  1.00  0.00    -0.389 N 
HETATM   70  N6  UNL     1       4.700  -0.700  -3.778  1.00  0.00    -0.337 N 
HETATM   71  N7  UNL     1       2.315   0.022  -2.682  1.00  0.00    -0.346 N 
HETATM   72  N8  UNL     1       0.803  -0.733   0.543  1.00  0.00    -0.344 N 
HETATM   73  N9  UNL     1      -0.086  -3.419   0.485  1.00  0.00    -0.345 N 
HETATM   74  N10 UNL     1      -2.717  -3.775   1.221  1.00  0.00    -0.346 N 
HETATM   75  N11 UNL     1      -1.485  -0.658   5.527  1.00  0.00     0.078 N 
HETATM   76  N12 UNL     1      -4.010  -1.492   0.830  1.00  0.00    -0.346 N 
HETATM   77  N13 UNL     1      -6.471   0.821  -0.527  1.00  0.00    -0.346 N 
HETATM   78  N14 UNL     1     -11.481   1.094  -0.731  1.00  0.00    -0.372 N 
ATOM     79  H14 UNL     1     -10.927   1.875  -1.082  1.00  0.00     0.161 HD
HETATM   80  N15 UNL     1     -13.615   0.024  -0.664  1.00  0.00    -0.279 NA
HETATM   81  N16 UNL     1     -13.350   1.945  -1.723  1.00  0.00    -0.279 NA
HETATM   82  N17 UNL     1      -9.135   2.672  -2.298  1.00  0.00    -0.346 N 
HETATM   83  N18 UNL     1     -11.040   3.906  -0.609  1.00  0.00    -0.368 N 
HETATM   84  O1  UNL     1       8.322   0.097   0.394  1.00  0.00    -0.273 OA
HETATM   85  O2  UNL     1       8.705  -1.627  -3.732  1.00  0.00    -0.271 OA
HETATM   86  O3  UNL     1       5.903   0.490  -2.256  1.00  0.00    -0.271 OA
HETATM   87  O4  UNL     1       2.465   2.155  -3.493  1.00  0.00    -0.271 OA
HETATM   88  O5  UNL     1       1.863  -1.991  -1.022  1.00  0.00    -0.271 OA
HETATM   89  O6  UNL     1      -0.308  -0.151   2.979  1.00  0.00    -0.393 OA
HETATM   90  O7  UNL     1       0.147  -3.599   2.738  1.00  0.00    -0.271 OA
HETATM   91  O8  UNL     1       2.630  -6.052   0.285  1.00  0.00    -0.650 OA
HETATM   92  O9  UNL     1       1.252  -6.032  -1.466  1.00  0.00    -0.776 OA
HETATM   93  O10 UNL     1      -2.635  -6.039   0.937  1.00  0.00    -0.271 OA
HETATM   94  O11 UNL     1      -5.529  -1.896   2.500  1.00  0.00    -0.271 OA
HETATM   95  O12 UNL     1      -3.895   6.043   2.051  1.00  0.00    -0.361 OA
HETATM   96  O13 UNL     1      -5.623  -1.151  -1.317  1.00  0.00    -0.271 OA
HETATM   97  O14 UNL     1      -7.177   3.310  -1.314  1.00  0.00    -0.271 OA
HETATM   98  O15 UNL     1     -10.106   5.891  -1.076  1.00  0.00    -0.271 OA
HETATM   99  H84 UNL     1       7.427   5.533   4.360  1.00  0.00     0.312 HD
HETATM  100  H85 UNL     1       6.693   4.111   4.043  1.00  0.00     0.312 HD
HETATM  101  H86 UNL     1       9.876   1.387  -2.026  1.00  0.00     0.163 HD
HETATM  102  H87 UNL     1       7.615  -1.022  -0.859  1.00  0.00     0.163 HD
HETATM  103  H88 UNL     1       5.342  -2.505   3.946  1.00  0.00     0.157 HD
HETATM  104  H89 UNL     1       3.371  -5.013   1.643  1.00  0.00     0.157 HD
HETATM  105  H90 UNL     1       2.619  -4.338   3.014  1.00  0.00     0.157 HD
HETATM  106  H91 UNL     1       2.842  -0.842  -2.588  1.00  0.00     0.163 HD
HETATM  107  H92 UNL     1       0.398   0.163   0.802  1.00  0.00     0.163 HD
HETATM  108  H93 UNL     1       0.441  -3.037  -0.300  1.00  0.00     0.163 HD
HETATM  109  H94 UNL     1      -2.121  -2.966   1.355  1.00  0.00     0.163 HD
HETATM  110  H95 UNL     1      -0.884  -0.475   6.334  1.00  0.00     0.312 HD
HETATM  111  H96 UNL     1      -2.363  -0.177   5.738  1.00  0.00     0.312 HD
HETATM  112  H97 UNL     1      -3.678  -2.005   0.018  1.00  0.00     0.163 HD
HETATM  113  H98 UNL     1      -6.308   1.637   0.058  1.00  0.00     0.163 HD
HETATM  114  H99 UNL     1     -14.283  -0.177  -1.400  1.00  0.00     0.126 HD
HETATM  115  HA0 UNL     1     -13.212  -0.832  -0.305  1.00  0.00     0.126 HD
HETATM  116  HA1 UNL     1     -14.276   2.157  -1.369  1.00  0.00     0.126 HD
HETATM  117  HA2 UNL     1     -12.796   2.797  -1.764  1.00  0.00     0.126 HD
HETATM  118  HA3 UNL     1      -9.874   1.975  -2.246  1.00  0.00     0.163 HD
HETATM  119  HA4 UNL     1     -11.356   4.316   0.261  1.00  0.00     0.159 HD
HETATM  120  HA5 UNL     1     -10.904   2.894  -0.587  1.00  0.00     0.159 HD
HETATM  121  HA6 UNL     1      -0.691  -0.227   3.888  1.00  0.00     0.210 HD
HETATM  122  HA7 UNL     1       2.140  -6.119  -1.872  1.00  0.00     0.167 HD
HETATM  123  HA8 UNL     1      -4.355   6.587   1.389  1.00  0.00     0.217 HD
ENDROOT
TORSDOF 52
