REMARK  24 active torsions:
REMARK  status: ('A' for Active; 'I' for Inactive)
REMARK    1  A    between atoms: C5_5  and  C13_13 
REMARK    2  A    between atoms: C7_7  and  C9_9 
REMARK       I    between atoms: C13_13  and  N1_93 
REMARK    3  A    between atoms: C14_14  and  N1_93 
REMARK    4  A    between atoms: C15_15  and  O8_83 
REMARK    5  A    between atoms: C17_17  and  C20_20 
REMARK       I    between atoms: C20_20  and  N2_94 
REMARK    6  A    between atoms: C21_21  and  N2_94 
REMARK    7  A    between atoms: C22_22  and  O7_82 
REMARK    8  A    between atoms: C24_24  and  C27_27 
REMARK       I    between atoms: C27_27  and  N3_95 
REMARK    9  A    between atoms: C28_28  and  N3_95 
REMARK   10  A    between atoms: C29_29  and  O6_81 
REMARK   11  A    between atoms: C31_31  and  C34_34 
REMARK   12  A    between atoms: C34_34  and  O5_80 
REMARK   13  A    between atoms: C42_42  and  C71_71 
REMARK   14  A    between atoms: C44_44  and  C45_45 
REMARK       I    between atoms: C45_45  and  N4_96 
REMARK   15  A    between atoms: C46_46  and  N4_96 
REMARK   16  A    between atoms: C47_47  and  O17_92 
REMARK   17  A    between atoms: C49_49  and  C52_52 
REMARK       I    between atoms: C52_52  and  N5_97 
REMARK   18  A    between atoms: C53_53  and  N5_97 
REMARK   19  A    between atoms: C54_54  and  O16_91 
REMARK   20  A    between atoms: C56_56  and  C59_59 
REMARK       I    between atoms: C59_59  and  N6_98 
REMARK   21  A    between atoms: C60_60  and  N6_98 
REMARK   22  A    between atoms: C61_61  and  O15_90 
REMARK   23  A    between atoms: C63_63  and  C66_66 
REMARK   24  A    between atoms: C66_66  and  O14_89 
ROOT
HETATM    1  C1  UNL     1       4.133  -9.921  -0.238  1.00  0.00     0.025 C 
HETATM    2  C2  UNL     1       2.820  -9.457   0.440  1.00  0.00     0.012 A 
HETATM    3  C3  UNL     1       3.170  -8.469   1.551  1.00  0.00    -0.010 A 
HETATM    4  C4  UNL     1       2.691  -7.160   1.521  1.00  0.00     0.099 A 
HETATM    5  C5  UNL     1       3.063  -6.257   2.533  1.00  0.00     0.067 A 
HETATM    6  C6  UNL     1       3.869  -6.677   3.605  1.00  0.00     0.027 A 
HETATM    7  C7  UNL     1       4.353  -7.987   3.681  1.00  0.00    -0.049 A 
HETATM    8  C8  UNL     1       3.995  -8.858   2.634  1.00  0.00     0.019 A 
HETATM    9  C39 UNL     1       1.452  -7.518  -0.482  1.00  0.00     0.099 A 
HETATM   10  C40 UNL     1       1.910  -8.831  -0.616  1.00  0.00    -0.010 A 
HETATM   11  C41 UNL     1       1.502  -9.575  -1.749  1.00  0.00     0.019 A 
HETATM   12  C42 UNL     1       0.662  -9.052  -2.749  1.00  0.00    -0.049 A 
HETATM   13  C43 UNL     1       0.212  -7.740  -2.572  1.00  0.00     0.027 A 
HETATM   14  C44 UNL     1       0.583  -6.979  -1.448  1.00  0.00     0.067 A 
HETATM   15  C75 UNL     1       2.091 -10.673   1.061  1.00  0.00     0.025 C 
HETATM   16  O9  UNL     1       1.835  -6.702   0.551  1.00  0.00    -0.308 OA
ENDROOT
BRANCH   5  17
HETATM   17  C13 UNL     1       2.638  -4.828   2.543  1.00  0.00     0.259 C 
HETATM   18  O1  UNL     1       2.340  -4.318   3.618  1.00  0.00    -0.267 OA
HETATM   19  N1  UNL     1       2.681  -4.205   1.317  1.00  0.00    -0.320 N 
HETATM   20  H71 UNL     1       2.984  -4.750   0.514  1.00  0.00     0.169 HD
BRANCH  19  21
HETATM   21  C14 UNL     1       2.249  -2.907   0.976  1.00  0.00     0.068 A 
HETATM   22  C15 UNL     1       2.329  -2.554  -0.391  1.00  0.00     0.096 A 
HETATM   23  C16 UNL     1       1.855  -1.313  -0.818  1.00  0.00     0.056 A 
HETATM   24  C17 UNL     1       1.288  -0.436   0.113  1.00  0.00     0.035 A 
HETATM   25  C18 UNL     1       1.211  -0.780   1.464  1.00  0.00     0.019 A 
HETATM   26  C19 UNL     1       1.706  -2.010   1.897  1.00  0.00     0.033 A 
BRANCH  22  27
HETATM   27  O8  UNL     1       2.882  -3.509  -1.215  1.00  0.00    -0.354 OA
HETATM   28  C38 UNL     1       2.734  -3.311  -2.617  1.00  0.00     0.210 C 
ENDBRANCH  22  27
BRANCH  24  29
HETATM   29  C20 UNL     1       0.710   0.855  -0.322  1.00  0.00     0.256 C 
HETATM   30  O2  UNL     1      -0.428   1.125   0.040  1.00  0.00    -0.267 OA
HETATM   31  N2  UNL     1       1.555   1.614  -1.100  1.00  0.00    -0.321 N 
HETATM   32  H72 UNL     1       2.478   1.245  -1.310  1.00  0.00     0.169 HD
BRANCH  31  33
HETATM   33  C21 UNL     1       1.329   2.901  -1.633  1.00  0.00     0.068 A 
HETATM   34  C22 UNL     1       2.355   3.449  -2.436  1.00  0.00     0.096 A 
HETATM   35  C23 UNL     1       2.201   4.722  -2.993  1.00  0.00     0.056 A 
HETATM   36  C24 UNL     1       1.032   5.454  -2.744  1.00  0.00     0.035 A 
HETATM   37  C25 UNL     1       0.015   4.907  -1.959  1.00  0.00     0.019 A 
HETATM   38  C26 UNL     1       0.166   3.636  -1.400  1.00  0.00     0.033 A 
BRANCH  34  39
HETATM   39  O7  UNL     1       3.458   2.643  -2.609  1.00  0.00    -0.354 OA
HETATM   40  C37 UNL     1       4.504   3.139  -3.437  1.00  0.00     0.210 C 
ENDBRANCH  34  39
BRANCH  36  41
HETATM   41  C27 UNL     1       0.827   6.807  -3.330  1.00  0.00     0.256 C 
HETATM   42  O3  UNL     1      -0.291   7.100  -3.734  1.00  0.00    -0.267 OA
HETATM   43  N3  UNL     1       1.948   7.609  -3.327  1.00  0.00    -0.321 N 
HETATM   44  H73 UNL     1       2.777   7.282  -2.841  1.00  0.00     0.169 HD
BRANCH  43  45
HETATM   45  C28 UNL     1       2.083   8.919  -3.838  1.00  0.00     0.068 A 
HETATM   46  C29 UNL     1       3.328   9.556  -3.637  1.00  0.00     0.096 A 
HETATM   47  C30 UNL     1       3.536  10.852  -4.120  1.00  0.00     0.056 A 
HETATM   48  C31 UNL     1       2.511  11.522  -4.804  1.00  0.00     0.042 A 
HETATM   49  C32 UNL     1       1.281  10.885  -5.002  1.00  0.00     0.020 A 
HETATM   50  C33 UNL     1       1.069   9.589  -4.522  1.00  0.00     0.033 A 
BRANCH  46  51
HETATM   51  O6  UNL     1       4.267   8.809  -2.960  1.00  0.00    -0.354 OA
HETATM   52  C36 UNL     1       5.496   9.450  -2.638  1.00  0.00     0.210 C 
ENDBRANCH  46  51
BRANCH  48  53
HETATM   53  C34 UNL     1       2.678  12.901  -5.341  1.00  0.00     0.293 C 
HETATM   54  O4  UNL     1       1.813  13.492  -5.968  1.00  0.00    -0.259 OA
BRANCH  53  55
HETATM   55  O5  UNL     1       3.907  13.389  -5.035  1.00  0.00    -0.323 OA
HETATM   56  C35 UNL     1       4.138  14.715  -5.515  1.00  0.00     0.213 C 
ENDBRANCH  53  55
ENDBRANCH  48  53
ENDBRANCH  43  45
ENDBRANCH  36  41
ENDBRANCH  31  33
ENDBRANCH  24  29
ENDBRANCH  19  21
ENDBRANCH   5  17
BRANCH   7  57
HETATM   57  C9  UNL     1       5.242  -8.482   4.835  1.00  0.00    -0.024 C 
HETATM   58  C10 UNL     1       5.534  -7.406   5.906  1.00  0.00     0.019 C 
HETATM   59  C11 UNL     1       4.551  -9.662   5.553  1.00  0.00     0.019 C 
HETATM   60  C12 UNL     1       6.603  -8.952   4.278  1.00  0.00     0.019 C 
ENDBRANCH   7  57
BRANCH  14  61
HETATM   61  C45 UNL     1      -0.010  -5.611  -1.364  1.00  0.00     0.259 C 
HETATM   62  O10 UNL     1      -0.141  -4.975  -2.405  1.00  0.00    -0.267 OA
HETATM   63  N4  UNL     1      -0.416  -5.221  -0.109  1.00  0.00    -0.320 N 
HETATM   64  H74 UNL     1      -0.208  -5.831   0.677  1.00  0.00     0.169 HD
BRANCH  63  65
HETATM   65  C46 UNL     1      -1.099  -4.043   0.269  1.00  0.00     0.068 A 
HETATM   66  C47 UNL     1      -1.364  -3.878   1.643  1.00  0.00     0.096 A 
HETATM   67  C48 UNL     1      -2.044  -2.741   2.091  1.00  0.00     0.056 A 
HETATM   68  C49 UNL     1      -2.455  -1.752   1.183  1.00  0.00     0.035 A 
HETATM   69  C50 UNL     1      -2.195  -1.924  -0.181  1.00  0.00     0.019 A 
HETATM   70  C51 UNL     1      -1.516  -3.063  -0.634  1.00  0.00     0.033 A 
BRANCH  66  71
HETATM   71  O17 UNL     1      -0.931  -4.903   2.454  1.00  0.00    -0.354 OA
HETATM   72  C70 UNL     1      -0.914  -4.644   3.854  1.00  0.00     0.210 C 
ENDBRANCH  66  71
BRANCH  68  73
HETATM   73  C52 UNL     1      -3.235  -0.590   1.716  1.00  0.00     0.256 C 
HETATM   74  O11 UNL     1      -3.798  -0.729   2.799  1.00  0.00    -0.267 OA
HETATM   75  N5  UNL     1      -3.269   0.540   0.925  1.00  0.00    -0.321 N 
HETATM   76  H75 UNL     1      -2.618   0.612   0.143  1.00  0.00     0.169 HD
BRANCH  75  77
HETATM   77  C53 UNL     1      -4.057   1.703   1.102  1.00  0.00     0.068 A 
HETATM   78  C54 UNL     1      -4.018   2.673   0.076  1.00  0.00     0.096 A 
HETATM   79  C55 UNL     1      -4.755   3.854   0.204  1.00  0.00     0.056 A 
HETATM   80  C56 UNL     1      -5.546   4.070   1.339  1.00  0.00     0.035 A 
HETATM   81  C57 UNL     1      -5.625   3.090   2.331  1.00  0.00     0.019 A 
HETATM   82  C58 UNL     1      -4.880   1.913   2.212  1.00  0.00     0.033 A 
BRANCH  78  83
HETATM   83  O16 UNL     1      -3.237   2.363  -1.013  1.00  0.00    -0.354 OA
HETATM   84  C69 UNL     1      -3.477   3.106  -2.203  1.00  0.00     0.210 C 
ENDBRANCH  78  83
BRANCH  80  85
HETATM   85  C59 UNL     1      -6.309   5.344   1.425  1.00  0.00     0.256 C 
HETATM   86  O12 UNL     1      -6.864   5.740   0.408  1.00  0.00    -0.267 OA
HETATM   87  N6  UNL     1      -6.344   5.918   2.683  1.00  0.00    -0.321 N 
HETATM   88  H76 UNL     1      -6.032   5.348   3.456  1.00  0.00     0.169 HD
BRANCH  87  89
HETATM   89  C60 UNL     1      -6.909   7.166   3.034  1.00  0.00     0.068 A 
HETATM   90  C61 UNL     1      -7.005   8.282   2.187  1.00  0.00     0.096 A 
HETATM   91  C62 UNL     1      -7.589   9.471   2.651  1.00  0.00     0.056 A 
HETATM   92  C63 UNL     1      -8.086   9.560   3.957  1.00  0.00     0.042 A 
HETATM   93  C64 UNL     1      -7.965   8.460   4.811  1.00  0.00     0.020 A 
HETATM   94  C65 UNL     1      -7.367   7.281   4.355  1.00  0.00     0.033 A 
BRANCH  90  95
HETATM   95  O15 UNL     1      -6.359   8.283   0.978  1.00  0.00    -0.354 OA
HETATM   96  C68 UNL     1      -7.212   8.650  -0.106  1.00  0.00     0.210 C 
ENDBRANCH  90  95
BRANCH  92  97
HETATM   97  C66 UNL     1      -8.701  10.845   4.389  1.00  0.00     0.293 C 
HETATM   98  O13 UNL     1      -8.814  11.818   3.661  1.00  0.00    -0.259 OA
BRANCH  97  99
HETATM   99  O14 UNL     1      -9.107  10.770   5.681  1.00  0.00    -0.323 OA
HETATM  100  C67 UNL     1      -9.711  11.970   6.168  1.00  0.00     0.213 C 
ENDBRANCH  97  99
ENDBRANCH  92  97
ENDBRANCH  87  89
ENDBRANCH  80  85
ENDBRANCH  75  77
ENDBRANCH  68  73
ENDBRANCH  63  65
ENDBRANCH  14  61
BRANCH  12 101
HETATM  101  C71 UNL     1       0.266  -9.913  -3.962  1.00  0.00    -0.024 C 
HETATM  102  C72 UNL     1      -0.649  -9.186  -4.973  1.00  0.00     0.019 C 
HETATM  103  C73 UNL     1      -0.492 -11.169  -3.481  1.00  0.00     0.019 C 
HETATM  104  C74 UNL     1       1.536 -10.347  -4.727  1.00  0.00     0.019 C 
ENDBRANCH  12 101
TORSDOF 24
