REMARK  22 active torsions:
REMARK  status: ('A' for Active; 'I' for Inactive)
REMARK    1  A    between atoms: C2_2  and  C3_3 
REMARK    2  A    between atoms: C3_3  and  N1_40 
REMARK    3  A    between atoms: C4_4  and  C5_5 
REMARK    4  A    between atoms: C4_4  and  N1_40 
REMARK    5  A    between atoms: C5_5  and  C6_6 
REMARK    6  A    between atoms: C6_6  and  N2_41 
REMARK       I    between atoms: C7_7  and  N2_41 
REMARK    7  A    between atoms: C7_7  and  O2_48 
REMARK    8  A    between atoms: C8_8  and  O2_48 
REMARK    9  A    between atoms: C12_12  and  C13_13 
REMARK       I    between atoms: C12_12  and  N1_40 
REMARK   10  A    between atoms: C18_18  and  C21_21 
REMARK       I    between atoms: C21_21  and  N3_42 
REMARK   11  A    between atoms: C22_22  and  N3_42 
REMARK   12  A    between atoms: C26_26  and  C28_28 
REMARK   13  A    between atoms: C28_28  and  O5_51 
REMARK   14  A    between atoms: C29_29  and  C30_30 
REMARK   15  A    between atoms: C29_29  and  O5_51 
REMARK   16  A    between atoms: C30_30  and  O6_52 
REMARK   17  A    between atoms: C31_31  and  C32_32 
REMARK   18  A    between atoms: C31_31  and  O6_52 
REMARK   19  A    between atoms: C32_32  and  N4_43 
REMARK       I    between atoms: C33_33  and  N4_43 
REMARK   20  A    between atoms: C33_33  and  O8_54 
REMARK   21  A    between atoms: C34_34  and  O8_54 
REMARK   22  A    between atoms: C38_38  and  N6_46 
ROOT
HETATM    1  C13 UNL     1      -4.665  -0.166  -2.693  1.00  0.00     0.017 C 
HETATM    2  C14 UNL     1      -3.479   0.461  -2.634  1.00  0.00     0.026 C 
HETATM    3  C15 UNL     1      -2.215  -0.294  -2.647  1.00  0.00    -0.009 A 
HETATM    4  C16 UNL     1      -1.993  -1.414  -3.485  1.00  0.00     0.044 A 
HETATM    5  C17 UNL     1      -0.751  -2.060  -3.443  1.00  0.00     0.047 A 
HETATM    6  C18 UNL     1       0.256  -1.634  -2.569  1.00  0.00     0.034 A 
HETATM    7  C19 UNL     1       0.036  -0.516  -1.758  1.00  0.00     0.018 A 
HETATM    8  C20 UNL     1      -1.189   0.151  -1.799  1.00  0.00     0.014 A 
HETATM    9  C38 UNL     1      -4.182  -1.984  -4.195  1.00  0.00     0.058 C 
HETATM   10  C39 UNL     1      -4.814  -1.643  -2.856  1.00  0.00     0.114 C 
HETATM   11  N5  UNL     1      -2.907  -1.894  -4.447  1.00  0.00    -0.350 N 
ATOM     12  H5  UNL     1      -2.560  -2.178  -5.363  1.00  0.00     0.167 HD
ENDROOT
BRANCH   6  13
HETATM   13  C21 UNL     1       1.582  -2.315  -2.500  1.00  0.00     0.256 C 
HETATM   14  N3  UNL     1       1.556  -3.676  -2.750  1.00  0.00    -0.323 N 
HETATM   15  H53 UNL     1       0.648  -4.114  -2.823  1.00  0.00     0.169 HD
HETATM   16  O4  UNL     1       2.559  -1.645  -2.186  1.00  0.00    -0.267 OA
BRANCH  14  17
HETATM   17  C22 UNL     1       2.658  -4.555  -2.809  1.00  0.00     0.035 A 
HETATM   18  C23 UNL     1       2.377  -5.922  -2.918  1.00  0.00     0.029 A 
HETATM   19  C24 UNL     1       3.411  -6.859  -2.984  1.00  0.00     0.003 A 
HETATM   20  C25 UNL     1       4.738  -6.437  -2.943  1.00  0.00     0.009 A 
HETATM   21  C26 UNL     1       5.043  -5.074  -2.833  1.00  0.00    -0.032 A 
HETATM   22  C27 UNL     1       3.991  -4.140  -2.785  1.00  0.00     0.038 A 
BRANCH  21  23
HETATM   23  C28 UNL     1       6.487  -4.625  -2.834  1.00  0.00     0.206 C 
BRANCH  23  24
HETATM   24  O5  UNL     1       6.709  -3.450  -2.056  1.00  0.00    -0.385 OA
BRANCH  24  25
HETATM   25  C29 UNL     1       6.732  -3.707  -0.647  1.00  0.00     0.194 C 
BRANCH  25  26
HETATM   26  C30 UNL     1       6.988  -2.393   0.089  1.00  0.00     0.193 C 
BRANCH  26  27
HETATM   27  O6  UNL     1       8.383  -2.075   0.018  1.00  0.00    -0.387 OA
BRANCH  27  28
HETATM   28  C31 UNL     1       8.673  -0.709   0.316  1.00  0.00     0.187 C 
BRANCH  28  29
HETATM   29  C32 UNL     1       8.483  -0.370   1.798  1.00  0.00     0.151 C 
BRANCH  29  30
HETATM   30  N4  UNL     1       8.777   1.013   2.099  1.00  0.00    -0.335 N 
HETATM   31  C33 UNL     1      10.048   1.479   2.248  1.00  0.00     0.361 C 
HETATM   32  O7  UNL     1      11.053   0.789   2.227  1.00  0.00    -0.238 OA
HETATM   33  H54 UNL     1       8.053   1.716   2.051  1.00  0.00     0.164 HD
BRANCH  31  34
HETATM   34  O8  UNL     1       9.998   2.820   2.410  1.00  0.00    -0.294 OA
BRANCH  34  35
HETATM   35  C34 UNL     1      11.216   3.589   2.584  1.00  0.00     0.061 C 
HETATM   36  C35 UNL     1      11.954   3.183   3.865  1.00  0.00     0.046 C 
HETATM   37  C36 UNL     1      12.117   3.493   1.348  1.00  0.00     0.046 C 
HETATM   38  C37 UNL     1      10.741   5.043   2.733  1.00  0.00     0.046 C 
ENDBRANCH  34  35
ENDBRANCH  31  34
ENDBRANCH  29  30
ENDBRANCH  28  29
ENDBRANCH  27  28
ENDBRANCH  26  27
ENDBRANCH  25  26
ENDBRANCH  24  25
ENDBRANCH  23  24
ENDBRANCH  21  23
ENDBRANCH  14  17
ENDBRANCH   6  13
BRANCH   9  39
HETATM   39  N6  UNL     1      -5.014  -2.375  -5.214  1.00  0.00    -0.292 NA
HETATM   40  H55 UNL     1      -4.541  -2.310  -6.110  1.00  0.00     0.125 HD
HETATM   41  H56 UNL     1      -5.904  -1.881  -5.232  1.00  0.00     0.125 HD
ENDBRANCH   9  39
BRANCH   1  42
HETATM   42  C12 UNL     1      -5.915   0.624  -2.786  1.00  0.00     0.250 C 
HETATM   43  N1  UNL     1      -6.348   1.302  -1.656  1.00  0.00    -0.348 N 
HETATM   44  O3  UNL     1      -6.531   0.602  -3.851  1.00  0.00    -0.268 OA
BRANCH  43  45
HETATM   45  C3  UNL     1      -5.717   1.223  -0.330  1.00  0.00     0.125 C 
BRANCH  45  46
HETATM   46  C2  UNL     1      -4.929   2.486   0.021  1.00  0.00     0.015 C 
HETATM   47  C1  UNL     1      -4.246   2.352   1.372  1.00  0.00     0.006 C 
ENDBRANCH  45  46
ENDBRANCH  43  45
BRANCH  43  48
HETATM   48  C4  UNL     1      -7.566   2.108  -1.775  1.00  0.00     0.127 C 
BRANCH  48  49
HETATM   49  C5  UNL     1      -8.865   1.293  -1.822  1.00  0.00     0.040 C 
BRANCH  49  50
HETATM   50  C6  UNL     1      -9.211   0.586  -0.517  1.00  0.00     0.126 C 
BRANCH  50  51
HETATM   51  N2  UNL     1      -9.510   1.521   0.546  1.00  0.00    -0.337 N 
HETATM   52  C7  UNL     1      -9.102   1.337   1.832  1.00  0.00     0.361 C 
HETATM   53  O1  UNL     1      -8.339   0.464   2.211  1.00  0.00    -0.238 OA
HETATM   54  H52 UNL     1     -10.256   2.193   0.432  1.00  0.00     0.164 HD
BRANCH  52  55
HETATM   55  O2  UNL     1      -9.679   2.286   2.603  1.00  0.00    -0.294 OA
BRANCH  55  56
HETATM   56  C8  UNL     1      -9.398   2.353   4.026  1.00  0.00     0.061 C 
HETATM   57  C9  UNL     1     -10.221   3.550   4.528  1.00  0.00     0.046 C 
HETATM   58  C10 UNL     1      -7.914   2.636   4.287  1.00  0.00     0.046 C 
HETATM   59  C11 UNL     1      -9.878   1.091   4.750  1.00  0.00     0.046 C 
ENDBRANCH  55  56
ENDBRANCH  52  55
ENDBRANCH  50  51
ENDBRANCH  49  50
ENDBRANCH  48  49
ENDBRANCH  43  48
ENDBRANCH   1  42
TORSDOF 22
