REMARK  30 active torsions:
REMARK  status: ('A' for Active; 'I' for Inactive)
REMARK    1  A    between atoms: C2_2  and  C40_40 
REMARK    2  A    between atoms: C4_4  and  N13_56 
REMARK    3  A    between atoms: C5_5  and  S2_74 
REMARK    4  A    between atoms: C6_6  and  N1_41 
REMARK    5  A    between atoms: C7_7  and  C8_8 
REMARK       I    between atoms: C7_7  and  N1_41 
REMARK    6  A    between atoms: C10_10  and  C12_12 
REMARK       I    between atoms: C12_12  and  N4_46 
REMARK    7  A    between atoms: C13_13  and  N4_46 
REMARK    8  A    between atoms: C14_14  and  S1_73 
REMARK    9  A    between atoms: C15_15  and  N5_47 
REMARK   10  A    between atoms: C17_17  and  C19_19 
REMARK   11  A    between atoms: C20_20  and  C21_21 
REMARK       I    between atoms: C20_20  and  N5_47 
REMARK   12  A    between atoms: C21_21  and  C22_22 
REMARK   13  A    between atoms: C22_22  and  C23_23 
REMARK   14  A    between atoms: C23_23  and  C24_24 
REMARK   15  A    between atoms: C24_24  and  N6_48 
REMARK       I    between atoms: C25_25  and  N7_50 
REMARK       I    between atoms: C25_25  and  N8_51 
REMARK   16  A    between atoms: C26_26  and  C27_27 
REMARK   17  A    between atoms: C26_26  and  S1_73 
REMARK   18  A    between atoms: C27_27  and  N9_52 
REMARK   19  A    between atoms: C28_28  and  C29_29 
REMARK       I    between atoms: C28_28  and  N9_52 
REMARK   20  A    between atoms: C29_29  and  N10_53 
REMARK   21  A    between atoms: C30_30  and  C31_31 
REMARK   22  A    between atoms: C30_30  and  S2_74 
REMARK   23  A    between atoms: C31_31  and  N11_54 
REMARK   24  A    between atoms: C32_32  and  C33_33 
REMARK       I    between atoms: C32_32  and  N11_54 
REMARK   25  A    between atoms: C33_33  and  N12_55 
REMARK   26  A    between atoms: C34_34  and  C35_35 
REMARK       I    between atoms: C34_34  and  N13_56 
REMARK   27  A    between atoms: C35_35  and  C36_36 
REMARK   28  A    between atoms: C36_36  and  C37_37 
REMARK   29  A    between atoms: C37_37  and  C38_38 
REMARK   30  A    between atoms: C38_38  and  N14_57 
REMARK       I    between atoms: C39_39  and  N15_59 
REMARK       I    between atoms: C39_39  and  N16_60 
ROOT
HETATM    1  C8  UNL     1       1.738   0.348   2.803  1.00  0.00     0.104 A 
HETATM    2  C9  UNL     1       0.593   0.349   3.561  1.00  0.00     0.070 A 
HETATM    3  C10 UNL     1      -0.570   0.267   2.836  1.00  0.00     0.104 A 
HETATM    4  C11 UNL     1       0.562   0.197   0.855  1.00  0.00     0.181 A 
HETATM    5  N2  UNL     1      -0.618   0.185   1.481  1.00  0.00    -0.348 N 
ATOM      6  H2  UNL     1      -1.500   0.118   0.973  1.00  0.00     0.167 HD
HETATM    7  N3  UNL     1       1.759   0.271   1.445  1.00  0.00    -0.348 N 
ATOM      8  H3  UNL     1       2.629   0.270   0.913  1.00  0.00     0.167 HD
ENDROOT
BRANCH   1   9
HETATM    9  C7  UNL     1       3.077   0.431   3.474  1.00  0.00     0.272 C 
HETATM   10  N1  UNL     1       4.128   0.463   2.580  1.00  0.00    -0.320 N 
HETATM   11  H35 UNL     1       3.857   0.437   1.597  1.00  0.00     0.169 HD
HETATM   12  O1  UNL     1       3.146   0.456   4.695  1.00  0.00    -0.266 OA
BRANCH  10  13
HETATM   13  C6  UNL     1       5.515   0.548   2.835  1.00  0.00     0.055 A 
HETATM   14  C1  UNL     1       6.032   0.647   4.128  1.00  0.00     0.047 A 
HETATM   15  C2  UNL     1       7.414   0.745   4.344  1.00  0.00     0.052 A 
HETATM   16  C3  UNL     1       8.284   0.732   3.243  1.00  0.00     0.047 A 
HETATM   17  C4  UNL     1       7.800   0.638   1.934  1.00  0.00     0.054 A 
HETATM   18  C5  UNL     1       6.405   0.532   1.732  1.00  0.00     0.054 A 
BRANCH  15  19
HETATM   19  C40 UNL     1       7.963   0.831   5.749  1.00  0.00     0.417 C 
HETATM   20  F4  UNL     1       7.114   1.447   6.618  1.00  0.00    -0.166 F 
HETATM   21  F5  UNL     1       8.216  -0.397   6.279  1.00  0.00    -0.166 F 
HETATM   22  F6  UNL     1       9.133   1.524   5.827  1.00  0.00    -0.166 F 
ENDBRANCH  15  19
BRANCH  17  23
HETATM   23  N13 UNL     1       8.660   0.647   0.806  1.00  0.00    -0.326 N 
HETATM   24  C34 UNL     1      10.030   0.481   0.799  1.00  0.00     0.222 C 
HETATM   25  O6  UNL     1      10.750   0.332   1.782  1.00  0.00    -0.273 OA
HETATM   26  H48 UNL     1       8.202   0.752  -0.099  1.00  0.00     0.169 HD
BRANCH  24  27
HETATM   27  C35 UNL     1      10.632   0.480  -0.592  1.00  0.00     0.103 C 
BRANCH  27  28
HETATM   28  C36 UNL     1      11.227   1.838  -0.944  1.00  0.00     0.011 C 
BRANCH  28  29
HETATM   29  C37 UNL     1      10.210   2.924  -1.309  1.00  0.00     0.020 C 
BRANCH  29  30
HETATM   30  C38 UNL     1       9.450   2.635  -2.604  1.00  0.00     0.121 C 
BRANCH  30  31
HETATM   31  N14 UNL     1       8.232   1.877  -2.306  1.00  0.00    -0.372 N 
HETATM   32  C39 UNL     1       7.544   1.475  -3.308  1.00  0.00     0.121 C 
HETATM   33  N15 UNL     1       7.779   1.558  -4.635  1.00  0.00    -0.279 NA
HETATM   34  N16 UNL     1       6.361   0.851  -3.100  1.00  0.00    -0.279 NA
HETATM   35  H49 UNL     1       8.708   1.872  -4.888  1.00  0.00     0.126 HD
HETATM   36  H50 UNL     1       7.593   0.673  -5.112  1.00  0.00     0.126 HD
HETATM   37  H51 UNL     1       6.021   1.072  -2.163  1.00  0.00     0.126 HD
HETATM   38  H52 UNL     1       5.673   1.164  -3.779  1.00  0.00     0.126 HD
ATOM     39  H14 UNL     1       7.946   1.679  -1.347  1.00  0.00     0.161 HD
ENDBRANCH  30  31
ENDBRANCH  29  30
ENDBRANCH  28  29
ENDBRANCH  27  28
ENDBRANCH  24  27
ENDBRANCH  17  23
BRANCH  18  40
HETATM   40  S2  UNL     1       5.739   0.324   0.061  1.00  0.00    -0.124 SA
BRANCH  40  41
HETATM   41  C30 UNL     1       5.631  -1.509   0.005  1.00  0.00     0.099 C 
BRANCH  41  42
HETATM   42  C31 UNL     1       6.922  -2.183  -0.465  1.00  0.00     0.133 C 
BRANCH  42  43
HETATM   43  N11 UNL     1       7.314  -1.797  -1.810  1.00  0.00    -0.359 N 
HETATM   44  C32 UNL     1       8.201  -2.571  -2.535  1.00  0.00     0.245 C 
HETATM   45  O5  UNL     1       8.601  -3.669  -2.162  1.00  0.00    -0.272 OA
HETATM   46  H45 UNL     1       7.249  -0.813  -2.065  1.00  0.00     0.162 HD
BRANCH  44  47
HETATM   47  C33 UNL     1       8.654  -1.934  -3.854  1.00  0.00     0.368 C 
BRANCH  47  48
HETATM   48  N12 UNL     1       7.495  -1.586  -4.702  1.00  0.00     0.087 N 
HETATM   49  H46 UNL     1       7.037  -2.462  -4.964  1.00  0.00     0.313 HD
HETATM   50  H47 UNL     1       6.809  -1.109  -4.107  1.00  0.00     0.313 HD
ENDBRANCH  47  48
ENDBRANCH  44  47
ENDBRANCH  42  43
ENDBRANCH  41  42
ENDBRANCH  40  41
ENDBRANCH  18  40
ENDBRANCH  10  13
ENDBRANCH   1   9
BRANCH   3  51
HETATM   51  C12 UNL     1      -1.893   0.266   3.542  1.00  0.00     0.272 C 
HETATM   52  N4  UNL     1      -2.967   0.188   2.682  1.00  0.00    -0.320 N 
HETATM   53  H36 UNL     1      -2.732   0.136   1.689  1.00  0.00     0.169 HD
HETATM   54  O2  UNL     1      -1.927   0.327   4.764  1.00  0.00    -0.266 OA
BRANCH  52  55
HETATM   55  C13 UNL     1      -4.350   0.195   2.971  1.00  0.00     0.055 A 
HETATM   56  C14 UNL     1      -5.262   0.076   1.891  1.00  0.00     0.054 A 
HETATM   57  C15 UNL     1      -6.652   0.139   2.146  1.00  0.00     0.054 A 
HETATM   58  C16 UNL     1      -7.111   0.184   3.468  1.00  0.00     0.047 A 
HETATM   59  C17 UNL     1      -6.214   0.271   4.541  1.00  0.00     0.052 A 
HETATM   60  C18 UNL     1      -4.837   0.302   4.278  1.00  0.00     0.047 A 
BRANCH  56  61
HETATM   61  S1  UNL     1      -4.584  -0.365   0.261  1.00  0.00    -0.124 SA
BRANCH  61  62
HETATM   62  C26 UNL     1      -5.324  -2.026   0.070  1.00  0.00     0.099 C 
BRANCH  62  63
HETATM   63  C27 UNL     1      -6.035  -2.147  -1.277  1.00  0.00     0.133 C 
BRANCH  63  64
HETATM   64  N9  UNL     1      -6.789  -3.379  -1.391  1.00  0.00    -0.359 N 
HETATM   65  C28 UNL     1      -7.997  -3.584  -0.762  1.00  0.00     0.245 C 
HETATM   66  O4  UNL     1      -8.534  -2.757  -0.029  1.00  0.00    -0.272 OA
HETATM   67  H42 UNL     1      -6.444  -4.162  -1.944  1.00  0.00     0.162 HD
BRANCH  65  68
HETATM   68  C29 UNL     1      -8.599  -4.970  -1.025  1.00  0.00     0.368 C 
BRANCH  68  69
HETATM   69  N10 UNL     1      -7.998  -5.597  -2.223  1.00  0.00     0.087 N 
HETATM   70  H43 UNL     1      -8.319  -5.076  -3.042  1.00  0.00     0.313 HD
HETATM   71  H44 UNL     1      -8.400  -6.529  -2.326  1.00  0.00     0.313 HD
ENDBRANCH  68  69
ENDBRANCH  65  68
ENDBRANCH  63  64
ENDBRANCH  62  63
ENDBRANCH  61  62
ENDBRANCH  56  61
BRANCH  57  72
HETATM   72  N5  UNL     1      -7.651   0.117   1.145  1.00  0.00    -0.326 N 
HETATM   73  C20 UNL     1      -7.648   0.959   0.042  1.00  0.00     0.222 C 
HETATM   74  O3  UNL     1      -6.812   1.825  -0.193  1.00  0.00    -0.273 OA
HETATM   75  H37 UNL     1      -8.564  -0.234   1.413  1.00  0.00     0.169 HD
BRANCH  73  76
HETATM   76  C21 UNL     1      -8.874   0.749  -0.834  1.00  0.00     0.103 C 
BRANCH  76  77
HETATM   77  C22 UNL     1      -8.751   1.471  -2.175  1.00  0.00     0.011 C 
BRANCH  77  78
HETATM   78  C23 UNL     1      -9.881   1.135  -3.150  1.00  0.00     0.020 C 
BRANCH  78  79
HETATM   79  C24 UNL     1     -11.253   1.608  -2.672  1.00  0.00     0.121 C 
BRANCH  79  80
HETATM   80  N6  UNL     1     -12.255   1.307  -3.690  1.00  0.00    -0.372 N 
HETATM   81  C25 UNL     1     -12.550   2.184  -4.570  1.00  0.00     0.121 C 
HETATM   82  N7  UNL     1     -12.054   3.424  -4.772  1.00  0.00    -0.279 NA
HETATM   83  N8  UNL     1     -13.504   1.918  -5.488  1.00  0.00    -0.279 NA
HETATM   84  H38 UNL     1     -11.168   3.596  -4.314  1.00  0.00     0.126 HD
HETATM   85  H39 UNL     1     -11.993   3.652  -5.758  1.00  0.00     0.126 HD
HETATM   86  H40 UNL     1     -13.981   1.056  -5.237  1.00  0.00     0.126 HD
HETATM   87  H41 UNL     1     -14.172   2.675  -5.572  1.00  0.00     0.126 HD
ATOM     88  H6  UNL     1     -12.718   0.398  -3.698  1.00  0.00     0.161 HD
ENDBRANCH  79  80
ENDBRANCH  78  79
ENDBRANCH  77  78
ENDBRANCH  76  77
ENDBRANCH  73  76
ENDBRANCH  57  72
BRANCH  59  89
HETATM   89  C19 UNL     1      -6.712   0.373   5.962  1.00  0.00     0.417 C 
HETATM   90  F1  UNL     1      -8.031   0.053   6.091  1.00  0.00    -0.166 F 
HETATM   91  F2  UNL     1      -6.584   1.629   6.469  1.00  0.00    -0.166 F 
HETATM   92  F3  UNL     1      -6.048  -0.452   6.817  1.00  0.00    -0.166 F 
ENDBRANCH  59  89
ENDBRANCH  52  55
ENDBRANCH   3  51
TORSDOF 30
