REMARK  30 active torsions:
REMARK  status: ('A' for Active; 'I' for Inactive)
REMARK    1  A    between atoms: C2_2  and  C39_39 
REMARK    2  A    between atoms: C2_2  and  O22_66 
REMARK    3  A    between atoms: C3_3  and  O16_60 
REMARK    4  A    between atoms: C4_4  and  O3_47 
REMARK    5  A    between atoms: C4_4  and  S1_67 
REMARK    6  A    between atoms: C5_5  and  C6_6 
REMARK    7  A    between atoms: C6_6  and  O2_46 
REMARK    8  A    between atoms: C7_7  and  S1_67 
REMARK    9  A    between atoms: C10_10  and  N1_69 
REMARK   10  A    between atoms: C13_13  and  C14_14 
REMARK       I    between atoms: C13_13  and  N1_69 
REMARK   11  A    between atoms: C17_17  and  C20_20 
REMARK       I    between atoms: C20_20  and  N2_70 
REMARK   12  A    between atoms: C21_21  and  N2_70 
REMARK   13  A    between atoms: C24_24  and  S2_68 
REMARK   14  A    between atoms: C27_27  and  O15_59 
REMARK   15  A    between atoms: C27_27  and  S2_68 
REMARK   16  A    between atoms: C28_28  and  C38_38 
REMARK   17  A    between atoms: C30_30  and  C32_32 
REMARK   18  A    between atoms: C30_30  and  O13_57 
REMARK   19  A    between atoms: C31_31  and  O7_51 
REMARK   20  A    between atoms: C33_33  and  O12_56 
REMARK   21  A    between atoms: C34_34  and  O11_55 
REMARK   22  A    between atoms: C35_35  and  O10_54 
REMARK   23  A    between atoms: C36_36  and  C37_37 
REMARK   24  A    between atoms: C37_37  and  O9_53 
REMARK   25  A    between atoms: C38_38  and  O14_58 
REMARK   26  A    between atoms: C40_40  and  O21_65 
REMARK   27  A    between atoms: C41_41  and  O20_64 
REMARK   28  A    between atoms: C42_42  and  O19_63 
REMARK   29  A    between atoms: C43_43  and  C44_44 
REMARK   30  A    between atoms: C44_44  and  O18_62 
ROOT
HETATM    1  C14 UNL     1      -1.654  -1.090  -1.639  1.00  0.00     0.032 A 
HETATM    2  C15 UNL     1      -0.597  -1.514  -0.822  1.00  0.00     0.018 A 
HETATM    3  C16 UNL     1       0.724  -1.216  -1.175  1.00  0.00     0.018 A 
HETATM    4  C17 UNL     1       0.990  -0.504  -2.353  1.00  0.00     0.032 A 
HETATM    5  C18 UNL     1      -0.067  -0.079  -3.166  1.00  0.00     0.018 A 
HETATM    6  C19 UNL     1      -1.385  -0.383  -2.817  1.00  0.00     0.018 A 
ENDROOT
BRANCH   1   7
HETATM    7  C13 UNL     1      -3.071  -1.397  -1.301  1.00  0.00     0.256 C 
HETATM    8  O4  UNL     1      -3.835  -1.675  -2.216  1.00  0.00    -0.267 OA
HETATM    9  N1  UNL     1      -3.380  -1.294   0.043  1.00  0.00    -0.323 N 
HETATM   10  H55 UNL     1      -2.667  -0.910   0.650  1.00  0.00     0.169 HD
BRANCH   9  11
HETATM   11  C10 UNL     1      -4.618  -1.572   0.657  1.00  0.00     0.035 A 
HETATM   12  C9  UNL     1      -4.732  -1.297   2.025  1.00  0.00     0.031 A 
HETATM   13  C8  UNL     1      -5.927  -1.548   2.708  1.00  0.00     0.021 A 
HETATM   14  C7  UNL     1      -7.029  -2.072   2.032  1.00  0.00     0.003 A 
HETATM   15  C12 UNL     1      -6.911  -2.371   0.674  1.00  0.00     0.021 A 
HETATM   16  C11 UNL     1      -5.716  -2.116  -0.011  1.00  0.00     0.031 A 
BRANCH  14  17
HETATM   17  S1  UNL     1      -8.555  -2.420   2.886  1.00  0.00    -0.087 SA
BRANCH  17  18
HETATM   18  C4  UNL     1      -9.221  -0.713   3.174  1.00  0.00     0.167 C 
HETATM   19  C3  UNL     1      -9.570   0.010   1.823  1.00  0.00     0.205 C 
HETATM   20  C2  UNL     1     -11.093   0.077   1.556  1.00  0.00     0.137 C 
HETATM   21  C1  UNL     1     -11.787   0.719   2.790  1.00  0.00     0.211 C 
HETATM   22  O1  UNL     1     -11.160   0.457   4.058  1.00  0.00    -0.377 OA
HETATM   23  C5  UNL     1     -10.471  -0.811   4.091  1.00  0.00     0.193 C 
BRANCH  19  24
HETATM   24  O16 UNL     1      -9.008   1.342   1.822  1.00  0.00    -0.388 OA
HETATM   25  H49 UNL     1      -8.040   1.211   1.896  1.00  0.00     0.210 HD
ENDBRANCH  19  24
BRANCH  20  26
HETATM   26  C39 UNL     1     -11.467   0.894   0.272  1.00  0.00     0.192 C 
HETATM   27  C40 UNL     1     -11.233   0.142  -1.053  1.00  0.00     0.181 C 
HETATM   28  C41 UNL     1     -11.570   1.069  -2.222  1.00  0.00     0.180 C 
HETATM   29  C42 UNL     1     -13.007   1.579  -2.110  1.00  0.00     0.180 C 
HETATM   30  C43 UNL     1     -13.241   2.183  -0.714  1.00  0.00     0.177 C 
HETATM   31  O17 UNL     1     -12.867   1.263   0.322  1.00  0.00    -0.370 OA
BRANCH  27  32
HETATM   32  O21 UNL     1      -9.897  -0.335  -1.192  1.00  0.00    -0.390 OA
HETATM   33  H53 UNL     1      -9.791  -0.518  -2.150  1.00  0.00     0.210 HD
ENDBRANCH  27  32
BRANCH  28  34
HETATM   34  O20 UNL     1     -11.392   0.349  -3.453  1.00  0.00    -0.390 OA
HETATM   35  H52 UNL     1     -11.787   0.928  -4.138  1.00  0.00     0.210 HD
ENDBRANCH  28  34
BRANCH  29  36
HETATM   36  O19 UNL     1     -13.217   2.527  -3.164  1.00  0.00    -0.390 OA
HETATM   37  H51 UNL     1     -14.030   3.027  -2.925  1.00  0.00     0.210 HD
ENDBRANCH  29  36
BRANCH  30  38
HETATM   38  C44 UNL     1     -14.717   2.552  -0.508  1.00  0.00     0.198 C 
BRANCH  38  39
HETATM   39  O18 UNL     1     -15.171   3.433  -1.533  1.00  0.00    -0.398 OA
HETATM   40  H50 UNL     1     -16.076   3.701  -1.287  1.00  0.00     0.209 HD
ENDBRANCH  38  39
ENDBRANCH  30  38
ENDBRANCH  20  26
BRANCH  20  41
HETATM   41  O22 UNL     1     -11.599  -1.271   1.423  1.00  0.00    -0.382 OA
HETATM   42  H54 UNL     1     -11.084  -1.719   0.725  1.00  0.00     0.210 HD
ENDBRANCH  20  41
BRANCH  23  43
HETATM   43  C6  UNL     1     -10.132  -1.078   5.566  1.00  0.00     0.200 C 
BRANCH  43  44
HETATM   44  O2  UNL     1     -11.343  -1.143   6.329  1.00  0.00    -0.398 OA
HETATM   45  H39 UNL     1     -11.864  -0.365   6.051  1.00  0.00     0.209 HD
ENDBRANCH  43  44
ENDBRANCH  23  43
BRANCH  18  46
HETATM   46  O3  UNL     1      -8.227   0.096   3.842  1.00  0.00    -0.373 OA
HETATM   47  H40 UNL     1      -8.657   0.970   3.945  1.00  0.00     0.212 HD
ENDBRANCH  18  46
ENDBRANCH  17  18
ENDBRANCH  14  17
ENDBRANCH   9  11
ENDBRANCH   1   7
BRANCH   4  48
HETATM   48  C20 UNL     1       2.381  -0.158  -2.757  1.00  0.00     0.256 C 
HETATM   49  O5  UNL     1       2.577   0.939  -3.263  1.00  0.00    -0.267 OA
HETATM   50  N2  UNL     1       3.313  -1.155  -2.534  1.00  0.00    -0.323 N 
HETATM   51  H56 UNL     1       2.962  -2.051  -2.221  1.00  0.00     0.169 HD
BRANCH  50  52
HETATM   52  C21 UNL     1       4.700  -1.099  -2.782  1.00  0.00     0.035 A 
HETATM   53  C22 UNL     1       5.366   0.035  -3.249  1.00  0.00     0.031 A 
HETATM   54  C23 UNL     1       6.750   0.011  -3.461  1.00  0.00     0.021 A 
HETATM   55  C24 UNL     1       7.491  -1.138  -3.186  1.00  0.00     0.003 A 
HETATM   56  C25 UNL     1       6.824  -2.283  -2.747  1.00  0.00     0.021 A 
HETATM   57  C26 UNL     1       5.442  -2.260  -2.537  1.00  0.00     0.031 A 
BRANCH  55  58
HETATM   58  S2  UNL     1       9.246  -1.181  -3.471  1.00  0.00    -0.087 SA
BRANCH  58  59
HETATM   59  C27 UNL     1       9.970  -0.572  -1.839  1.00  0.00     0.167 C 
HETATM   60  C28 UNL     1       9.433  -1.366  -0.614  1.00  0.00     0.193 C 
HETATM   61  O6  UNL     1       9.719  -0.741   0.664  1.00  0.00    -0.377 OA
HETATM   62  C29 UNL     1       9.241   0.598   0.741  1.00  0.00     0.211 C 
HETATM   63  C30 UNL     1       9.976   1.520  -0.241  1.00  0.00     0.137 C 
HETATM   64  C31 UNL     1       9.721   0.950  -1.665  1.00  0.00     0.205 C 
BRANCH  60  65
HETATM   65  C38 UNL     1      10.015  -2.782  -0.528  1.00  0.00     0.200 C 
BRANCH  65  66
HETATM   66  O14 UNL     1       9.395  -3.480   0.560  1.00  0.00    -0.398 OA
HETATM   67  H47 UNL     1       9.523  -2.892   1.330  1.00  0.00     0.209 HD
ENDBRANCH  65  66
ENDBRANCH  60  65
BRANCH  63  68
HETATM   68  C32 UNL     1      11.488   1.726   0.121  1.00  0.00     0.192 C 
HETATM   69  C33 UNL     1      11.701   2.422   1.482  1.00  0.00     0.181 C 
HETATM   70  C34 UNL     1      13.194   2.700   1.667  1.00  0.00     0.180 C 
HETATM   71  C35 UNL     1      14.007   1.406   1.561  1.00  0.00     0.180 C 
HETATM   72  C36 UNL     1      13.634   0.643   0.277  1.00  0.00     0.177 C 
HETATM   73  O8  UNL     1      12.211   0.499   0.148  1.00  0.00    -0.370 OA
BRANCH  69  74
HETATM   74  O12 UNL     1      10.976   3.654   1.574  1.00  0.00    -0.390 OA
HETATM   75  H45 UNL     1      11.369   4.111   2.350  1.00  0.00     0.210 HD
ENDBRANCH  69  74
BRANCH  70  76
HETATM   76  O11 UNL     1      13.395   3.326   2.944  1.00  0.00    -0.390 OA
HETATM   77  H44 UNL     1      14.333   3.168   3.175  1.00  0.00     0.210 HD
ENDBRANCH  70  76
BRANCH  71  78
HETATM   78  O10 UNL     1      15.401   1.748   1.607  1.00  0.00    -0.390 OA
HETATM   79  H43 UNL     1      15.634   2.219   0.789  1.00  0.00     0.210 HD
ENDBRANCH  71  78
BRANCH  72  80
HETATM   80  C37 UNL     1      14.256  -0.762   0.244  1.00  0.00     0.198 C 
BRANCH  80  81
HETATM   81  O9  UNL     1      13.912  -1.508   1.411  1.00  0.00    -0.398 OA
HETATM   82  H42 UNL     1      14.073  -2.445   1.206  1.00  0.00     0.209 HD
ENDBRANCH  80  81
ENDBRANCH  72  80
ENDBRANCH  63  68
BRANCH  63  83
HETATM   83  O13 UNL     1       9.322   2.817  -0.256  1.00  0.00    -0.382 OA
HETATM   84  H46 UNL     1       9.665   3.330   0.511  1.00  0.00     0.210 HD
ENDBRANCH  63  83
BRANCH  64  85
HETATM   85  O7  UNL     1      10.477   1.710  -2.637  1.00  0.00    -0.388 OA
HETATM   86  H41 UNL     1      10.172   2.632  -2.521  1.00  0.00     0.210 HD
ENDBRANCH  64  85
BRANCH  59  87
HETATM   87  O15 UNL     1      11.382  -0.773  -1.999  1.00  0.00    -0.373 OA
HETATM   88  H48 UNL     1      11.633  -0.094  -2.657  1.00  0.00     0.212 HD
ENDBRANCH  59  87
ENDBRANCH  58  59
ENDBRANCH  55  58
ENDBRANCH  50  52
ENDBRANCH   4  48
TORSDOF 30
