REMARK  0 active torsions:
REMARK  status: ('A' for Active; 'I' for Inactive)
REMARK       I    between atoms: C2_2  and  C4_4 
REMARK       I    between atoms: C4_4  and  O1_60 
REMARK       I    between atoms: C5_5  and  O1_60 
REMARK       I    between atoms: C7_7  and  C45_45 
REMARK       I    between atoms: C8_8  and  C10_10 
REMARK       I    between atoms: C10_10  and  N2_75 
REMARK       I    between atoms: C11_11  and  N2_75 
REMARK       I    between atoms: C13_13  and  O9_68 
REMARK       I    between atoms: C15_15  and  N4_78 
REMARK       I    between atoms: C16_16  and  C17_17 
REMARK       I    between atoms: C16_16  and  N4_78 
REMARK       I    between atoms: C19_19  and  O8_67 
REMARK       I    between atoms: C21_21  and  C22_22 
REMARK       I    between atoms: C22_22  and  O7_66 
REMARK       I    between atoms: C22_22  and  N6_81 
REMARK       I    between atoms: C23_23  and  N6_81 
REMARK       I    between atoms: C24_24  and  N8_85 
REMARK       I    between atoms: C26_26  and  O4_63 
REMARK       I    between atoms: C28_28  and  C29_29 
REMARK       I    between atoms: C28_28  and  O4_63 
REMARK       I    between atoms: C32_32  and  O5_64 
REMARK       I    between atoms: C32_32  and  O6_65 
REMARK       I    between atoms: C32_32  and  N8_85 
REMARK       I    between atoms: C33_33  and  O6_65 
REMARK       I    between atoms: C37_37  and  C38_38 
REMARK       I    between atoms: C37_37  and  O8_67 
REMARK       I    between atoms: C41_41  and  C42_42 
REMARK       I    between atoms: C41_41  and  O9_68 
REMARK       I    between atoms: C45_45  and  O13_72 
REMARK       I    between atoms: C45_45  and  N9_87 
REMARK       I    between atoms: C46_46  and  N9_87 
REMARK       I    between atoms: C47_47  and  N11_91 
REMARK       I    between atoms: C49_49  and  O10_69 
REMARK       I    between atoms: C51_51  and  C52_52 
REMARK       I    between atoms: C51_51  and  O10_69 
REMARK       I    between atoms: C55_55  and  O11_70 
REMARK       I    between atoms: C55_55  and  O12_71 
REMARK       I    between atoms: C55_55  and  N11_91 
REMARK       I    between atoms: C56_56  and  O12_71 
ROOT
HETATM    1  C1  UNL     1      -9.140  -5.625   6.694  1.00  0.00     0.011 C 
HETATM    2  C2  UNL     1      -8.888  -6.580   5.526  1.00  0.00     0.002 C 
HETATM    3  C3  UNL     1     -10.208  -7.155   5.017  1.00  0.00     0.011 C 
HETATM    4  C4  UNL     1      -8.132  -5.883   4.385  1.00  0.00     0.179 C 
HETATM    5  C5  UNL     1      -6.039  -4.794   3.998  1.00  0.00     0.073 A 
HETATM    6  C6  UNL     1      -6.320  -4.518   2.663  1.00  0.00     0.070 A 
HETATM    7  C7  UNL     1      -5.374  -3.820   1.920  1.00  0.00     0.087 A 
HETATM    8  C8  UNL     1      -3.949  -3.676   3.732  1.00  0.00     0.104 A 
HETATM    9  C9  UNL     1      -4.831  -4.370   4.544  1.00  0.00     0.072 A 
HETATM   10  C10 UNL     1      -2.640  -3.181   4.271  1.00  0.00     0.273 C 
HETATM   11  C11 UNL     1      -0.685  -1.842   3.475  1.00  0.00     0.112 A 
HETATM   12  C12 UNL     1       0.073  -1.844   4.633  1.00  0.00     0.085 A 
HETATM   13  C13 UNL     1       1.278  -1.147   4.643  1.00  0.00     0.075 A 
HETATM   14  C14 UNL     1       1.693  -0.497   3.487  1.00  0.00     0.085 A 
HETATM   15  C15 UNL     1       0.875  -0.547   2.365  1.00  0.00     0.112 A 
HETATM   16  C16 UNL     1       0.646   0.259   0.031  1.00  0.00     0.273 C 
HETATM   17  C17 UNL     1       1.395   1.131  -0.932  1.00  0.00     0.104 A 
HETATM   18  C18 UNL     1       0.851   1.460  -2.165  1.00  0.00     0.072 A 
HETATM   19  C19 UNL     1       1.587   2.301  -2.992  1.00  0.00     0.073 A 
HETATM   20  C20 UNL     1       2.828   2.773  -2.564  1.00  0.00     0.070 A 
HETATM   21  C21 UNL     1       3.296   2.382  -1.318  1.00  0.00     0.087 A 
HETATM   22  C22 UNL     1       4.617   2.858  -0.824  1.00  0.00     0.169 C 
HETATM   23  C23 UNL     1       6.552   4.202  -0.889  1.00  0.00     0.111 A 
HETATM   24  C24 UNL     1       7.963   4.444   0.921  1.00  0.00     0.112 A 
HETATM   25  C25 UNL     1       8.950   5.019   0.138  1.00  0.00     0.085 A 
HETATM   26  C26 UNL     1       8.698   5.200  -1.216  1.00  0.00     0.075 A 
HETATM   27  C27 UNL     1       7.475   4.787  -1.735  1.00  0.00     0.085 A 
HETATM   28  C28 UNL     1      10.830   6.184  -1.653  1.00  0.00     0.179 C 
HETATM   29  C29 UNL     1      11.626   6.765  -2.831  1.00  0.00     0.002 C 
HETATM   30  C30 UNL     1      12.949   7.352  -2.343  1.00  0.00     0.011 C 
HETATM   31  C31 UNL     1      11.879   5.709  -3.909  1.00  0.00     0.011 C 
HETATM   32  C32 UNL     1       7.257   4.224   3.145  1.00  0.00     0.264 C 
HETATM   33  C33 UNL     1       8.697   3.693   5.072  1.00  0.00     0.060 C 
HETATM   34  C34 UNL     1       9.260   2.374   4.532  1.00  0.00     0.046 C 
HETATM   35  C35 UNL     1       9.689   4.851   4.917  1.00  0.00     0.046 C 
HETATM   36  C36 UNL     1       8.383   3.514   6.566  1.00  0.00     0.046 C 
HETATM   37  C37 UNL     1      -0.052   2.277  -4.729  1.00  0.00     0.179 C 
HETATM   38  C38 UNL     1      -0.314   2.875  -6.121  1.00  0.00     0.002 C 
HETATM   39  C39 UNL     1       0.764   2.453  -7.120  1.00  0.00     0.011 C 
HETATM   40  C40 UNL     1      -0.407   4.400  -6.062  1.00  0.00     0.011 C 
HETATM   41  C41 UNL     1       2.992  -0.222   6.050  1.00  0.00     0.179 C 
HETATM   42  C42 UNL     1       4.378  -0.766   5.671  1.00  0.00     0.002 C 
HETATM   43  C43 UNL     1       4.739  -1.995   6.508  1.00  0.00     0.011 C 
HETATM   44  C44 UNL     1       5.439   0.321   5.836  1.00  0.00     0.011 C 
HETATM   45  C45 UNL     1      -5.641  -3.515   0.484  1.00  0.00     0.169 C 
HETATM   46  C46 UNL     1      -6.923  -3.563  -1.487  1.00  0.00     0.111 A 
HETATM   47  C47 UNL     1      -6.566  -2.160  -3.279  1.00  0.00     0.112 A 
HETATM   48  C48 UNL     1      -7.289  -2.987  -4.120  1.00  0.00     0.085 A 
HETATM   49  C49 UNL     1      -7.863  -4.141  -3.599  1.00  0.00     0.075 A 
HETATM   50  C50 UNL     1      -7.680  -4.434  -2.255  1.00  0.00     0.085 A 
HETATM   51  C51 UNL     1      -9.187  -6.085  -4.018  1.00  0.00     0.179 C 
HETATM   52  C52 UNL     1      -9.927  -6.763  -5.180  1.00  0.00     0.002 C 
HETATM   53  C53 UNL     1     -11.044  -5.870  -5.727  1.00  0.00     0.011 C 
HETATM   54  C54 UNL     1     -10.494  -8.110  -4.737  1.00  0.00     0.011 C 
HETATM   55  C55 UNL     1      -5.798   0.045  -3.084  1.00  0.00     0.264 C 
HETATM   56  C56 UNL     1      -4.756   1.368  -4.881  1.00  0.00     0.060 C 
HETATM   57  C57 UNL     1      -3.585   0.421  -5.165  1.00  0.00     0.046 C 
HETATM   58  C58 UNL     1      -5.876   1.227  -5.917  1.00  0.00     0.046 C 
HETATM   59  C59 UNL     1      -4.236   2.814  -4.920  1.00  0.00     0.046 C 
HETATM   60  O1  UNL     1      -6.852  -5.468   4.867  1.00  0.00    -0.351 OA
HETATM   61  O2  UNL     1      -2.325  -3.415   5.432  1.00  0.00    -0.266 OA
HETATM   62  O3  UNL     1      -0.427  -0.227  -0.302  1.00  0.00    -0.266 OA
HETATM   63  O4  UNL     1       9.551   5.756  -2.127  1.00  0.00    -0.351 OA
HETATM   64  O5  UNL     1       5.955   4.438   2.889  1.00  0.00    -0.327 OA
HETATM   65  O6  UNL     1       7.416   4.009   4.467  1.00  0.00    -0.306 OA
HETATM   66  O7  UNL     1       4.988   2.192   0.293  1.00  0.00    -0.344 OA
HETATM   67  O8  UNL     1       1.207   2.737  -4.232  1.00  0.00    -0.351 OA
HETATM   68  O9  UNL     1       1.968  -1.195   5.823  1.00  0.00    -0.351 OA
HETATM   69  O10 UNL     1      -8.568  -4.890  -4.500  1.00  0.00    -0.351 OA
HETATM   70  O11 UNL     1      -6.129   0.182  -1.790  1.00  0.00    -0.327 OA
HETATM   71  O12 UNL     1      -5.257   1.197  -3.529  1.00  0.00    -0.306 OA
HETATM   72  O13 UNL     1      -4.605  -2.865  -0.084  1.00  0.00    -0.344 OA
HETATM   73  N1  UNL     1      -4.195  -3.392   2.429  1.00  0.00    -0.348 N 
ATOM     74  H1  UNL     1      -3.522  -2.879   1.859  1.00  0.00     0.166 HD
HETATM   75  N2  UNL     1      -1.915  -2.476   3.342  1.00  0.00    -0.307 N 
HETATM   76  N3  UNL     1      -0.293  -1.205   2.356  1.00  0.00    -0.328 N 
ATOM     77  H3  UNL     1      -0.873  -1.223   1.517  1.00  0.00     0.169 HD
HETATM   78  N4  UNL     1       1.314   0.135   1.230  1.00  0.00    -0.307 N 
HETATM   79  N5  UNL     1       2.600   1.570  -0.488  1.00  0.00    -0.348 N 
ATOM     80  H5  UNL     1       2.963   1.301   0.426  1.00  0.00     0.166 HD
HETATM   81  N6  UNL     1       5.319   3.782  -1.395  1.00  0.00    -0.321 N 
ATOM     82  H6  UNL     1       4.960   4.219  -2.244  1.00  0.00     0.169 HD
HETATM   83  N7  UNL     1       6.771   4.033   0.435  1.00  0.00    -0.328 N 
ATOM     84  H7  UNL     1       6.066   3.613   1.041  1.00  0.00     0.169 HD
HETATM   85  N8  UNL     1       8.205   4.223   2.276  1.00  0.00    -0.302 N 
ATOM     86  H8  UNL     1       9.162   4.056   2.587  1.00  0.00     0.171 HD
HETATM   87  N9  UNL     1      -6.730  -3.847  -0.133  1.00  0.00    -0.321 N 
ATOM     88  H9  UNL     1      -7.466  -4.329   0.383  1.00  0.00     0.169 HD
HETATM   89  N10 UNL     1      -6.370  -2.427  -1.969  1.00  0.00    -0.328 N 
ATOM     90  H10 UNL     1      -5.830  -1.801  -1.372  1.00  0.00     0.169 HD
HETATM   91  N11 UNL     1      -5.975  -1.011  -3.798  1.00  0.00    -0.302 N 
ATOM     92  H11 UNL     1      -5.674  -1.006  -4.772  1.00  0.00     0.171 HD
HETATM   93  H74 UNL     1       5.828   4.525   1.928  1.00  0.00     0.221 HD
HETATM   94  H75 UNL     1       5.835   2.547   0.620  1.00  0.00     0.219 HD
HETATM   95  H76 UNL     1      -6.415  -0.681  -1.442  1.00  0.00     0.221 HD
HETATM   96  H77 UNL     1      -4.827  -2.592  -0.992  1.00  0.00     0.219 HD
HETATM   97  H78 UNL     1      -2.329  -2.367   2.417  1.00  0.00     0.170 HD
HETATM   98  H79 UNL     1       2.203   0.625   1.274  1.00  0.00     0.170 HD
ENDROOT
TORSDOF 37
