REMARK  18 active torsions:
REMARK  status: ('A' for Active; 'I' for Inactive)
REMARK    1  A    between atoms: C3_3  and  N12_51 
REMARK    2  A    between atoms: C5_5  and  C6_6 
REMARK       I    between atoms: C6_6  and  N2_40 
REMARK    3  A    between atoms: C7_7  and  N2_40 
REMARK    4  A    between atoms: C9_9  and  N4_42 
REMARK    5  A    between atoms: C11_11  and  C12_12 
REMARK       I    between atoms: C11_11  and  N4_42 
REMARK    6  A    between atoms: C16_16  and  C18_18 
REMARK       I    between atoms: C18_18  and  N5_43 
REMARK    7  A    between atoms: C19_19  and  N5_43 
REMARK    8  A    between atoms: C21_21  and  C23_23 
REMARK       I    between atoms: C23_23  and  N7_45 
REMARK    9  A    between atoms: C24_24  and  N7_45 
REMARK   10  A    between atoms: C26_26  and  C28_28 
REMARK       I    between atoms: C28_28  and  N9_47 
REMARK   11  A    between atoms: C29_29  and  C30_30 
REMARK   12  A    between atoms: C29_29  and  N9_47 
REMARK   13  A    between atoms: C30_30  and  C31_31 
REMARK   14  A    between atoms: C31_31  and  N10_48 
REMARK   15  A    between atoms: C35_35  and  C36_36 
REMARK       I    between atoms: C35_35  and  N12_51 
REMARK   16  A    between atoms: C36_36  and  C37_37 
REMARK   17  A    between atoms: C37_37  and  C38_38 
REMARK   18  A    between atoms: C38_38  and  N14_54 
ROOT
HETATM    1  C12 UNL     1       1.371   3.082  -1.227  1.00  0.00     0.033 A 
HETATM    2  C13 UNL     1       1.928   4.306  -1.618  1.00  0.00     0.017 A 
HETATM    3  C14 UNL     1       1.389   5.002  -2.700  1.00  0.00     0.002 A 
HETATM    4  C15 UNL     1       0.284   4.487  -3.380  1.00  0.00     0.017 A 
HETATM    5  C16 UNL     1      -0.300   3.279  -2.973  1.00  0.00     0.033 A 
HETATM    6  C17 UNL     1       0.253   2.570  -1.901  1.00  0.00     0.034 A 
ENDROOT
BRANCH   1   7
HETATM    7  C11 UNL     1       1.914   2.307  -0.075  1.00  0.00     0.257 C 
HETATM    8  N4  UNL     1       3.285   2.374   0.067  1.00  0.00    -0.309 N 
HETATM    9  H34 UNL     1       3.812   2.704  -0.734  1.00  0.00     0.170 HD
HETATM   10  O2  UNL     1       1.123   1.651   0.590  1.00  0.00    -0.267 OA
BRANCH   8  11
HETATM   11  C9  UNL     1       4.039   1.762   1.057  1.00  0.00     0.111 A 
HETATM   12  C10 UNL     1       5.395   1.494   0.950  1.00  0.00     0.079 A 
HETATM   13  C7  UNL     1       5.823   0.834   2.127  1.00  0.00     0.054 A 
HETATM   14  C8  UNL     1       4.724   0.747   2.942  1.00  0.00     0.121 A 
HETATM   15  N3  UNL     1       3.653   1.348   2.313  1.00  0.00    -0.345 N 
HETATM   16  C34 UNL     1       2.408   1.589   3.009  1.00  0.00     0.157 C 
BRANCH  13  17
HETATM   17  N2  UNL     1       7.109   0.383   2.361  1.00  0.00    -0.320 N 
HETATM   18  C6  UNL     1       7.561  -0.234   3.514  1.00  0.00     0.273 C 
HETATM   19  O1  UNL     1       6.870  -0.433   4.510  1.00  0.00    -0.266 OA
HETATM   20  H33 UNL     1       7.771   0.550   1.619  1.00  0.00     0.169 HD
BRANCH  18  21
HETATM   21  C5  UNL     1       8.970  -0.628   3.466  1.00  0.00     0.105 A 
HETATM   22  C4  UNL     1       9.855  -0.662   2.392  1.00  0.00     0.066 A 
HETATM   23  C3  UNL     1      11.115  -1.115   2.845  1.00  0.00     0.052 A 
HETATM   24  C2  UNL     1      10.987  -1.364   4.189  1.00  0.00     0.120 A 
HETATM   25  N1  UNL     1       9.695  -1.079   4.558  1.00  0.00    -0.354 N 
HETATM   26  C1  UNL     1       9.193  -1.226   5.910  1.00  0.00     0.156 C 
BRANCH  23  27
HETATM   27  N12 UNL     1      12.297  -1.307   2.157  1.00  0.00    -0.326 N 
HETATM   28  C35 UNL     1      12.474  -1.080   0.804  1.00  0.00     0.222 C 
HETATM   29  O6  UNL     1      11.613  -0.689   0.017  1.00  0.00    -0.273 OA
HETATM   30  H41 UNL     1      13.080  -1.649   2.700  1.00  0.00     0.169 HD
BRANCH  28  31
HETATM   31  C36 UNL     1      13.899  -1.387   0.369  1.00  0.00     0.110 C 
BRANCH  31  32
HETATM   32  C37 UNL     1      14.130  -1.117  -1.112  1.00  0.00     0.078 C 
BRANCH  32  33
HETATM   33  C38 UNL     1      13.474  -2.194  -1.950  1.00  0.00     0.047 C 
HETATM   34  N13 UNL     1      14.132  -3.272  -2.208  1.00  0.00    -0.394 N 
HETATM   35  H42 UNL     1      13.563  -3.881  -2.800  1.00  0.00     0.157 HD
ATOM     36  H13 UNL     1      15.072  -3.484  -1.874  1.00  0.00     0.157 HD
BRANCH  33  37
HETATM   37  N14 UNL     1      12.194  -2.008  -2.373  1.00  0.00    -0.293 NA
HETATM   38  H43 UNL     1      11.658  -1.355  -1.791  1.00  0.00     0.125 HD
HETATM   39  H44 UNL     1      11.661  -2.847  -2.563  1.00  0.00     0.125 HD
ENDBRANCH  33  37
ENDBRANCH  32  33
ENDBRANCH  31  32
ENDBRANCH  28  31
ENDBRANCH  23  27
ENDBRANCH  18  21
ENDBRANCH  13  17
ENDBRANCH   8  11
ENDBRANCH   1   7
BRANCH   5  40
HETATM   40  C18 UNL     1      -1.485   2.775  -3.725  1.00  0.00     0.256 C 
HETATM   41  N5  UNL     1      -2.404   2.072  -2.966  1.00  0.00    -0.322 N 
HETATM   42  H35 UNL     1      -2.273   2.010  -1.966  1.00  0.00     0.169 HD
HETATM   43  O3  UNL     1      -1.564   3.042  -4.919  1.00  0.00    -0.267 OA
BRANCH  41  44
HETATM   44  C19 UNL     1      -3.559   1.484  -3.452  1.00  0.00     0.053 A 
HETATM   45  C20 UNL     1      -4.000   1.421  -4.748  1.00  0.00     0.120 A 
HETATM   46  N6  UNL     1      -5.182   0.728  -4.773  1.00  0.00    -0.354 N 
HETATM   47  C21 UNL     1      -5.542   0.344  -3.491  1.00  0.00     0.105 A 
HETATM   48  C33 UNL     1      -5.935   0.466  -5.983  1.00  0.00     0.156 C 
HETATM   49  C22 UNL     1      -4.521   0.804  -2.663  1.00  0.00     0.066 A 
BRANCH  47  50
HETATM   50  C23 UNL     1      -6.752  -0.410  -3.165  1.00  0.00     0.273 C 
HETATM   51  N7  UNL     1      -7.081  -0.383  -1.821  1.00  0.00    -0.320 N 
HETATM   52  H36 UNL     1      -6.523   0.186  -1.203  1.00  0.00     0.169 HD
HETATM   53  O4  UNL     1      -7.406  -0.988  -4.029  1.00  0.00    -0.266 OA
BRANCH  51  54
HETATM   54  C24 UNL     1      -8.151  -1.027  -1.230  1.00  0.00     0.053 A 
HETATM   55  C25 UNL     1      -9.075  -1.860  -1.809  1.00  0.00     0.120 A 
HETATM   56  N8  UNL     1      -9.942  -2.296  -0.835  1.00  0.00    -0.354 N 
HETATM   57  C26 UNL     1      -9.629  -1.703   0.373  1.00  0.00     0.104 A 
HETATM   58  C32 UNL     1     -10.957  -3.301  -1.078  1.00  0.00     0.156 C 
HETATM   59  C27 UNL     1      -8.486  -0.947   0.142  1.00  0.00     0.066 A 
BRANCH  57  60
HETATM   60  C28 UNL     1     -10.297  -1.851   1.654  1.00  0.00     0.268 C 
HETATM   61  N9  UNL     1     -11.654  -2.061   1.586  1.00  0.00    -0.355 N 
HETATM   62  H37 UNL     1     -12.125  -1.776   0.729  1.00  0.00     0.162 HD
HETATM   63  O5  UNL     1      -9.711  -1.740   2.727  1.00  0.00    -0.266 OA
BRANCH  61  64
HETATM   64  C29 UNL     1     -12.484  -2.020   2.772  1.00  0.00     0.130 C 
BRANCH  64  65
HETATM   65  C30 UNL     1     -13.896  -2.517   2.490  1.00  0.00     0.095 C 
BRANCH  65  66
HETATM   66  C31 UNL     1     -14.625  -1.584   1.540  1.00  0.00     0.069 C 
HETATM   67  N11 UNL     1     -15.741  -0.932   1.965  1.00  0.00    -0.389 N 
HETATM   68  H39 UNL     1     -15.892  -0.858   2.965  1.00  0.00     0.157 HD
HETATM   69  H40 UNL     1     -16.021  -0.103   1.456  1.00  0.00     0.157 HD
BRANCH  66  70
HETATM   70  N10 UNL     1     -14.168  -1.431   0.341  1.00  0.00    -0.389 N 
HETATM   71  H38 UNL     1     -14.790  -0.805  -0.179  1.00  0.00     0.157 HD
ATOM     72  H10 UNL     1     -13.322  -1.865  -0.029  1.00  0.00     0.157 HD
ENDBRANCH  66  70
ENDBRANCH  65  66
ENDBRANCH  64  65
ENDBRANCH  61  64
ENDBRANCH  57  60
ENDBRANCH  51  54
ENDBRANCH  47  50
ENDBRANCH  41  44
ENDBRANCH   5  40
TORSDOF 18
