REMARK  18 active torsions:
REMARK  status: ('A' for Active; 'I' for Inactive)
REMARK    1  A    between atoms: C3_3  and  N5_42 
REMARK    2  A    between atoms: C5_5  and  C6_6 
REMARK       I    between atoms: C6_6  and  N2_38 
REMARK    3  A    between atoms: C7_7  and  C8_8 
REMARK    4  A    between atoms: C7_7  and  N2_38 
REMARK    5  A    between atoms: C8_8  and  C9_9 
REMARK    6  A    between atoms: C9_9  and  N4_41 
REMARK    7  A    between atoms: C10_10  and  C11_11 
REMARK       I    between atoms: C10_10  and  N5_42 
REMARK    8  A    between atoms: C13_13  and  N7_44 
REMARK    9  A    between atoms: C16_16  and  C17_17 
REMARK       I    between atoms: C16_16  and  N7_44 
REMARK   10  A    between atoms: C19_19  and  N10_48 
REMARK   11  A    between atoms: C21_21  and  C22_22 
REMARK       I    between atoms: C21_21  and  N10_48 
REMARK   12  A    between atoms: C23_23  and  N13_52 
REMARK   13  A    between atoms: C26_26  and  C27_27 
REMARK       I    between atoms: C26_26  and  N13_52 
REMARK   14  A    between atoms: C30_30  and  N14_53 
REMARK   15  A    between atoms: C33_33  and  C34_34 
REMARK   16  A    between atoms: C33_33  and  N14_53 
REMARK   17  A    between atoms: C35_35  and  C36_36 
REMARK   18  A    between atoms: C35_35  and  N14_53 
ROOT
HETATM    1  C17 UNL     1       0.051  -0.059   0.489  1.00  0.00     0.122 A 
HETATM    2  C18 UNL     1      -0.955  -0.160   1.439  1.00  0.00     0.086 A 
HETATM    3  C19 UNL     1      -2.175  -0.153   0.731  1.00  0.00     0.125 A 
HETATM    4  C20 UNL     1      -0.065   0.117  -2.035  1.00  0.00     0.178 C 
HETATM    5  N8  UNL     1      -1.966  -0.055  -0.579  1.00  0.00    -0.283 N 
ATOM      6  H8  UNL     1      -2.665  -0.029  -1.322  1.00  0.00     0.189 HD
HETATM    7  N9  UNL     1      -0.627   0.002  -0.707  1.00  0.00    -0.290 N 
ENDROOT
BRANCH   1   8
HETATM    8  C16 UNL     1       1.497  -0.018   0.619  1.00  0.00     0.274 C 
HETATM    9  N7  UNL     1       1.953  -0.090   1.923  1.00  0.00    -0.320 N 
HETATM   10  H40 UNL     1       1.282  -0.166   2.672  1.00  0.00     0.169 HD
HETATM   11  O3  UNL     1       2.232   0.071  -0.361  1.00  0.00    -0.266 OA
BRANCH   9  12
HETATM   12  C13 UNL     1       3.280  -0.068   2.308  1.00  0.00     0.053 A 
HETATM   13  C12 UNL     1       4.460   0.036   1.536  1.00  0.00     0.066 A 
HETATM   14  C11 UNL     1       5.564   0.011   2.385  1.00  0.00     0.105 A 
HETATM   15  N6  UNL     1       5.045  -0.098   3.665  1.00  0.00    -0.354 N 
HETATM   16  C14 UNL     1       3.673  -0.149   3.622  1.00  0.00     0.120 A 
HETATM   17  C15 UNL     1       5.814  -0.163   4.892  1.00  0.00     0.156 C 
BRANCH  14  18
HETATM   18  C10 UNL     1       6.993   0.088   2.077  1.00  0.00     0.273 C 
HETATM   19  N5  UNL     1       7.286   0.045   0.726  1.00  0.00    -0.320 N 
HETATM   20  H39 UNL     1       6.527  -0.047   0.069  1.00  0.00     0.169 HD
HETATM   21  O2  UNL     1       7.841   0.180   2.960  1.00  0.00    -0.266 OA
BRANCH  19  22
HETATM   22  C3  UNL     1       8.553   0.097   0.178  1.00  0.00     0.053 A 
HETATM   23  C2  UNL     1       8.776   0.052  -1.179  1.00  0.00     0.120 A 
HETATM   24  N1  UNL     1      10.130   0.106  -1.396  1.00  0.00    -0.354 N 
HETATM   25  C1  UNL     1      10.743  -0.052  -2.698  1.00  0.00     0.156 C 
HETATM   26  C5  UNL     1      10.794   0.244  -0.194  1.00  0.00     0.104 A 
HETATM   27  C4  UNL     1       9.821   0.192   0.795  1.00  0.00     0.066 A 
BRANCH  26  28
HETATM   28  C6  UNL     1      12.223   0.363   0.009  1.00  0.00     0.268 C 
HETATM   29  N2  UNL     1      12.840   1.253  -0.849  1.00  0.00    -0.355 N 
HETATM   30  H35 UNL     1      12.233   1.934  -1.286  1.00  0.00     0.162 HD
HETATM   31  O1  UNL     1      12.834  -0.230   0.890  1.00  0.00    -0.266 OA
BRANCH  29  32
HETATM   32  C7  UNL     1      14.228   1.628  -0.653  1.00  0.00     0.130 C 
BRANCH  32  33
HETATM   33  C8  UNL     1      15.197   0.530  -1.076  1.00  0.00     0.089 C 
BRANCH  33  34
HETATM   34  C9  UNL     1      16.614   1.005  -0.866  1.00  0.00     0.049 C 
HETATM   35  N3  UNL     1      17.189   0.939   0.289  1.00  0.00    -0.393 N 
HETATM   36  H36 UNL     1      16.553   0.527   0.984  1.00  0.00     0.157 HD
ATOM     37  H3  UNL     1      18.140   1.252   0.484  1.00  0.00     0.157 HD
BRANCH  34  38
HETATM   38  N4  UNL     1      17.313   1.530  -1.907  1.00  0.00    -0.293 NA
HETATM   39  H37 UNL     1      17.146   1.121  -2.818  1.00  0.00     0.125 HD
HETATM   40  H38 UNL     1      18.302   1.604  -1.684  1.00  0.00     0.125 HD
ENDBRANCH  34  38
ENDBRANCH  33  34
ENDBRANCH  32  33
ENDBRANCH  29  32
ENDBRANCH  26  28
ENDBRANCH  19  22
ENDBRANCH  14  18
ENDBRANCH   9  12
ENDBRANCH   1   8
BRANCH   3  41
HETATM   41  N10 UNL     1      -3.457  -0.231   1.204  1.00  0.00    -0.305 N 
HETATM   42  C21 UNL     1      -3.835  -0.337   2.521  1.00  0.00     0.291 C 
HETATM   43  O4  UNL     1      -3.065  -0.377   3.477  1.00  0.00    -0.264 OA
HETATM   44  H41 UNL     1      -4.193  -0.205   0.502  1.00  0.00     0.170 HD
BRANCH  42  45
HETATM   45  C22 UNL     1      -5.283  -0.399   2.667  1.00  0.00     0.178 A 
HETATM   46  N11 UNL     1      -6.106  -0.365   1.631  1.00  0.00    -0.323 N 
HETATM   47  C23 UNL     1      -7.365  -0.435   2.140  1.00  0.00     0.125 A 
ATOM     48  H11 UNL     1      -5.847  -0.299   0.647  1.00  0.00     0.169 HD
HETATM   49  C24 UNL     1      -7.331  -0.524   3.511  1.00  0.00     0.140 A 
HETATM   50  N12 UNL     1      -6.000  -0.497   3.835  1.00  0.00    -0.339 N 
HETATM   51  C25 UNL     1      -5.456  -0.559   5.170  1.00  0.00     0.157 C 
BRANCH  47  52
HETATM   52  N13 UNL     1      -8.511  -0.428   1.385  1.00  0.00    -0.308 N 
HETATM   53  C26 UNL     1      -8.534  -0.272   0.014  1.00  0.00     0.257 C 
HETATM   54  O5  UNL     1      -7.584  -0.061  -0.730  1.00  0.00    -0.267 OA
HETATM   55  H42 UNL     1      -9.379  -0.473   1.895  1.00  0.00     0.170 HD
BRANCH  53  56
HETATM   56  C27 UNL     1      -9.894  -0.335  -0.591  1.00  0.00     0.032 A 
HETATM   57  C28 UNL     1     -10.187   0.502  -1.669  1.00  0.00     0.019 A 
HETATM   58  C29 UNL     1     -11.456   0.472  -2.261  1.00  0.00     0.030 A 
HETATM   59  C30 UNL     1     -12.456  -0.402  -1.811  1.00  0.00     0.030 A 
HETATM   60  C31 UNL     1     -12.131  -1.245  -0.734  1.00  0.00     0.030 A 
HETATM   61  C32 UNL     1     -10.868  -1.221  -0.129  1.00  0.00     0.019 A 
BRANCH  59  62
HETATM   62  N14 UNL     1     -13.732  -0.463  -2.380  1.00  0.00    -0.379 N 
BRANCH  62  63
HETATM   63  C33 UNL     1     -14.292   0.718  -3.072  1.00  0.00     0.138 C 
BRANCH  63  64
HETATM   64  C34 UNL     1     -14.582   1.857  -2.091  1.00  0.00     0.134 C 
HETATM   65 CL1  UNL     1     -15.349   3.230  -2.929  1.00  0.00    -0.129 Cl
ENDBRANCH  63  64
ENDBRANCH  62  63
BRANCH  62  66
HETATM   66  C35 UNL     1     -14.145  -1.787  -2.906  1.00  0.00     0.138 C 
BRANCH  66  67
HETATM   67  C36 UNL     1     -13.318  -2.286  -4.098  1.00  0.00     0.134 C 
HETATM   68 CL2  UNL     1     -13.705  -1.418  -5.608  1.00  0.00    -0.129 Cl
ENDBRANCH  66  67
ENDBRANCH  62  66
ENDBRANCH  59  62
ENDBRANCH  53  56
ENDBRANCH  47  52
ENDBRANCH  42  45
ENDBRANCH   3  41
TORSDOF 18
