REMARK  17 active torsions:
REMARK  status: ('A' for Active; 'I' for Inactive)
REMARK    1  A    between atoms: C4_4  and  C5_5 
REMARK       I    between atoms: C5_5  and  N3_44 
REMARK    2  A    between atoms: C6_6  and  N3_44 
REMARK    3  A    between atoms: C8_8  and  C10_10 
REMARK       I    between atoms: C10_10  and  N5_46 
REMARK    4  A    between atoms: C11_11  and  N5_46 
REMARK    5  A    between atoms: C13_13  and  C15_15 
REMARK       I    between atoms: C15_15  and  N7_48 
REMARK    6  A    between atoms: C16_16  and  C17_17 
REMARK    7  A    between atoms: C16_16  and  N7_48 
REMARK       I    between atoms: C17_17  and  N8_49 
REMARK    8  A    between atoms: C18_18  and  N8_49 
REMARK    9  A    between atoms: C20_20  and  C22_22 
REMARK       I    between atoms: C22_22  and  N10_51 
REMARK   10  A    between atoms: C23_23  and  N10_51 
REMARK   11  A    between atoms: C25_25  and  C27_27 
REMARK       I    between atoms: C27_27  and  N12_53 
REMARK   12  A    between atoms: C28_28  and  N12_53 
REMARK   13  A    between atoms: C30_30  and  C32_32 
REMARK       I    between atoms: C32_32  and  N14_55 
REMARK   14  A    between atoms: C33_33  and  C34_34 
REMARK   15  A    between atoms: C33_33  and  N14_55 
REMARK   16  A    between atoms: C34_34  and  C35_35 
REMARK   17  A    between atoms: C35_35  and  N15_56 
ROOT
HETATM    1  C18 UNL     1      -0.255   2.815   0.100  1.00  0.00     0.052 A 
HETATM    2  C19 UNL     1      -0.139   2.046  -1.030  1.00  0.00     0.120 A 
HETATM    3  C20 UNL     1       1.958   2.343  -0.225  1.00  0.00     0.105 A 
HETATM    4  C21 UNL     1       1.052   2.999   0.606  1.00  0.00     0.066 A 
HETATM    5  C38 UNL     1       1.690   0.966  -2.326  1.00  0.00     0.156 C 
HETATM    6  N9  UNL     1       1.190   1.760  -1.222  1.00  0.00    -0.354 N 
ENDROOT
BRANCH   1   7
HETATM    7  N8  UNL     1      -1.467   3.271   0.573  1.00  0.00    -0.324 N 
HETATM    8  C17 UNL     1      -1.645   4.031   1.714  1.00  0.00     0.239 C 
HETATM    9  O4  UNL     1      -0.757   4.439   2.461  1.00  0.00    -0.271 OA
HETATM   10  H42 UNL     1      -2.298   2.999   0.046  1.00  0.00     0.169 HD
BRANCH   8  11
HETATM   11  C16 UNL     1      -3.113   4.381   1.978  1.00  0.00     0.226 C 
BRANCH  11  12
HETATM   12  N7  UNL     1      -3.918   3.206   2.268  1.00  0.00    -0.347 N 
HETATM   13  C15 UNL     1      -4.426   2.419   1.262  1.00  0.00     0.268 C 
HETATM   14  O3  UNL     1      -4.135   2.620   0.085  1.00  0.00    -0.266 OA
HETATM   15  H41 UNL     1      -4.351   3.148   3.180  1.00  0.00     0.163 HD
BRANCH  13  16
HETATM   16  C13 UNL     1      -5.334   1.383   1.697  1.00  0.00     0.104 A 
HETATM   17  C14 UNL     1      -6.508   1.000   1.063  1.00  0.00     0.066 A 
HETATM   18  C11 UNL     1      -7.118  -0.028   1.820  1.00  0.00     0.053 A 
HETATM   19  C12 UNL     1      -6.281  -0.285   2.879  1.00  0.00     0.120 A 
HETATM   20  N6  UNL     1      -5.188   0.539   2.780  1.00  0.00    -0.354 N 
HETATM   21  C39 UNL     1      -4.032   0.436   3.646  1.00  0.00     0.156 C 
BRANCH  18  22
HETATM   22  N5  UNL     1      -8.315  -0.642   1.508  1.00  0.00    -0.320 N 
HETATM   23  C10 UNL     1      -8.962  -1.594   2.272  1.00  0.00     0.273 C 
HETATM   24  O2  UNL     1      -8.618  -1.967   3.388  1.00  0.00    -0.266 OA
HETATM   25  H40 UNL     1      -8.790  -0.299   0.685  1.00  0.00     0.169 HD
BRANCH  23  26
HETATM   26  C8  UNL     1     -10.170  -2.095   1.638  1.00  0.00     0.105 A 
HETATM   27  C9  UNL     1     -11.413  -2.253   2.234  1.00  0.00     0.066 A 
HETATM   28  C6  UNL     1     -12.320  -2.742   1.263  1.00  0.00     0.053 A 
HETATM   29  C7  UNL     1     -11.603  -2.913   0.104  1.00  0.00     0.120 A 
HETATM   30  N4  UNL     1     -10.298  -2.566   0.347  1.00  0.00    -0.354 N 
HETATM   31  C40 UNL     1      -9.225  -2.765  -0.605  1.00  0.00     0.156 C 
BRANCH  28  32
HETATM   32  N3  UNL     1     -13.656  -2.994   1.484  1.00  0.00    -0.319 N 
HETATM   33  C5  UNL     1     -14.572  -3.472   0.567  1.00  0.00     0.290 C 
HETATM   34  O1  UNL     1     -14.338  -3.744  -0.607  1.00  0.00    -0.264 OA
HETATM   35  H39 UNL     1     -14.027  -2.822   2.415  1.00  0.00     0.169 HD
BRANCH  33  36
HETATM   36  C4  UNL     1     -15.894  -3.619   1.167  1.00  0.00     0.176 A 
HETATM   37  N1  UNL     1     -17.036  -4.078   0.551  1.00  0.00    -0.342 N 
HETATM   38  C1  UNL     1     -17.152  -4.510  -0.820  1.00  0.00     0.157 C 
HETATM   39  C2  UNL     1     -18.050  -4.056   1.469  1.00  0.00     0.109 A 
HETATM   40  C3  UNL     1     -17.479  -3.579   2.624  1.00  0.00     0.107 A 
HETATM   41  N2  UNL     1     -16.149  -3.310   2.433  1.00  0.00    -0.346 N 
ATOM     42  H2  UNL     1     -15.490  -2.947   3.122  1.00  0.00     0.167 HD
ENDBRANCH  33  36
ENDBRANCH  28  32
ENDBRANCH  23  26
ENDBRANCH  18  22
ENDBRANCH  13  16
ENDBRANCH  11  12
ENDBRANCH   8  11
ENDBRANCH   1   7
BRANCH   3  43
HETATM   43  C22 UNL     1       3.414   2.235  -0.131  1.00  0.00     0.273 C 
HETATM   44  N10 UNL     1       3.979   3.006   0.868  1.00  0.00    -0.320 N 
HETATM   45  H43 UNL     1       3.376   3.586   1.432  1.00  0.00     0.169 HD
HETATM   46  O5  UNL     1       4.061   1.517  -0.890  1.00  0.00    -0.266 OA
BRANCH  44  47
HETATM   47  C23 UNL     1       5.327   3.073   1.164  1.00  0.00     0.053 A 
HETATM   48  C24 UNL     1       5.829   3.863   2.168  1.00  0.00     0.120 A 
HETATM   49  N11 UNL     1       7.193   3.706   2.200  1.00  0.00    -0.354 N 
HETATM   50  C25 UNL     1       7.597   2.806   1.227  1.00  0.00     0.105 A 
HETATM   51  C37 UNL     1       8.059   4.387   3.141  1.00  0.00     0.156 C 
HETATM   52  C26 UNL     1       6.431   2.416   0.573  1.00  0.00     0.066 A 
BRANCH  50  53
HETATM   53  C27 UNL     1       8.986   2.411   0.991  1.00  0.00     0.273 C 
HETATM   54  N12 UNL     1       9.130   1.348   0.115  1.00  0.00    -0.320 N 
HETATM   55  H44 UNL     1       8.297   0.916  -0.255  1.00  0.00     0.169 HD
HETATM   56  O6  UNL     1       9.923   2.984   1.542  1.00  0.00    -0.266 OA
BRANCH  54  57
HETATM   57  C28 UNL     1      10.323   0.780  -0.289  1.00  0.00     0.053 A 
HETATM   58  C29 UNL     1      11.603   1.131   0.065  1.00  0.00     0.120 A 
HETATM   59  N13 UNL     1      12.477   0.274  -0.556  1.00  0.00    -0.354 N 
HETATM   60  C30 UNL     1      11.783  -0.592  -1.377  1.00  0.00     0.104 A 
HETATM   61  C36 UNL     1      13.899   0.253  -0.286  1.00  0.00     0.156 C 
HETATM   62  C31 UNL     1      10.437  -0.318  -1.175  1.00  0.00     0.066 A 
BRANCH  60  63
HETATM   63  C32 UNL     1      12.328  -1.623  -2.235  1.00  0.00     0.268 C 
HETATM   64  N14 UNL     1      13.442  -1.235  -2.951  1.00  0.00    -0.356 N 
HETATM   65  H45 UNL     1      13.633  -0.244  -3.005  1.00  0.00     0.162 HD
HETATM   66  O7  UNL     1      11.813  -2.728  -2.369  1.00  0.00    -0.266 OA
BRANCH  64  67
HETATM   67  C33 UNL     1      14.033  -2.098  -3.954  1.00  0.00     0.125 C 
BRANCH  67  68
HETATM   68  C34 UNL     1      13.268  -2.042  -5.275  1.00  0.00     0.049 C 
BRANCH  68  69
HETATM   69  C35 UNL     1      13.930  -2.931  -6.325  1.00  0.00     0.268 C 
BRANCH  69  70
HETATM   70  N15 UNL     1      13.206  -2.888  -7.591  1.00  0.00     0.078 N 
HETATM   71  H46 UNL     1      13.117  -1.923  -7.907  1.00  0.00     0.312 HD
HETATM   72  H47 UNL     1      12.252  -3.221  -7.447  1.00  0.00     0.312 HD
ENDBRANCH  69  70
ENDBRANCH  68  69
ENDBRANCH  67  68
ENDBRANCH  64  67
ENDBRANCH  60  63
ENDBRANCH  54  57
ENDBRANCH  50  53
ENDBRANCH  44  47
ENDBRANCH   3  43
TORSDOF 17
