REMARK  23 active torsions:
REMARK  status: ('A' for Active; 'I' for Inactive)
REMARK    1  A    between atoms: C5_5  and  C6_6 
REMARK    2  A    between atoms: C6_6  and  O1_59 
REMARK    3  A    between atoms: C7_7  and  C8_8 
REMARK    4  A    between atoms: C7_7  and  O1_59 
REMARK    5  A    between atoms: C8_8  and  C9_9 
REMARK    6  A    between atoms: C8_8  and  C15_15 
REMARK    7  A    between atoms: C8_8  and  O9_67 
REMARK    8  A    between atoms: C17_17  and  O3_61 
REMARK    9  A    between atoms: C21_21  and  C22_22 
REMARK   10  A    between atoms: C21_21  and  O3_61 
REMARK       I    between atoms: C22_22  and  N2_55 
REMARK   11  A    between atoms: C23_23  and  N2_55 
REMARK   12  A    between atoms: C25_25  and  N3_56 
REMARK   13  A    between atoms: C27_27  and  C28_28 
REMARK       I    between atoms: C27_27  and  N3_56 
REMARK   14  A    between atoms: C31_31  and  C34_34 
REMARK   15  A    between atoms: C34_34  and  C35_35 
REMARK   16  A    between atoms: C35_35  and  N4_57 
REMARK   17  A    between atoms: C36_36  and  C37_37 
REMARK   18  A    between atoms: C36_36  and  N4_57 
REMARK   19  A    between atoms: C37_37  and  C38_38 
REMARK   20  A    between atoms: C37_37  and  O8_66 
REMARK   21  A    between atoms: C44_44  and  O7_65 
REMARK   22  A    between atoms: C47_47  and  C48_48 
REMARK   23  A    between atoms: C47_47  and  N1_54 
ROOT
HETATM    1  C22 UNL     1       0.349   8.278  -1.218  1.00  0.00     0.242 C 
HETATM    2  N2  UNL     1       1.175   7.536  -0.396  1.00  0.00    -0.354 N 
HETATM    3  O4  UNL     1       0.647   8.576  -2.373  1.00  0.00    -0.271 OA
HETATM    4  H51 UNL     1       0.826   7.356   0.543  1.00  0.00     0.162 HD
ENDROOT
BRANCH   2   5
HETATM    5  C23 UNL     1       2.407   6.883  -0.897  1.00  0.00     0.088 C 
HETATM    6  C24 UNL     1       2.942   5.731   0.001  1.00  0.00     0.050 C 
HETATM    7  C25 UNL     1       2.023   4.785  -0.797  1.00  0.00     0.088 C 
HETATM    8  C26 UNL     1       2.141   5.788  -1.966  1.00  0.00     0.050 C 
BRANCH   7   9
HETATM    9  N3  UNL     1       2.530   3.437  -1.111  1.00  0.00    -0.352 N 
HETATM   10  C27 UNL     1       2.420   2.421  -0.180  1.00  0.00     0.252 C 
HETATM   11  O5  UNL     1       2.217   2.605   1.014  1.00  0.00    -0.268 OA
HETATM   12  H52 UNL     1       2.538   3.156  -2.084  1.00  0.00     0.163 HD
BRANCH  10  13
HETATM   13  C28 UNL     1       2.462   1.040  -0.727  1.00  0.00     0.032 A 
HETATM   14  C29 UNL     1       3.313   0.685  -1.779  1.00  0.00     0.017 A 
HETATM   15  C30 UNL     1       3.281  -0.615  -2.291  1.00  0.00     0.008 A 
HETATM   16  C31 UNL     1       2.408  -1.572  -1.753  1.00  0.00    -0.057 A 
HETATM   17  C32 UNL     1       1.558  -1.205  -0.700  1.00  0.00     0.008 A 
HETATM   18  C33 UNL     1       1.592   0.090  -0.182  1.00  0.00     0.017 A 
BRANCH  16  19
HETATM   19  C34 UNL     1       2.376  -2.988  -2.286  1.00  0.00     0.068 C 
BRANCH  19  20
HETATM   20  C35 UNL     1       3.709  -3.754  -2.167  1.00  0.00     0.274 C 
BRANCH  20  21
HETATM   21  N4  UNL     1       4.373  -3.720  -0.854  1.00  0.00     0.086 N 
HETATM   22  H53 UNL     1       4.524  -2.740  -0.602  1.00  0.00     0.316 HD
BRANCH  21  23
HETATM   23  C36 UNL     1       3.555  -4.352   0.201  1.00  0.00     0.306 C 
BRANCH  23  24
HETATM   24  C37 UNL     1       4.323  -4.321   1.545  1.00  0.00     0.180 C 
BRANCH  24  25
HETATM   25  C38 UNL     1       3.480  -4.876   2.679  1.00  0.00    -0.015 A 
HETATM   26  C39 UNL     1       2.483  -4.102   3.318  1.00  0.00     0.003 A 
HETATM   27  C40 UNL     1       2.201  -2.694   2.990  1.00  0.00     0.020 A 
HETATM   28  C43 UNL     1       1.697  -4.697   4.323  1.00  0.00     0.079 A 
HETATM   29  C41 UNL     1       1.222  -2.023   3.611  1.00  0.00     0.075 A 
HETATM   30  C42 UNL     1       0.385  -2.662   4.651  1.00  0.00     0.245 A 
HETATM   31  N5  UNL     1       0.682  -3.958   4.949  1.00  0.00    -0.321 N 
HETATM   32  O6  UNL     1      -0.522  -2.041   5.194  1.00  0.00    -0.268 OA
HETATM   33  H54 UNL     1       0.131  -4.420   5.664  1.00  0.00     0.169 HD
HETATM   34  C44 UNL     1       1.895  -6.025   4.705  1.00  0.00     0.093 A 
HETATM   35  C45 UNL     1       2.875  -6.790   4.090  1.00  0.00     0.039 A 
HETATM   36  C46 UNL     1       3.655  -6.218   3.082  1.00  0.00     0.013 A 
BRANCH  34  37
HETATM   37  O7  UNL     1       1.102  -6.554   5.687  1.00  0.00    -0.358 OA
HETATM   38  H55 UNL     1       1.393  -7.464   5.864  1.00  0.00     0.217 HD
ENDBRANCH  34  37
ENDBRANCH  24  25
BRANCH  24  39
HETATM   39  O8  UNL     1       5.541  -5.060   1.383  1.00  0.00    -0.389 OA
HETATM   40  H56 UNL     1       5.848  -4.822   0.484  1.00  0.00     0.210 HD
ENDBRANCH  24  39
ENDBRANCH  23  24
ENDBRANCH  21  23
ENDBRANCH  20  21
ENDBRANCH  19  20
ENDBRANCH  16  19
ENDBRANCH  10  13
ENDBRANCH   7   9
ENDBRANCH   2   5
BRANCH   1  41
HETATM   41  C21 UNL     1      -0.986   8.698  -0.595  1.00  0.00     0.278 C 
BRANCH  41  42
HETATM   42  O3  UNL     1      -1.216   8.194   0.720  1.00  0.00    -0.342 OA
BRANCH  42  43
HETATM   43  C17 UNL     1      -2.138   7.182   0.751  1.00  0.00     0.070 A 
HETATM   44  C16 UNL     1      -1.894   5.947   0.148  1.00  0.00     0.047 A 
HETATM   45  C15 UNL     1      -2.791   4.870   0.301  1.00  0.00    -0.007 A 
HETATM   46  C20 UNL     1      -3.963   5.098   1.045  1.00  0.00     0.011 A 
HETATM   47  C19 UNL     1      -4.210   6.340   1.638  1.00  0.00     0.003 A 
HETATM   48  C18 UNL     1      -3.287   7.376   1.508  1.00  0.00     0.037 A 
BRANCH  45  49
HETATM   49  C8  UNL     1      -2.454   3.470  -0.237  1.00  0.00     0.201 C 
BRANCH  49  50
HETATM   50  C7  UNL     1      -3.500   2.955  -1.281  1.00  0.00     0.303 C 
HETATM   51  O2  UNL     1      -4.712   3.125  -1.248  1.00  0.00    -0.261 OA
BRANCH  50  52
HETATM   52  O1  UNL     1      -2.857   2.162  -2.201  1.00  0.00    -0.318 OA
BRANCH  52  53
HETATM   53  C6  UNL     1      -3.666   1.365  -3.079  1.00  0.00     0.183 C 
BRANCH  53  54
HETATM   54  C5  UNL     1      -3.549  -0.097  -2.640  1.00  0.00     0.013 C 
HETATM   55  C1  UNL     1      -2.077  -0.561  -2.587  1.00  0.00     0.037 C 
HETATM   56  C2  UNL     1      -1.905  -2.061  -2.857  1.00  0.00     0.273 C 
HETATM   57  N1  UNL     1      -3.042  -2.796  -2.309  1.00  0.00     0.092 N 
HETATM   58  C3  UNL     1      -4.284  -2.483  -3.036  1.00  0.00     0.273 C 
HETATM   59  C4  UNL     1      -4.363  -1.031  -3.533  1.00  0.00     0.037 C 
BRANCH  57  60
HETATM   60  C47 UNL     1      -2.819  -4.249  -2.269  1.00  0.00     0.311 C 
BRANCH  60  61
HETATM   61  C48 UNL     1      -1.794  -4.688  -1.241  1.00  0.00    -0.030 A 
HETATM   62  C49 UNL     1      -0.853  -5.679  -1.562  1.00  0.00     0.009 A 
HETATM   63  C50 UNL     1       0.047  -6.142  -0.600  1.00  0.00     0.001 A 
HETATM   64  C51 UNL     1       0.013  -5.626   0.693  1.00  0.00     0.000 A 
HETATM   65  C52 UNL     1      -0.914  -4.640   1.026  1.00  0.00     0.001 A 
HETATM   66  C53 UNL     1      -1.815  -4.178   0.066  1.00  0.00     0.009 A 
ENDBRANCH  60  61
ENDBRANCH  57  60
ENDBRANCH  53  54
ENDBRANCH  52  53
ENDBRANCH  50  52
ENDBRANCH  49  50
BRANCH  49  67
HETATM   67  C9  UNL     1      -2.247   2.466   0.915  1.00  0.00    -0.009 A 
HETATM   68  C10 UNL     1      -1.095   2.561   1.721  1.00  0.00     0.011 A 
HETATM   69  C11 UNL     1      -0.882   1.684   2.786  1.00  0.00     0.001 A 
HETATM   70  C12 UNL     1      -1.817   0.695   3.072  1.00  0.00     0.000 A 
HETATM   71  C13 UNL     1      -2.967   0.587   2.295  1.00  0.00     0.001 A 
HETATM   72  C14 UNL     1      -3.186   1.467   1.232  1.00  0.00     0.011 A 
ENDBRANCH  49  67
BRANCH  49  73
HETATM   73  O9  UNL     1      -1.190   3.539  -0.942  1.00  0.00    -0.371 OA
HETATM   74  H57 UNL     1      -1.021   2.626  -1.239  1.00  0.00     0.212 HD
ENDBRANCH  49  73
ENDBRANCH  45  49
ENDBRANCH  42  43
ENDBRANCH  41  42
ENDBRANCH   1  41
TORSDOF 23
