REMARK  0 active torsions:
REMARK  status: ('A' for Active; 'I' for Inactive)
REMARK       I    between atoms: C2_2  and  O1_55 
REMARK       I    between atoms: C3_3  and  C27_27 
REMARK       I    between atoms: C5_5  and  N1_66 
REMARK       I    between atoms: C8_8  and  C9_9 
REMARK       I    between atoms: C8_8  and  N1_66 
REMARK       I    between atoms: C9_9  and  C10_10 
REMARK       I    between atoms: C9_9  and  N3_68 
REMARK       I    between atoms: C10_10  and  C11_11 
REMARK       I    between atoms: C11_11  and  C12_12 
REMARK       I    between atoms: C12_12  and  C13_13 
REMARK       I    between atoms: C13_13  and  N2_67 
REMARK       I    between atoms: C14_14  and  C15_15 
REMARK       I    between atoms: C14_14  and  N3_68 
REMARK       I    between atoms: C16_16  and  O5_59 
REMARK       I    between atoms: C19_19  and  N4_69 
REMARK       I    between atoms: C21_21  and  C22_22 
REMARK       I    between atoms: C21_21  and  N4_69 
REMARK       I    between atoms: C22_22  and  C23_23 
REMARK       I    between atoms: C22_22  and  N6_71 
REMARK       I    between atoms: C23_23  and  C24_24 
REMARK       I    between atoms: C24_24  and  C25_25 
REMARK       I    between atoms: C25_25  and  C26_26 
REMARK       I    between atoms: C26_26  and  N5_70 
REMARK       I    between atoms: C27_27  and  N7_72 
REMARK       I    between atoms: C28_28  and  C29_29 
REMARK       I    between atoms: C28_28  and  C33_33 
REMARK       I    between atoms: C28_28  and  N7_72 
REMARK       I    between atoms: C29_29  and  C30_30 
REMARK       I    between atoms: C30_30  and  C31_31 
REMARK       I    between atoms: C31_31  and  C32_32 
REMARK       I    between atoms: C32_32  and  N8_73 
REMARK       I    between atoms: C33_33  and  N9_74 
REMARK       I    between atoms: C34_34  and  N9_74 
REMARK       I    between atoms: C36_36  and  C41_41 
REMARK       I    between atoms: C37_37  and  O8_62 
REMARK       I    between atoms: C41_41  and  N10_75 
REMARK       I    between atoms: C42_42  and  C43_43 
REMARK       I    between atoms: C42_42  and  C47_47 
REMARK       I    between atoms: C42_42  and  N10_75 
REMARK       I    between atoms: C43_43  and  C44_44 
REMARK       I    between atoms: C44_44  and  C45_45 
REMARK       I    between atoms: C45_45  and  C46_46 
REMARK       I    between atoms: C46_46  and  N11_76 
REMARK       I    between atoms: C47_47  and  N12_77 
REMARK       I    between atoms: C48_48  and  N12_77 
REMARK       I    between atoms: C52_52  and  C54_54 
REMARK       I    between atoms: C54_54  and  N13_78 
ROOT
HETATM    1  C1  UNL     1      -0.865   6.496  -0.852  1.00  0.00     0.210 C 
HETATM    2  C2  UNL     1      -0.039   4.371  -0.118  1.00  0.00     0.084 A 
HETATM    3  C3  UNL     1      -0.041   3.340   0.841  1.00  0.00     0.067 A 
HETATM    4  C4  UNL     1       0.925   2.316   0.761  1.00  0.00     0.049 A 
HETATM    5  C5  UNL     1       1.884   2.294  -0.256  1.00  0.00     0.035 A 
HETATM    6  C6  UNL     1       1.870   3.311  -1.205  1.00  0.00     0.032 A 
HETATM    7  C7  UNL     1       0.919   4.338  -1.138  1.00  0.00     0.040 A 
HETATM    8  C8  UNL     1       3.852   1.008  -1.135  1.00  0.00     0.245 C 
HETATM    9  C9  UNL     1       4.619  -0.303  -0.843  1.00  0.00     0.177 C 
HETATM   10  C10 UNL     1       3.762  -1.556  -1.109  1.00  0.00     0.035 C 
HETATM   11  C11 UNL     1       3.047  -1.633  -2.468  1.00  0.00     0.004 C 
HETATM   12  C12 UNL     1       3.933  -1.657  -3.716  1.00  0.00     0.030 C 
HETATM   13  C13 UNL     1       4.864  -2.867  -3.780  1.00  0.00     0.267 C 
HETATM   14  C14 UNL     1       6.959  -1.059  -1.214  1.00  0.00     0.255 C 
HETATM   15  C15 UNL     1       8.182  -0.961  -2.071  1.00  0.00     0.067 A 
HETATM   16  C16 UNL     1       8.257  -0.237  -3.269  1.00  0.00     0.081 A 
HETATM   17  C17 UNL     1       9.443  -0.209  -4.003  1.00  0.00     0.040 A 
HETATM   18  C18 UNL     1      10.568  -0.904  -3.549  1.00  0.00     0.032 A 
HETATM   19  C19 UNL     1      10.517  -1.632  -2.361  1.00  0.00     0.035 A 
HETATM   20  C20 UNL     1       9.323  -1.655  -1.630  1.00  0.00     0.049 A 
HETATM   21  C21 UNL     1      12.874  -2.499  -2.363  1.00  0.00     0.255 C 
HETATM   22  C22 UNL     1      13.786  -3.338  -1.437  1.00  0.00     0.309 C 
HETATM   23  C23 UNL     1      14.742  -2.433  -0.646  1.00  0.00     0.045 C 
HETATM   24  C24 UNL     1      14.061  -1.492   0.357  1.00  0.00     0.004 C 
HETATM   25  C25 UNL     1      15.091  -0.641   1.104  1.00  0.00     0.030 C 
HETATM   26  C26 UNL     1      14.413   0.298   2.102  1.00  0.00     0.267 C 
HETATM   27  C27 UNL     1      -1.005   3.242   1.987  1.00  0.00     0.255 C 
HETATM   28  C28 UNL     1      -2.938   4.265   3.196  1.00  0.00     0.177 C 
HETATM   29  C29 UNL     1      -3.432   5.701   3.433  1.00  0.00     0.035 C 
HETATM   30  C30 UNL     1      -2.451   6.611   4.188  1.00  0.00     0.004 C 
HETATM   31  C31 UNL     1      -1.161   6.925   3.426  1.00  0.00     0.030 C 
HETATM   32  C32 UNL     1      -0.285   7.976   4.114  1.00  0.00     0.267 C 
HETATM   33  C33 UNL     1      -4.117   3.317   2.850  1.00  0.00     0.245 C 
HETATM   34  C34 UNL     1      -4.528   0.845   2.635  1.00  0.00     0.035 A 
HETATM   35  C35 UNL     1      -5.908   0.872   2.434  1.00  0.00     0.049 A 
HETATM   36  C36 UNL     1      -6.632  -0.317   2.204  1.00  0.00     0.067 A 
HETATM   37  C37 UNL     1      -5.956  -1.556   2.185  1.00  0.00     0.084 A 
HETATM   38  C38 UNL     1      -4.572  -1.574   2.388  1.00  0.00     0.040 A 
HETATM   39  C39 UNL     1      -3.869  -0.386   2.613  1.00  0.00     0.032 A 
HETATM   40  C40 UNL     1      -6.049  -3.952   2.110  1.00  0.00     0.210 C 
HETATM   41  C41 UNL     1      -8.114  -0.161   2.001  1.00  0.00     0.255 C 
HETATM   42  C42 UNL     1     -10.255  -1.312   1.448  1.00  0.00     0.177 C 
HETATM   43  C43 UNL     1     -10.939  -0.239   0.578  1.00  0.00     0.035 C 
HETATM   44  C44 UNL     1     -10.454  -0.184  -0.877  1.00  0.00     0.004 C 
HETATM   45  C45 UNL     1     -11.048   0.987  -1.670  1.00  0.00     0.030 C 
HETATM   46  C46 UNL     1     -12.560   0.880  -1.865  1.00  0.00     0.267 C 
HETATM   47  C47 UNL     1     -10.689  -2.724   0.987  1.00  0.00     0.245 C 
HETATM   48  C48 UNL     1      -9.868  -4.555  -0.523  1.00  0.00     0.035 A 
HETATM   49  C49 UNL     1      -8.932  -4.838  -1.526  1.00  0.00     0.029 A 
HETATM   50  C50 UNL     1      -8.922  -6.081  -2.160  1.00  0.00     0.003 A 
HETATM   51  C51 UNL     1      -9.852  -7.053  -1.795  1.00  0.00     0.017 A 
HETATM   52  C52 UNL     1     -10.796  -6.784  -0.796  1.00  0.00     0.034 A 
HETATM   53  C53 UNL     1     -10.790  -5.538  -0.153  1.00  0.00     0.046 A 
HETATM   54  C54 UNL     1     -11.764  -7.856  -0.439  1.00  0.00     0.249 C 
HETATM   55  O1  UNL     1      -0.993   5.350  -0.015  1.00  0.00    -0.355 OA
HETATM   56  O2  UNL     1       4.167   1.734  -2.076  1.00  0.00    -0.271 OA
HETATM   57  O3  UNL     1       6.946  -1.791  -0.228  1.00  0.00    -0.268 OA
HETATM   58  O4  UNL     1      13.300  -2.016  -3.407  1.00  0.00    -0.271 OA
HETATM   59  O5  UNL     1       7.172   0.445  -3.750  1.00  0.00    -0.360 OA
HETATM   60  O6  UNL     1      -0.955   2.297   2.773  1.00  0.00    -0.268 OA
HETATM   61  O7  UNL     1      -5.241   3.740   2.595  1.00  0.00    -0.271 OA
HETATM   62  O8  UNL     1      -6.698  -2.691   1.966  1.00  0.00    -0.355 OA
HETATM   63  O9  UNL     1      -8.679   0.883   2.305  1.00  0.00    -0.268 OA
HETATM   64  O10 UNL     1     -11.765  -3.208   1.329  1.00  0.00    -0.271 OA
HETATM   65  O11 UNL     1     -11.569  -9.024  -0.753  1.00  0.00    -0.268 OA
HETATM   66  N1  UNL     1       2.805   1.226  -0.251  1.00  0.00    -0.325 N 
HETATM   67  N2  UNL     1       5.698  -2.792  -4.976  1.00  0.00     0.078 N 
HETATM   68  N3  UNL     1       5.871  -0.310  -1.580  1.00  0.00    -0.344 N 
HETATM   69  N4  UNL     1      11.602  -2.352  -1.840  1.00  0.00    -0.325 N 
HETATM   70  N5  UNL     1      15.397   1.109   2.810  1.00  0.00     0.078 N 
HETATM   71  N6  UNL     1      12.972  -4.195  -0.536  1.00  0.00     0.092 N 
HETATM   72  N7  UNL     1      -1.961   4.216   2.110  1.00  0.00    -0.344 N 
HETATM   73  N8  UNL     1      -0.880   9.307   4.064  1.00  0.00     0.078 N 
HETATM   74  N9  UNL     1      -3.736   1.983   2.868  1.00  0.00    -0.325 N 
HETATM   75  N10 UNL     1      -8.790  -1.237   1.466  1.00  0.00    -0.344 N 
HETATM   76  N11 UNL     1     -13.037   1.958  -2.724  1.00  0.00     0.078 N 
HETATM   77  N12 UNL     1      -9.804  -3.283   0.074  1.00  0.00    -0.325 N 
HETATM   78  N13 UNL     1     -12.901  -7.495   0.228  1.00  0.00    -0.366 N 
HETATM   79  H56 UNL     1       7.434   0.966  -4.530  1.00  0.00     0.217 HD
HETATM   80  H57 UNL     1       2.705   0.559   0.505  1.00  0.00     0.169 HD
HETATM   81  H58 UNL     1       6.348  -3.578  -4.976  1.00  0.00     0.312 HD
HETATM   82  H59 UNL     1       6.276  -1.953  -4.920  1.00  0.00     0.312 HD
HETATM   83  H60 UNL     1       5.948   0.306  -2.391  1.00  0.00     0.163 HD
HETATM   84  H61 UNL     1      11.473  -2.855  -0.962  1.00  0.00     0.169 HD
HETATM   85  H62 UNL     1      16.066   0.502   3.284  1.00  0.00     0.312 HD
HETATM   86  H63 UNL     1      15.939   1.652   2.139  1.00  0.00     0.312 HD
HETATM   87  H64 UNL     1      13.605  -4.688   0.097  1.00  0.00     0.313 HD
HETATM   88  H65 UNL     1      12.541  -4.929  -1.105  1.00  0.00     0.313 HD
HETATM   89  H66 UNL     1      -2.060   4.881   1.347  1.00  0.00     0.163 HD
HETATM   90  H67 UNL     1      -1.741   9.325   4.609  1.00  0.00     0.312 HD
HETATM   91  H68 UNL     1      -0.253   9.972   4.514  1.00  0.00     0.312 HD
HETATM   92  H69 UNL     1      -2.736   1.824   3.009  1.00  0.00     0.169 HD
HETATM   93  H70 UNL     1      -8.297  -2.118   1.586  1.00  0.00     0.163 HD
HETATM   94  H71 UNL     1     -12.597   1.890  -3.640  1.00  0.00     0.312 HD
HETATM   95  H72 UNL     1     -14.039   1.851  -2.877  1.00  0.00     0.312 HD
HETATM   96  H73 UNL     1      -9.068  -2.661  -0.247  1.00  0.00     0.169 HD
HETATM   97  H74 UNL     1     -13.208  -6.538   0.327  1.00  0.00     0.159 HD
HETATM   98  H75 UNL     1     -13.589  -8.223   0.375  1.00  0.00     0.159 HD
ENDROOT
TORSDOF 39
