REMARK  0 active torsions:
REMARK  status: ('A' for Active; 'I' for Inactive)
REMARK       I    between atoms: C1_1  and  C73_73 
REMARK       I    between atoms: C3_3  and  C66_66 
REMARK       I    between atoms: C9_9  and  C63_63 
REMARK       I    between atoms: C12_12  and  N6_97 
REMARK       I    between atoms: C14_14  and  C16_16 
REMARK       I    between atoms: C16_16  and  C17_17 
REMARK       I    between atoms: C20_20  and  C21_21 
REMARK       I    between atoms: C20_20  and  N6_97 
REMARK       I    between atoms: C21_21  and  C58_58 
REMARK       I    between atoms: C21_21  and  N7_98 
REMARK       I    between atoms: C22_22  and  C23_23 
REMARK       I    between atoms: C22_22  and  N7_98 
REMARK       I    between atoms: C23_23  and  C55_55 
REMARK       I    between atoms: C23_23  and  N8_99 
REMARK       I    between atoms: C24_24  and  C25_25 
REMARK       I    between atoms: C24_24  and  N8_99 
REMARK       I    between atoms: C29_29  and  C30_30 
REMARK       I    between atoms: C29_29  and  N9_100 
REMARK       I    between atoms: C30_30  and  C52_52 
REMARK       I    between atoms: C30_30  and  N10_101 
REMARK       I    between atoms: C31_31  and  C32_32 
REMARK       I    between atoms: C31_31  and  N10_101 
REMARK       I    between atoms: C32_32  and  C49_49 
REMARK       I    between atoms: C32_32  and  N11_102 
REMARK       I    between atoms: C33_33  and  C34_34 
REMARK       I    between atoms: C33_33  and  N11_102 
REMARK       I    between atoms: C34_34  and  C47_47 
REMARK       I    between atoms: C34_34  and  N12_103 
REMARK       I    between atoms: C35_35  and  C36_36 
REMARK       I    between atoms: C35_35  and  N12_103 
REMARK       I    between atoms: C36_36  and  C44_44 
REMARK       I    between atoms: C36_36  and  N13_104 
REMARK       I    between atoms: C37_37  and  C38_38 
REMARK       I    between atoms: C37_37  and  N13_104 
REMARK       I    between atoms: C38_38  and  C39_39 
REMARK       I    between atoms: C39_39  and  C40_40 
REMARK       I    between atoms: C40_40  and  C41_41 
REMARK       I    between atoms: C47_47  and  O16_91 
REMARK       I    between atoms: C55_55  and  C56_56 
REMARK       I    between atoms: C56_56  and  C57_57 
REMARK       I    between atoms: C57_57  and  N14_105 
REMARK       I    between atoms: C58_58  and  C59_59 
REMARK       I    between atoms: C66_66  and  C67_67 
ROOT
HETATM    1  C1  UNL     1     -10.540   0.366   0.464  1.00  0.00     0.180 C 
HETATM    2  C2  UNL     1     -10.823  -0.450  -0.826  1.00  0.00     0.241 C 
HETATM    3  C3  UNL     1     -11.081  -0.256  -3.271  1.00  0.00     0.181 C 
HETATM    4  C4  UNL     1      -9.625  -0.437  -3.757  1.00  0.00     0.245 C 
HETATM    5  C5  UNL     1      -8.383  -1.841  -5.444  1.00  0.00     0.099 C 
HETATM    6  C6  UNL     1      -8.515  -2.815  -6.371  1.00  0.00     0.004 C 
HETATM    7  C7  UNL     1      -9.730  -3.580  -6.792  1.00  0.00     0.038 C 
HETATM    8  C8  UNL     1      -6.961  -1.302  -5.331  1.00  0.00     0.268 C 
HETATM    9  C9  UNL     1      -5.268  -0.203  -3.867  1.00  0.00     0.188 C 
HETATM   10  C10 UNL     1      -5.096  -0.206  -2.337  1.00  0.00     0.282 C 
HETATM   11  C11 UNL     1      -3.420   0.194  -0.597  1.00  0.00     0.159 C 
HETATM   12  C12 UNL     1      -4.445   0.562   0.505  1.00  0.00     0.205 C 
HETATM   13  C13 UNL     1      -5.237   1.844   0.194  1.00  0.00     0.243 C 
HETATM   14  C14 UNL     1      -7.548   2.729  -0.203  1.00  0.00     0.180 C 
HETATM   15  C15 UNL     1      -8.972   2.136  -0.365  1.00  0.00     0.241 C 
HETATM   16  C16 UNL     1      -7.540   3.899   0.823  1.00  0.00     0.013 C 
HETATM   17  C17 UNL     1      -8.119   3.589   2.220  1.00  0.00     0.002 C 
HETATM   18  C18 UNL     1      -7.301   2.602   3.038  1.00  0.00     0.005 C 
HETATM   19  C19 UNL     1      -8.274   5.119   0.241  1.00  0.00     0.012 C 
HETATM   20  C20 UNL     1      -4.299   0.152   2.960  1.00  0.00     0.241 C 
HETATM   21  C21 UNL     1      -3.622   0.647   4.268  1.00  0.00     0.180 C 
HETATM   22  C22 UNL     1      -1.306   1.145   3.526  1.00  0.00     0.241 C 
HETATM   23  C23 UNL     1       0.078   0.536   3.219  1.00  0.00     0.176 C 
HETATM   24  C24 UNL     1       1.750   1.163   1.482  1.00  0.00     0.241 C 
HETATM   25  C25 UNL     1       2.342   2.354   0.693  1.00  0.00     0.179 C 
HETATM   26  C26 UNL     1       3.271   1.700  -1.429  1.00  0.00     0.127 C 
HETATM   27  C27 UNL     1       1.761   1.854  -1.566  1.00  0.00     0.022 C 
HETATM   28  C28 UNL     1       1.390   2.791  -0.419  1.00  0.00     0.037 C 
HETATM   29  C29 UNL     1       4.739   1.803   0.646  1.00  0.00     0.243 C 
HETATM   30  C30 UNL     1       5.986   1.372  -0.159  1.00  0.00     0.180 C 
HETATM   31  C31 UNL     1       7.627  -0.383   0.498  1.00  0.00     0.241 C 
HETATM   32  C32 UNL     1       8.430  -0.962   1.684  1.00  0.00     0.180 C 
HETATM   33  C33 UNL     1       8.895  -3.370   2.138  1.00  0.00     0.243 C 
HETATM   34  C34 UNL     1       9.430  -4.679   1.508  1.00  0.00     0.205 C 
HETATM   35  C35 UNL     1      10.785  -3.991  -0.457  1.00  0.00     0.241 C 
HETATM   36  C36 UNL     1      12.194  -3.615  -0.956  1.00  0.00     0.180 C 
HETATM   37  C37 UNL     1      12.891  -1.644  -2.297  1.00  0.00     0.218 C 
HETATM   38  C38 UNL     1      12.488  -0.784  -3.481  1.00  0.00     0.103 C 
HETATM   39  C39 UNL     1      13.334   0.479  -3.635  1.00  0.00     0.010 C 
HETATM   40  C40 UNL     1      13.090   1.554  -2.566  1.00  0.00     0.004 C 
HETATM   41  C41 UNL     1      11.658   2.119  -2.493  1.00  0.00    -0.023 C 
HETATM   42  C42 UNL     1      11.200   2.725  -3.820  1.00  0.00     0.009 C 
HETATM   43  C43 UNL     1      11.575   3.176  -1.388  1.00  0.00     0.009 C 
HETATM   44  C44 UNL     1      13.052  -4.823  -1.390  1.00  0.00     0.009 C 
HETATM   45  C45 UNL     1      13.504  -5.673  -0.200  1.00  0.00     0.012 C 
HETATM   46  C46 UNL     1      12.359  -5.707  -2.432  1.00  0.00     0.012 C 
HETATM   47  C47 UNL     1       9.525  -5.828   2.540  1.00  0.00     0.146 C 
HETATM   48  C48 UNL     1      10.535  -5.607   3.664  1.00  0.00     0.042 C 
HETATM   49  C49 UNL     1       9.570  -0.006   2.111  1.00  0.00     0.009 C 
HETATM   50  C50 UNL     1      10.201  -0.440   3.437  1.00  0.00     0.012 C 
HETATM   51  C51 UNL     1      10.659   0.135   1.041  1.00  0.00     0.012 C 
HETATM   52  C52 UNL     1       6.624   2.578  -0.889  1.00  0.00     0.009 C 
HETATM   53  C53 UNL     1       7.305   3.570   0.061  1.00  0.00     0.012 C 
HETATM   54  C54 UNL     1       7.620   2.121  -1.958  1.00  0.00     0.012 C 
HETATM   55  C55 UNL     1       0.919   0.247   4.469  1.00  0.00     0.036 C 
HETATM   56  C56 UNL     1       0.532  -0.961   5.334  1.00  0.00     0.032 C 
HETATM   57  C57 UNL     1       0.270  -2.256   4.568  1.00  0.00     0.267 C 
HETATM   58  C58 UNL     1      -4.251   0.028   5.545  1.00  0.00     0.013 C 
HETATM   59  C59 UNL     1      -5.697   0.545   5.743  1.00  0.00     0.002 C 
HETATM   60  C60 UNL     1      -6.451  -0.149   6.870  1.00  0.00     0.005 C 
HETATM   61  C61 UNL     1      -3.406   0.351   6.787  1.00  0.00     0.012 C 
HETATM   62  C62 UNL     1      -2.149   1.047  -0.564  1.00  0.00     0.042 C 
HETATM   63  C63 UNL     1      -5.097   1.180  -4.542  1.00  0.00     0.010 C 
HETATM   64  C64 UNL     1      -5.811   2.316  -3.806  1.00  0.00     0.012 C 
HETATM   65  C65 UNL     1      -3.623   1.540  -4.757  1.00  0.00     0.012 C 
HETATM   66  C66 UNL     1     -11.821   0.635  -4.279  1.00  0.00     0.073 C 
HETATM   67  C67 UNL     1     -13.307   0.704  -4.020  1.00  0.00    -0.056 A 
HETATM   68  C68 UNL     1     -13.840   1.717  -3.211  1.00  0.00     0.007 A 
HETATM   69  C69 UNL     1     -15.211   1.773  -2.958  1.00  0.00     0.001 A 
HETATM   70  C70 UNL     1     -16.062   0.816  -3.508  1.00  0.00     0.000 A 
HETATM   71  C71 UNL     1     -15.542  -0.197  -4.311  1.00  0.00     0.001 A 
HETATM   72  C72 UNL     1     -14.171  -0.255  -4.566  1.00  0.00     0.007 A 
HETATM   73  C73 UNL     1     -10.710  -0.490   1.744  1.00  0.00     0.009 C 
HETATM   74  C74 UNL     1      -9.572  -1.487   1.999  1.00  0.00     0.012 C 
HETATM   75  C75 UNL     1     -10.884   0.406   2.976  1.00  0.00     0.012 C 
HETATM   76  O1  UNL     1     -10.853  -1.677  -0.877  1.00  0.00    -0.271 OA
HETATM   77  O2  UNL     1      -8.720   0.285  -3.344  1.00  0.00    -0.271 OA
HETATM   78  O3  UNL     1      -6.164  -1.394  -6.265  1.00  0.00    -0.266 OA
HETATM   79  O4  UNL     1      -5.951  -0.583  -1.542  1.00  0.00    -0.263 OA
HETATM   80  O5  UNL     1      -3.874   0.256  -1.976  1.00  0.00    -0.312 OA
HETATM   81  O6  UNL     1      -4.700   2.946   0.122  1.00  0.00    -0.271 OA
HETATM   82  O7  UNL     1      -9.850   2.675  -1.038  1.00  0.00    -0.271 OA
HETATM   83  O8  UNL     1      -5.173  -0.711   2.928  1.00  0.00    -0.271 OA
HETATM   84  O9  UNL     1      -1.608   2.294   3.193  1.00  0.00    -0.271 OA
HETATM   85  O10 UNL     1       2.082  -0.007   1.301  1.00  0.00    -0.271 OA
HETATM   86  O11 UNL     1       4.828   2.025   1.860  1.00  0.00    -0.271 OA
HETATM   87  O12 UNL     1       7.665  -0.880  -0.627  1.00  0.00    -0.271 OA
HETATM   88  O13 UNL     1       8.411  -3.323   3.268  1.00  0.00    -0.271 OA
HETATM   89  O14 UNL     1       9.785  -3.882  -1.166  1.00  0.00    -0.271 OA
HETATM   90  O15 UNL     1      13.909  -1.472  -1.637  1.00  0.00    -0.274 OA
HETATM   91  O16 UNL     1       8.249  -6.117   3.119  1.00  0.00    -0.393 OA
HETATM   92  N1  UNL     1     -11.041   0.337  -1.940  1.00  0.00    -0.346 N 
HETATM   93  N2  UNL     1      -9.483  -1.434  -4.704  1.00  0.00    -0.321 N 
HETATM   94  N3  UNL     1      -6.591  -0.768  -4.136  1.00  0.00    -0.342 N 
HETATM   95  N4  UNL     1      -6.603   1.644   0.102  1.00  0.00    -0.346 N 
HETATM   96  N5  UNL     1      -9.225   1.009   0.387  1.00  0.00    -0.346 N 
HETATM   97  N6  UNL     1      -3.826   0.767   1.817  1.00  0.00    -0.344 N 
HETATM   98  N7  UNL     1      -2.201   0.305   4.140  1.00  0.00    -0.346 N 
HETATM   99  N8  UNL     1       0.768   1.518   2.378  1.00  0.00    -0.346 N 
HETATM  100  N9  UNL     1       3.552   1.970  -0.027  1.00  0.00    -0.337 N 
HETATM  101  N10 UNL     1       6.902   0.745   0.794  1.00  0.00    -0.346 N 
HETATM  102  N11 UNL     1       8.931  -2.278   1.301  1.00  0.00    -0.346 N 
HETATM  103  N12 UNL     1      10.720  -4.433   0.845  1.00  0.00    -0.344 N 
HETATM  104  N13 UNL     1      12.011  -2.670  -2.054  1.00  0.00    -0.347 N 
HETATM  105  N14 UNL     1      -1.129  -2.328   4.127  1.00  0.00     0.078 N 
HETATM  106  HB0 UNL     1       7.964  -5.309   3.597  1.00  0.00     0.210 HD
HETATM  107  HB1 UNL     1     -10.702   1.299  -1.872  1.00  0.00     0.163 HD
HETATM  108  HB2 UNL     1     -10.327  -1.962  -4.879  1.00  0.00     0.169 HD
HETATM  109  HB3 UNL     1      -7.316  -0.577  -3.448  1.00  0.00     0.163 HD
HETATM  110  HB4 UNL     1      -6.834   0.737  -0.309  1.00  0.00     0.163 HD
HETATM  111  HB5 UNL     1      -8.452   0.604   0.901  1.00  0.00     0.163 HD
HETATM  112  HB6 UNL     1      -3.292   1.628   1.949  1.00  0.00     0.163 HD
HETATM  113  HB7 UNL     1      -1.963  -0.693   4.104  1.00  0.00     0.163 HD
HETATM  114  HB8 UNL     1       0.469   2.485   2.466  1.00  0.00     0.163 HD
HETATM  115  HB9 UNL     1       6.750   0.998   1.768  1.00  0.00     0.163 HD
HETATM  116  HC0 UNL     1       8.971  -2.460   0.296  1.00  0.00     0.163 HD
HETATM  117  HC1 UNL     1      11.499  -4.189   1.444  1.00  0.00     0.163 HD
HETATM  118  HC2 UNL     1      11.135  -2.726  -2.567  1.00  0.00     0.163 HD
HETATM  119  HC3 UNL     1      -1.198  -3.087   3.442  1.00  0.00     0.312 HD
HETATM  120  HC4 UNL     1      -1.686  -2.668   4.919  1.00  0.00     0.312 HD
ENDROOT
TORSDOF 35
