REMARK  0 active torsions:
REMARK  status: ('A' for Active; 'I' for Inactive)
REMARK       I    between atoms: C4_4  and  C5_5 
REMARK       I    between atoms: C5_5  and  N3_81 
REMARK       I    between atoms: C6_6  and  N3_81 
REMARK       I    between atoms: C8_8  and  C9_9 
REMARK       I    between atoms: C9_9  and  N6_85 
REMARK       I    between atoms: C10_10  and  N6_85 
REMARK       I    between atoms: C12_12  and  C13_13 
REMARK       I    between atoms: C13_13  and  N9_89 
REMARK       I    between atoms: C14_14  and  N9_89 
REMARK       I    between atoms: C16_16  and  C18_18 
REMARK       I    between atoms: C18_18  and  N11_91 
REMARK       I    between atoms: C19_19  and  C20_20 
REMARK       I    between atoms: C19_19  and  N11_91 
REMARK       I    between atoms: C20_20  and  C21_21 
REMARK       I    between atoms: C21_21  and  C22_22 
REMARK       I    between atoms: C22_22  and  O12_117 
REMARK       I    between atoms: C23_23  and  N12_92 
REMARK       I    between atoms: C25_25  and  C27_27 
REMARK       I    between atoms: C27_27  and  N14_95 
REMARK       I    between atoms: C28_28  and  N14_95 
REMARK       I    between atoms: C30_30  and  C32_32 
REMARK       I    between atoms: C32_32  and  N16_97 
REMARK       I    between atoms: C33_33  and  N16_97 
REMARK       I    between atoms: C35_35  and  C37_37 
REMARK       I    between atoms: C37_37  and  N18_99 
REMARK       I    between atoms: C38_38  and  N18_99 
REMARK       I    between atoms: C40_40  and  C42_42 
REMARK       I    between atoms: C42_42  and  N20_101 
REMARK       I    between atoms: C43_43  and  C44_44 
REMARK       I    between atoms: C43_43  and  N20_101 
REMARK       I    between atoms: C44_44  and  C45_45 
REMARK       I    between atoms: C45_45  and  O11_116 
REMARK       I    between atoms: C46_46  and  C47_47 
REMARK       I    between atoms: C46_46  and  N21_102 
REMARK       I    between atoms: C47_47  and  O9_114 
REMARK       I    between atoms: C48_48  and  C49_49 
REMARK       I    between atoms: C48_48  and  O9_114 
REMARK       I    between atoms: C49_49  and  O10_115 
REMARK       I    between atoms: C50_50  and  C51_51 
REMARK       I    between atoms: C50_50  and  O10_115 
REMARK       I    between atoms: C51_51  and  C52_52 
REMARK       I    between atoms: C52_52  and  N22_104 
REMARK       I    between atoms: C56_56  and  C57_57 
ROOT
HETATM    1  C1  UNL     1       9.055  -7.410   5.523  1.00  0.00     0.157 C 
HETATM    2  C2  UNL     1       7.515  -9.372   5.339  1.00  0.00     0.109 A 
HETATM    3  C3  UNL     1       6.274  -9.543   4.777  1.00  0.00     0.107 A 
HETATM    4  C4  UNL     1       6.792  -7.483   4.427  1.00  0.00     0.176 A 
HETATM    5  C5  UNL     1       6.700  -6.098   3.973  1.00  0.00     0.291 C 
HETATM    6  C6  UNL     1       5.113  -4.686   2.776  1.00  0.00     0.125 A 
HETATM    7  C7  UNL     1       3.926  -4.475   2.118  1.00  0.00     0.140 A 
HETATM    8  C8  UNL     1       5.140  -2.620   2.188  1.00  0.00     0.178 A 
HETATM    9  C9  UNL     1       5.616  -1.251   2.030  1.00  0.00     0.291 C 
HETATM   10  C10 UNL     1       7.604   0.032   2.639  1.00  0.00     0.125 A 
HETATM   11  C11 UNL     1       8.846   0.133   3.215  1.00  0.00     0.140 A 
HETATM   12  C12 UNL     1       8.171   2.090   2.424  1.00  0.00     0.178 A 
HETATM   13  C13 UNL     1       8.103   3.503   2.078  1.00  0.00     0.290 C 
HETATM   14  C14 UNL     1       6.526   5.081   1.060  1.00  0.00     0.053 A 
HETATM   15  C15 UNL     1       5.387   5.316   0.328  1.00  0.00     0.120 A 
HETATM   16  C16 UNL     1       6.464   7.289   0.514  1.00  0.00     0.104 A 
HETATM   17  C17 UNL     1       7.159   6.331   1.241  1.00  0.00     0.066 A 
HETATM   18  C18 UNL     1       6.844   8.678   0.351  1.00  0.00     0.268 C 
HETATM   19  C19 UNL     1       7.214  10.437  -1.331  1.00  0.00     0.123 C 
HETATM   20  C20 UNL     1       6.449  11.067  -2.493  1.00  0.00     0.027 C 
HETATM   21  C21 UNL     1       6.420  10.232  -3.773  1.00  0.00     0.085 C 
HETATM   22  C22 UNL     1       7.748  10.201  -4.481  1.00  0.00     0.115 C 
HETATM   23  C23 UNL     1       8.502   8.143  -3.821  1.00  0.00     0.051 A 
HETATM   24  C24 UNL     1       9.349   7.715  -2.837  1.00  0.00     0.120 A 
HETATM   25  C25 UNL     1       7.760   6.133  -3.099  1.00  0.00     0.105 A 
HETATM   26  C26 UNL     1       7.537   7.145  -4.030  1.00  0.00     0.066 A 
HETATM   27  C27 UNL     1       6.907   4.968  -2.916  1.00  0.00     0.273 C 
HETATM   28  C28 UNL     1       6.993   2.578  -2.385  1.00  0.00     0.053 A 
HETATM   29  C29 UNL     1       7.711   1.427  -2.157  1.00  0.00     0.120 A 
HETATM   30  C30 UNL     1       5.527   0.871  -2.018  1.00  0.00     0.105 A 
HETATM   31  C31 UNL     1       5.626   2.233  -2.279  1.00  0.00     0.066 A 
HETATM   32  C32 UNL     1       4.330   0.050  -1.893  1.00  0.00     0.273 C 
HETATM   33  C33 UNL     1       1.952   0.290  -1.288  1.00  0.00     0.053 A 
HETATM   34  C34 UNL     1       1.415  -0.857  -1.816  1.00  0.00     0.120 A 
HETATM   35  C35 UNL     1      -0.268   0.212  -0.750  1.00  0.00     0.105 A 
HETATM   36  C36 UNL     1       0.896   0.966  -0.630  1.00  0.00     0.066 A 
HETATM   37  C37 UNL     1      -1.611   0.483  -0.247  1.00  0.00     0.273 C 
HETATM   38  C38 UNL     1      -2.775   1.852   1.431  1.00  0.00     0.053 A 
HETATM   39  C39 UNL     1      -2.732   2.686   2.522  1.00  0.00     0.120 A 
HETATM   40  C40 UNL     1      -4.917   2.335   2.057  1.00  0.00     0.104 A 
HETATM   41  C41 UNL     1      -4.139   1.633   1.141  1.00  0.00     0.066 A 
HETATM   42  C42 UNL     1      -6.366   2.421   2.165  1.00  0.00     0.268 C 
HETATM   43  C43 UNL     1      -8.472   2.163   0.895  1.00  0.00     0.131 C 
HETATM   44  C44 UNL     1      -9.071   1.189  -0.109  1.00  0.00     0.103 C 
HETATM   45  C45 UNL     1      -8.670   1.443  -1.540  1.00  0.00     0.112 C 
HETATM   46  C46 UNL     1      -9.080   1.382  -3.906  1.00  0.00     0.147 C 
HETATM   47  C47 UNL     1      -7.942   0.488  -4.402  1.00  0.00     0.187 C 
HETATM   48  C48 UNL     1      -5.577   0.220  -4.261  1.00  0.00     0.193 C 
HETATM   49  C49 UNL     1      -5.071  -0.372  -2.944  1.00  0.00     0.193 C 
HETATM   50  C50 UNL     1      -5.603  -1.868  -1.196  1.00  0.00     0.169 C 
HETATM   51  C51 UNL     1      -6.771  -2.587  -0.535  1.00  0.00     0.046 C 
HETATM   52  C52 UNL     1      -7.378  -3.657  -1.445  1.00  0.00     0.130 C 
HETATM   53  C53 UNL     1      -8.350  -5.394   0.047  1.00  0.00     0.092 C 
HETATM   54  C54 UNL     1      -9.326  -6.038   0.696  1.00  0.00     0.029 C 
HETATM   55  C55 UNL     1     -10.708  -5.603   0.503  1.00  0.00    -0.020 C 
HETATM   56  C56 UNL     1     -11.761  -6.376   0.851  1.00  0.00     0.049 C 
HETATM   57  C57 UNL     1     -11.630  -7.691   1.362  1.00  0.00     0.077 A 
HETATM   58  C58 UNL     1     -11.157  -9.926   1.468  1.00  0.00     0.052 A 
HETATM   59  C59 UNL     1     -10.723 -11.207   1.070  1.00  0.00     0.031 A 
HETATM   60  C60 UNL     1     -10.733 -12.247   2.008  1.00  0.00     0.002 A 
HETATM   61  C61 UNL     1     -11.165 -12.024   3.312  1.00  0.00     0.002 A 
HETATM   62  C62 UNL     1     -11.597 -10.759   3.721  1.00  0.00     0.021 A 
HETATM   63  C63 UNL     1     -11.582  -9.720   2.778  1.00  0.00     0.034 A 
HETATM   64  C64 UNL     1     -10.884  -8.758  -0.716  1.00  0.00     0.157 C 
HETATM   65  C65 UNL     1     -10.925  -4.267  -0.163  1.00  0.00     0.001 A 
HETATM   66  C66 UNL     1     -12.160  -3.589  -0.131  1.00  0.00     0.014 A 
HETATM   67  C67 UNL     1     -12.334  -2.379  -0.801  1.00  0.00     0.001 A 
HETATM   68  C68 UNL     1     -11.278  -1.824  -1.505  1.00  0.00     0.002 A 
HETATM   69  C69 UNL     1     -10.035  -2.462  -1.524  1.00  0.00     0.030 A 
HETATM   70  C70 UNL     1      -9.816  -3.676  -0.846  1.00  0.00     0.045 A 
HETATM   71  C71 UNL     1      -4.373   3.809   4.027  1.00  0.00     0.156 C 
HETATM   72  C72 UNL     1      -0.809  -1.961  -1.914  1.00  0.00     0.156 C 
HETATM   73  C73 UNL     1       7.208  -0.964  -1.657  1.00  0.00     0.156 C 
HETATM   74  C74 UNL     1       9.513   5.800  -1.282  1.00  0.00     0.156 C 
HETATM   75  C75 UNL     1       4.260   7.269  -0.719  1.00  0.00     0.156 C 
HETATM   76  C76 UNL     1      10.421   2.047   3.548  1.00  0.00     0.157 C 
HETATM   77  C77 UNL     1       2.938  -2.470   0.991  1.00  0.00     0.157 C 
HETATM   78  N1  UNL     1       7.835  -8.062   5.112  1.00  0.00    -0.342 N 
HETATM   79  N2  UNL     1       5.830  -8.374   4.214  1.00  0.00    -0.346 N 
ATOM     80  H2  UNL     1       4.944  -8.220   3.732  1.00  0.00     0.167 HD
HETATM   81  N3  UNL     1       5.508  -5.875   3.319  1.00  0.00    -0.305 N 
HETATM   82  N4  UNL     1       3.957  -3.157   1.745  1.00  0.00    -0.339 N 
HETATM   83  N5  UNL     1       5.854  -3.545   2.815  1.00  0.00    -0.323 N 
ATOM     84  H5  UNL     1       6.773  -3.425   3.241  1.00  0.00     0.169 HD
HETATM   85  N6  UNL     1       6.872  -1.118   2.582  1.00  0.00    -0.305 N 
HETATM   86  N7  UNL     1       9.198   1.447   3.074  1.00  0.00    -0.339 N 
HETATM   87  N8  UNL     1       7.199   1.234   2.142  1.00  0.00    -0.323 N 
ATOM     88  H8  UNL     1       6.327   1.434   1.653  1.00  0.00     0.169 HD
HETATM   89  N9  UNL     1       6.900   3.825   1.483  1.00  0.00    -0.319 N 
HETATM   90  N10 UNL     1       5.349   6.651   0.006  1.00  0.00    -0.354 N 
HETATM   91  N11 UNL     1       6.648   9.165  -0.925  1.00  0.00    -0.356 N 
HETATM   92  N12 UNL     1       8.687   9.318  -4.536  1.00  0.00    -0.339 N 
ATOM     93  H12 UNL     1       9.533   9.477  -5.084  1.00  0.00     0.168 HD
HETATM   94  N13 UNL     1       8.888   6.501  -2.385  1.00  0.00    -0.354 N 
HETATM   95  N14 UNL     1       7.587   3.794  -2.659  1.00  0.00    -0.320 N 
HETATM   96  N15 UNL     1       6.823   0.402  -1.942  1.00  0.00    -0.354 N 
HETATM   97  N16 UNL     1       3.250   0.748  -1.382  1.00  0.00    -0.320 N 
HETATM   98  N17 UNL     1       0.080  -0.894  -1.507  1.00  0.00    -0.354 N 
HETATM   99  N18 UNL     1      -1.638   1.382   0.804  1.00  0.00    -0.320 N 
HETATM  100  N19 UNL     1      -4.023   2.961   2.906  1.00  0.00    -0.354 N 
HETATM  101  N20 UNL     1      -7.046   1.957   1.062  1.00  0.00    -0.355 N 
HETATM  102  N21 UNL     1      -9.434   1.103  -2.511  1.00  0.00    -0.372 N 
ATOM    103  H21 UNL     1     -10.312   0.625  -2.308  1.00  0.00     0.161 HD
HETATM  104  N22 UNL     1      -8.537  -4.311  -0.799  1.00  0.00    -0.356 N 
HETATM  105  N23 UNL     1     -11.232  -8.770   0.703  1.00  0.00    -0.344 N 
HETATM  106  O1  UNL     1       7.589  -5.275   4.168  1.00  0.00    -0.264 OA
HETATM  107  O2  UNL     1       4.964  -0.373   1.474  1.00  0.00    -0.264 OA
HETATM  108  O3  UNL     1       9.029   4.285   2.279  1.00  0.00    -0.264 OA
HETATM  109  O4  UNL     1       7.364   9.341   1.241  1.00  0.00    -0.266 OA
HETATM  110  O5  UNL     1       5.687   5.062  -3.031  1.00  0.00    -0.266 OA
HETATM  111  O6  UNL     1       4.315  -1.138  -2.203  1.00  0.00    -0.266 OA
HETATM  112  O7  UNL     1      -2.603  -0.071  -0.714  1.00  0.00    -0.266 OA
HETATM  113  O8  UNL     1      -6.947   2.880   3.144  1.00  0.00    -0.266 OA
HETATM  114  O9  UNL     1      -6.695   1.088  -4.018  1.00  0.00    -0.387 OA
HETATM  115  O10 UNL     1      -6.048  -1.276  -2.415  1.00  0.00    -0.389 OA
HETATM  116  O11 UNL     1      -7.448   1.981  -1.683  1.00  0.00    -0.350 OA
HETATM  117  O12 UNL     1       7.975  11.336  -5.169  1.00  0.00    -0.349 OA
HETATM  118  S1  UNL     1     -12.046  -8.075   2.979  1.00  0.00    -0.070 SA
HETATM  119  H77 UNL     1       4.889  -6.675   3.243  1.00  0.00     0.170 HD
HETATM  120  H78 UNL     1       7.256  -1.958   3.007  1.00  0.00     0.170 HD
HETATM  121  H79 UNL     1       6.279   3.041   1.297  1.00  0.00     0.169 HD
HETATM  122  H80 UNL     1       6.598   8.446  -1.636  1.00  0.00     0.162 HD
HETATM  123  H81 UNL     1       8.593   3.794  -2.726  1.00  0.00     0.169 HD
HETATM  124  H82 UNL     1       3.446   1.651  -0.973  1.00  0.00     0.169 HD
HETATM  125  H83 UNL     1      -0.760   1.698   1.190  1.00  0.00     0.169 HD
HETATM  126  H84 UNL     1      -6.520   1.902   0.197  1.00  0.00     0.162 HD
HETATM  127  H85 UNL     1      -7.149   1.939  -2.614  1.00  0.00     0.219 HD
HETATM  128  H86 UNL     1       8.846  11.242  -5.592  1.00  0.00     0.219 HD
ENDROOT
TORSDOF 35
