REMARK  0 active torsions:
REMARK  status: ('A' for Active; 'I' for Inactive)
REMARK       I    between atoms: C4_4  and  C5_5 
REMARK       I    between atoms: C5_5  and  N3_72 
REMARK       I    between atoms: C6_6  and  N3_72 
REMARK       I    between atoms: C8_8  and  C10_10 
REMARK       I    between atoms: C10_10  and  N5_74 
REMARK       I    between atoms: C11_11  and  N5_74 
REMARK       I    between atoms: C13_13  and  C15_15 
REMARK       I    between atoms: C15_15  and  N7_76 
REMARK       I    between atoms: C16_16  and  C17_17 
REMARK       I    between atoms: C16_16  and  N7_76 
REMARK       I    between atoms: C17_17  and  C18_18 
REMARK       I    between atoms: C18_18  and  C19_19 
REMARK       I    between atoms: C19_19  and  N8_77 
REMARK       I    between atoms: C20_20  and  N8_77 
REMARK       I    between atoms: C22_22  and  C23_23 
REMARK       I    between atoms: C23_23  and  N11_81 
REMARK       I    between atoms: C24_24  and  N11_81 
REMARK       I    between atoms: C26_26  and  C28_28 
REMARK       I    between atoms: C28_28  and  N13_83 
REMARK       I    between atoms: C29_29  and  N13_83 
REMARK       I    between atoms: C31_31  and  C33_33 
REMARK       I    between atoms: C33_33  and  N15_85 
REMARK       I    between atoms: C34_34  and  C35_35 
REMARK       I    between atoms: C34_34  and  N15_85 
REMARK       I    between atoms: C35_35  and  C36_36 
REMARK       I    between atoms: C36_36  and  N16_86 
REMARK       I    between atoms: C37_37  and  N16_86 
REMARK       I    between atoms: C39_39  and  C41_41 
REMARK       I    between atoms: C41_41  and  N18_88 
REMARK       I    between atoms: C42_42  and  N18_88 
REMARK       I    between atoms: C44_44  and  C46_46 
REMARK       I    between atoms: C46_46  and  N20_90 
REMARK       I    between atoms: C47_47  and  N20_90 
REMARK       I    between atoms: C49_49  and  C51_51 
REMARK       I    between atoms: C51_51  and  N22_92 
REMARK       I    between atoms: C52_52  and  C53_53 
REMARK       I    between atoms: C52_52  and  N22_92 
REMARK       I    between atoms: C53_53  and  N23_93 
REMARK       I    between atoms: C54_54  and  C55_55 
REMARK       I    between atoms: C54_54  and  N23_93 
REMARK       I    between atoms: C55_55  and  C56_56 
REMARK       I    between atoms: C56_56  and  N24_94 
REMARK       I    between atoms: C58_58  and  C59_59 
REMARK       I    between atoms: C58_58  and  N24_94 
REMARK       I    between atoms: C59_59  and  C60_60 
REMARK       I    between atoms: C60_60  and  N25_95 
ROOT
HETATM    1  C1  UNL     1       8.746   8.436  -0.024  1.00  0.00     0.157 C 
HETATM    2  C2  UNL     1       6.911  10.128  -0.172  1.00  0.00     0.109 A 
HETATM    3  C3  UNL     1       5.570  10.088   0.123  1.00  0.00     0.107 A 
HETATM    4  C4  UNL     1       6.329   8.130   0.599  1.00  0.00     0.176 A 
HETATM    5  C5  UNL     1       6.373   6.742   1.044  1.00  0.00     0.290 C 
HETATM    6  C6  UNL     1       4.814   5.006   1.816  1.00  0.00     0.053 A 
HETATM    7  C7  UNL     1       3.544   4.638   2.193  1.00  0.00     0.120 A 
HETATM    8  C8  UNL     1       4.857   2.827   2.463  1.00  0.00     0.105 A 
HETATM    9  C9  UNL     1       5.632   3.863   1.959  1.00  0.00     0.066 A 
HETATM   10  C10 UNL     1       5.305   1.483   2.789  1.00  0.00     0.273 C 
HETATM   11  C11 UNL     1       5.151  -0.177   4.591  1.00  0.00     0.053 A 
HETATM   12  C12 UNL     1       4.739  -0.524   5.854  1.00  0.00     0.120 A 
HETATM   13  C13 UNL     1       5.871  -2.303   5.027  1.00  0.00     0.104 A 
HETATM   14  C14 UNL     1       5.863  -1.286   4.076  1.00  0.00     0.066 A 
HETATM   15  C15 UNL     1       6.436  -3.643   4.967  1.00  0.00     0.268 C 
HETATM   16  C16 UNL     1       7.342  -5.344   3.425  1.00  0.00     0.123 C 
HETATM   17  C17 UNL     1       8.808  -5.632   3.115  1.00  0.00     0.029 C 
HETATM   18  C18 UNL     1       9.690  -5.667   4.365  1.00  0.00     0.105 C 
HETATM   19  C19 UNL     1      10.690  -4.528   4.365  1.00  0.00     0.223 C 
HETATM   20  C20 UNL     1      10.759  -2.115   4.694  1.00  0.00     0.125 A 
HETATM   21  C21 UNL     1      12.047  -1.794   4.353  1.00  0.00     0.140 A 
HETATM   22  C22 UNL     1      10.880   0.022   4.854  1.00  0.00     0.178 A 
HETATM   23  C23 UNL     1      10.467   1.408   5.040  1.00  0.00     0.290 C 
HETATM   24  C24 UNL     1       8.372   2.589   5.577  1.00  0.00     0.053 A 
HETATM   25  C25 UNL     1       8.645   3.871   5.174  1.00  0.00     0.120 A 
HETATM   26  C26 UNL     1       6.482   3.832   5.814  1.00  0.00     0.105 A 
HETATM   27  C27 UNL     1       7.039   2.582   6.036  1.00  0.00     0.066 A 
HETATM   28  C28 UNL     1       5.087   4.182   6.009  1.00  0.00     0.273 C 
HETATM   29  C29 UNL     1       3.691   6.074   6.695  1.00  0.00     0.053 A 
HETATM   30  C30 UNL     1       3.546   7.268   7.358  1.00  0.00     0.120 A 
HETATM   31  C31 UNL     1       1.507   6.718   6.550  1.00  0.00     0.104 A 
HETATM   32  C32 UNL     1       2.414   5.723   6.199  1.00  0.00     0.066 A 
HETATM   33  C33 UNL     1       0.091   6.827   6.240  1.00  0.00     0.268 C 
HETATM   34  C34 UNL     1      -1.617   6.255   4.564  1.00  0.00     0.132 C 
HETATM   35  C35 UNL     1      -2.066   5.063   3.727  1.00  0.00     0.123 C 
HETATM   36  C36 UNL     1      -1.146   4.799   2.548  1.00  0.00     0.223 C 
HETATM   37  C37 UNL     1      -1.038   3.349   0.563  1.00  0.00     0.052 A 
HETATM   38  C38 UNL     1       0.163   3.734   0.025  1.00  0.00     0.120 A 
HETATM   39  C39 UNL     1      -0.638   2.091  -1.306  1.00  0.00     0.105 A 
HETATM   40  C40 UNL     1      -1.546   2.325  -0.276  1.00  0.00     0.066 A 
HETATM   41  C41 UNL     1      -0.695   1.137  -2.414  1.00  0.00     0.273 C 
HETATM   42  C42 UNL     1      -2.303  -0.284  -3.629  1.00  0.00     0.053 A 
HETATM   43  C43 UNL     1      -1.481  -0.928  -4.517  1.00  0.00     0.120 A 
HETATM   44  C44 UNL     1      -3.578  -1.671  -4.928  1.00  0.00     0.105 A 
HETATM   45  C45 UNL     1      -3.618  -0.748  -3.886  1.00  0.00     0.066 A 
HETATM   46  C46 UNL     1      -4.661  -2.420  -5.565  1.00  0.00     0.273 C 
HETATM   47  C47 UNL     1      -7.000  -3.093  -5.168  1.00  0.00     0.053 A 
HETATM   48  C48 UNL     1      -7.314  -3.713  -6.352  1.00  0.00     0.120 A 
HETATM   49  C49 UNL     1      -9.138  -3.879  -5.035  1.00  0.00     0.104 A 
HETATM   50  C50 UNL     1      -8.152  -3.178  -4.352  1.00  0.00     0.066 A 
HETATM   51  C51 UNL     1     -10.458  -4.194  -4.527  1.00  0.00     0.268 C 
HETATM   52  C52 UNL     1     -12.235  -5.885  -4.439  1.00  0.00     0.225 C 
HETATM   53  C53 UNL     1     -12.636  -7.141  -5.210  1.00  0.00     0.235 C 
HETATM   54  C54 UNL     1     -14.494  -8.735  -5.603  1.00  0.00     0.124 C 
HETATM   55  C55 UNL     1     -15.293  -8.387  -6.860  1.00  0.00     0.050 C 
HETATM   56  C56 UNL     1     -14.395  -7.948  -8.025  1.00  0.00     0.273 C 
HETATM   57  C57 UNL     1     -16.035  -6.645  -9.279  1.00  0.00     0.309 C 
HETATM   58  C58 UNL     1     -14.249  -7.803 -10.460  1.00  0.00     0.273 C 
HETATM   59  C59 UNL     1     -13.210  -6.673 -10.530  1.00  0.00     0.060 C 
HETATM   60  C60 UNL     1     -12.362  -6.720 -11.804  1.00  0.00     0.268 C 
HETATM   61  C61 UNL     1      -9.315  -4.719  -7.419  1.00  0.00     0.156 C 
HETATM   62  C62 UNL     1      -1.710  -2.577  -6.366  1.00  0.00     0.156 C 
HETATM   63  C63 UNL     1       1.629   3.059  -1.867  1.00  0.00     0.156 C 
HETATM   64  C64 UNL     1       1.687   8.840   7.897  1.00  0.00     0.156 C 
HETATM   65  C65 UNL     1       7.355   5.945   4.730  1.00  0.00     0.156 C 
HETATM   66  C66 UNL     1      13.270   0.378   4.161  1.00  0.00     0.157 C 
HETATM   67  C67 UNL     1       4.933  -2.488   7.365  1.00  0.00     0.156 C 
HETATM   68  C68 UNL     1       2.392   2.552   2.914  1.00  0.00     0.156 C 
HETATM   69  N1  UNL     1       7.382   8.881   0.132  1.00  0.00    -0.342 N 
HETATM   70  N2  UNL     1       5.215   8.853   0.600  1.00  0.00    -0.346 N 
ATOM     71  H2  UNL     1       4.286   8.551   0.895  1.00  0.00     0.167 HD
HETATM   72  N3  UNL     1       5.120   6.279   1.388  1.00  0.00    -0.319 N 
HETATM   73  N4  UNL     1       3.569   3.315   2.558  1.00  0.00    -0.354 N 
HETATM   74  N5  UNL     1       4.873   1.054   4.029  1.00  0.00    -0.320 N 
HETATM   75  N6  UNL     1       5.179  -1.796   6.116  1.00  0.00    -0.354 N 
HETATM   76  N7  UNL     1       7.099  -3.963   3.798  1.00  0.00    -0.356 N 
HETATM   77  N8  UNL     1      10.124  -3.326   4.712  1.00  0.00    -0.312 N 
HETATM   78  N9  UNL     1      12.113  -0.432   4.453  1.00  0.00    -0.339 N 
HETATM   79  N10 UNL     1      10.049  -1.000   5.033  1.00  0.00    -0.323 N 
ATOM     80  H10 UNL     1       9.082  -0.959   5.356  1.00  0.00     0.169 HD
HETATM   81  N11 UNL     1       9.173   1.474   5.513  1.00  0.00    -0.319 N 
HETATM   82  N12 UNL     1       7.488   4.608   5.269  1.00  0.00    -0.354 N 
HETATM   83  N13 UNL     1       4.904   5.431   6.564  1.00  0.00    -0.320 N 
HETATM   84  N14 UNL     1       2.224   7.636   7.296  1.00  0.00    -0.354 N 
HETATM   85  N15 UNL     1      -0.322   6.044   5.182  1.00  0.00    -0.355 N 
HETATM   86  N16 UNL     1      -1.662   3.833   1.698  1.00  0.00    -0.326 N 
HETATM   87  N17 UNL     1       0.420   2.955  -1.075  1.00  0.00    -0.354 N 
HETATM   88  N18 UNL     1      -1.964   0.641  -2.658  1.00  0.00    -0.320 N 
HETATM   89  N19 UNL     1      -2.249  -1.746  -5.307  1.00  0.00    -0.354 N 
HETATM   90  N20 UNL     1      -5.815  -2.482  -4.804  1.00  0.00    -0.320 N 
HETATM   91  N21 UNL     1      -8.615  -4.151  -6.285  1.00  0.00    -0.354 N 
HETATM   92  N22 UNL     1     -10.978  -5.387  -4.956  1.00  0.00    -0.347 N 
HETATM   93  N23 UNL     1     -13.922  -7.568  -4.960  1.00  0.00    -0.360 N 
HETATM   94  N24 UNL     1     -15.143  -7.804  -9.286  1.00  0.00     0.084 N 
HETATM   95  N25 UNL     1     -11.463  -7.867 -11.863  1.00  0.00     0.078 N 
HETATM   96  O1  UNL     1       7.415   6.097   1.116  1.00  0.00    -0.264 OA
HETATM   97  O2  UNL     1       6.014   0.833   2.026  1.00  0.00    -0.266 OA
HETATM   98  O3  UNL     1       6.346  -4.454   5.885  1.00  0.00    -0.266 OA
HETATM   99  O4  UNL     1      11.862  -4.721   4.052  1.00  0.00    -0.273 OA
HETATM  100  O5  UNL     1      11.196   2.366   4.800  1.00  0.00    -0.264 OA
HETATM  101  O6  UNL     1       4.189   3.385   5.743  1.00  0.00    -0.266 OA
HETATM  102  O7  UNL     1      -0.678   7.577   6.834  1.00  0.00    -0.266 OA
HETATM  103  O8  UNL     1      -0.063   5.365   2.433  1.00  0.00    -0.273 OA
HETATM  104  O9  UNL     1       0.305   0.837  -3.060  1.00  0.00    -0.266 OA
HETATM  105  O10 UNL     1      -4.523  -2.950  -6.663  1.00  0.00    -0.266 OA
HETATM  106  O11 UNL     1     -11.057  -3.482  -3.726  1.00  0.00    -0.266 OA
HETATM  107  O12 UNL     1     -11.863  -7.720  -5.973  1.00  0.00    -0.272 OA
HETATM  108  H72 UNL     1       4.364   6.955   1.314  1.00  0.00     0.169 HD
HETATM  109  H73 UNL     1       4.429   1.744   4.634  1.00  0.00     0.169 HD
HETATM  110  H74 UNL     1       7.076  -3.287   3.046  1.00  0.00     0.162 HD
HETATM  111  H75 UNL     1       9.144  -3.281   4.959  1.00  0.00     0.170 HD
HETATM  112  H76 UNL     1       8.732   0.575   5.690  1.00  0.00     0.169 HD
HETATM  113  H77 UNL     1       5.710   5.899   6.955  1.00  0.00     0.169 HD
HETATM  114  H78 UNL     1       0.416   5.753   4.547  1.00  0.00     0.162 HD
HETATM  115  H79 UNL     1      -2.554   3.415   1.927  1.00  0.00     0.169 HD
HETATM  116  H80 UNL     1      -2.731   1.016  -2.123  1.00  0.00     0.169 HD
HETATM  117  H81 UNL     1      -5.797  -2.088  -3.876  1.00  0.00     0.169 HD
HETATM  118  H82 UNL     1     -10.364  -6.072  -5.380  1.00  0.00     0.163 HD
HETATM  119  H83 UNL     1     -14.519  -7.015  -4.356  1.00  0.00     0.162 HD
HETATM  120  H84 UNL     1     -10.915  -7.925 -11.005  1.00  0.00     0.312 HD
HETATM  121  H85 UNL     1     -11.995  -8.734 -11.916  1.00  0.00     0.312 HD
ENDROOT
TORSDOF 34
