REMARK  0 active torsions:
REMARK  status: ('A' for Active; 'I' for Inactive)
REMARK       I    between atoms: C3_3  and  C12_12 
REMARK       I    between atoms: C4_4  and  C6_6 
REMARK       I    between atoms: C5_5  and  N3_47 
REMARK       I    between atoms: C6_6  and  C7_7 
REMARK       I    between atoms: C6_6  and  N5_49 
REMARK       I    between atoms: C7_7  and  C8_8 
REMARK       I    between atoms: C8_8  and  N4_48 
REMARK       I    between atoms: C9_9  and  C10_10 
REMARK       I    between atoms: C9_9  and  N5_49 
REMARK       I    between atoms: C10_10  and  C11_11 
REMARK       I    between atoms: C10_10  and  N7_51 
REMARK       I    between atoms: C11_11  and  N6_50 
REMARK       I    between atoms: C12_12  and  N8_52 
REMARK       I    between atoms: C13_13  and  C14_14 
REMARK       I    between atoms: C13_13  and  C18_18 
REMARK       I    between atoms: C13_13  and  N8_52 
REMARK       I    between atoms: C14_14  and  C15_15 
REMARK       I    between atoms: C14_14  and  O4_67 
REMARK       I    between atoms: C18_18  and  N11_56 
REMARK       I    between atoms: C19_19  and  C21_21 
REMARK       I    between atoms: C19_19  and  N11_56 
REMARK       I    between atoms: C21_21  and  C22_22 
REMARK       I    between atoms: C21_21  and  O10_75 
REMARK       I    between atoms: C22_22  and  C24_24 
REMARK       I    between atoms: C24_24  and  N12_57 
REMARK       I    between atoms: C25_25  and  C26_26 
REMARK       I    between atoms: C25_25  and  C28_28 
REMARK       I    between atoms: C25_25  and  N12_57 
REMARK       I    between atoms: C26_26  and  O7_71 
REMARK       I    between atoms: C28_28  and  N13_58 
REMARK       I    between atoms: C29_29  and  C30_30 
REMARK       I    between atoms: C29_29  and  N13_58 
REMARK       I    between atoms: C30_30  and  C31_31 
REMARK       I    between atoms: C32_32  and  C34_34 
REMARK       I    between atoms: C35_35  and  C37_37 
REMARK       I    between atoms: C37_37  and  N16_63 
REMARK       I    between atoms: C38_38  and  C39_39 
REMARK       I    between atoms: C38_38  and  N16_63 
REMARK       I    between atoms: C39_39  and  C40_40 
REMARK       I    between atoms: C40_40  and  S3_79 
ROOT
HETATM    1  C1  UNL     1      -6.478  -1.354   1.629  1.00  0.00     0.054 C 
HETATM    2  C2  UNL     1      -5.166  -1.089   2.290  1.00  0.00     0.009 A 
HETATM    3  C3  UNL     1      -4.372  -0.003   1.968  1.00  0.00     0.111 A 
HETATM    4  C4  UNL     1      -2.721  -0.642   3.438  1.00  0.00     0.117 A 
HETATM    5  C5  UNL     1      -4.620  -1.913   3.261  1.00  0.00     0.087 A 
HETATM    6  C6  UNL     1      -1.298  -0.433   3.968  1.00  0.00     0.296 C 
HETATM    7  C7  UNL     1      -1.026   1.071   4.132  1.00  0.00     0.146 C 
HETATM    8  C8  UNL     1       0.075   1.396   5.107  1.00  0.00     0.217 C 
HETATM    9  C9  UNL     1      -0.114  -0.765   1.769  1.00  0.00     0.315 C 
HETATM   10  C10 UNL     1      -0.943  -1.637   0.796  1.00  0.00     0.336 C 
HETATM   11  C11 UNL     1      -0.365  -1.601  -0.636  1.00  0.00     0.250 C 
HETATM   12  C12 UNL     1      -4.734   1.031   0.928  1.00  0.00     0.269 C 
HETATM   13  C13 UNL     1      -3.773   3.191   0.021  1.00  0.00     0.211 C 
HETATM   14  C14 UNL     1      -3.567   4.629   0.666  1.00  0.00     0.201 C 
HETATM   15  C15 UNL     1      -2.580   4.602   1.829  1.00  0.00     0.057 A 
HETATM   16  C16 UNL     1      -1.236   4.313   1.956  1.00  0.00     0.116 A 
HETATM   17  C17 UNL     1      -1.892   4.821   3.926  1.00  0.00     0.180 A 
HETATM   18  C18 UNL     1      -2.528   2.753  -0.823  1.00  0.00     0.243 C 
HETATM   19  C19 UNL     1      -1.204   3.311  -2.903  1.00  0.00     0.110 C 
HETATM   20  C20 UNL     1      -0.065   4.160  -2.319  1.00  0.00     0.035 C 
HETATM   21  C21 UNL     1      -1.625   3.690  -4.384  1.00  0.00     0.153 C 
HETATM   22  C22 UNL     1      -0.391   3.767  -5.358  1.00  0.00     0.104 C 
HETATM   23  C23 UNL     1      -0.817   4.030  -6.817  1.00  0.00     0.022 C 
HETATM   24  C24 UNL     1       0.469   2.488  -5.390  1.00  0.00     0.224 C 
HETATM   25  C25 UNL     1       2.798   1.688  -5.909  1.00  0.00     0.205 C 
HETATM   26  C26 UNL     1       4.055   2.264  -6.673  1.00  0.00     0.146 C 
HETATM   27  C27 UNL     1       3.716   2.412  -8.170  1.00  0.00     0.042 C 
HETATM   28  C28 UNL     1       3.211   1.184  -4.501  1.00  0.00     0.243 C 
HETATM   29  C29 UNL     1       3.878   1.980  -2.248  1.00  0.00     0.129 C 
HETATM   30  C30 UNL     1       2.719   1.424  -1.422  1.00  0.00     0.084 C 
HETATM   31  C31 UNL     1       3.021   1.388   0.043  1.00  0.00     0.052 A 
HETATM   32  C32 UNL     1       3.411   0.559   2.060  1.00  0.00     0.073 A 
HETATM   33  C33 UNL     1       3.185   1.872   2.412  1.00  0.00     0.083 A 
HETATM   34  C34 UNL     1       3.631  -0.622   3.087  1.00  0.00     0.102 A 
HETATM   35  C35 UNL     1       3.782  -2.743   3.737  1.00  0.00     0.108 A 
HETATM   36  C36 UNL     1       3.732  -2.137   4.977  1.00  0.00     0.087 A 
HETATM   37  C37 UNL     1       3.780  -4.187   3.495  1.00  0.00     0.268 C 
HETATM   38  C38 UNL     1       3.449  -5.753   1.594  1.00  0.00     0.123 C 
HETATM   39  C39 UNL     1       1.963  -5.743   1.234  1.00  0.00     0.029 C 
HETATM   40  C40 UNL     1       1.521  -6.960   0.432  1.00  0.00     0.064 C 
HETATM   41  C41 UNL     1       0.039  -8.189   2.358  1.00  0.00     0.078 C 
HETATM   42  C42 UNL     1       0.769  -9.536   0.143  1.00  0.00     0.078 C 
HETATM   43  N1  UNL     1      -3.170   0.238   2.544  1.00  0.00    -0.339 N 
ATOM     44  H1  UNL     1      -2.626   1.066   2.301  1.00  0.00     0.167 HD
HETATM   45  N2  UNL     1      -3.420  -1.718   3.835  1.00  0.00    -0.335 N 
ATOM     46  H2  UNL     1      -3.057  -2.359   4.541  1.00  0.00     0.168 HD
HETATM   47  N3  UNL     1      -5.294  -3.045   3.733  1.00  0.00    -0.288 NA
HETATM   48  N4  UNL     1       0.700   2.586   4.857  1.00  0.00    -0.370 N 
HETATM   49  N5  UNL     1      -0.251  -1.161   3.196  1.00  0.00     0.098 N 
HETATM   50  N6  UNL     1      -0.338  -0.389  -1.251  1.00  0.00    -0.368 N 
HETATM   51  N7  UNL     1      -0.965  -3.063   1.277  1.00  0.00     0.093 N 
HETATM   52  N8  UNL     1      -3.964   2.158   1.048  1.00  0.00    -0.340 N 
HETATM   53  N9  UNL     1      -0.818   4.426   3.273  1.00  0.00    -0.360 N 
ATOM     54  H9  UNL     1       0.112   4.244   3.651  1.00  0.00     0.166 HD
HETATM   55  N10 UNL     1      -2.967   4.929   3.105  1.00  0.00    -0.352 N 
HETATM   56  N11 UNL     1      -2.375   3.402  -2.023  1.00  0.00    -0.352 N 
HETATM   57  N12 UNL     1       1.767   2.722  -5.786  1.00  0.00    -0.345 N 
HETATM   58  N13 UNL     1       3.487   2.211  -3.617  1.00  0.00    -0.359 N 
HETATM   59  N14 UNL     1       3.382   0.304   0.698  1.00  0.00    -0.351 N 
ATOM     60  H14 UNL     1       3.607  -0.592   0.266  1.00  0.00     0.166 HD
HETATM   61  N15 UNL     1       3.792  -1.858   2.663  1.00  0.00    -0.344 N 
ATOM     62  H15 UNL     1       3.908  -2.128   1.686  1.00  0.00     0.167 HD
HETATM   63  N16 UNL     1       3.835  -4.476   2.148  1.00  0.00    -0.356 N 
HETATM   64  O1  UNL     1       0.358   0.735   6.102  1.00  0.00    -0.274 OA
HETATM   65  O2  UNL     1       0.027  -2.624  -1.202  1.00  0.00    -0.271 OA
HETATM   66  O3  UNL     1      -5.603   0.835   0.091  1.00  0.00    -0.266 OA
HETATM   67  O4  UNL     1      -4.726   5.060   1.178  1.00  0.00    -0.387 OA
ATOM     68  H4  UNL     1      -4.603   5.919   1.564  1.00  0.00     0.210 HD
HETATM   69  O5  UNL     1      -1.734   1.883  -0.437  1.00  0.00    -0.271 OA
HETATM   70  O6  UNL     1       0.043   1.357  -5.161  1.00  0.00    -0.273 OA
HETATM   71  O7  UNL     1       4.377   3.480  -6.223  1.00  0.00    -0.393 OA
ATOM     72  H7  UNL     1       5.133   3.826  -6.682  1.00  0.00     0.210 HD
HETATM   73  O8  UNL     1       3.370  -0.005  -4.220  1.00  0.00    -0.271 OA
HETATM   74  O9  UNL     1       3.712  -5.025   4.388  1.00  0.00    -0.266 OA
HETATM   75  O10 UNL     1      -2.226   4.886  -4.367  1.00  0.00    -0.393 OA
ATOM     76  H10 UNL     1      -2.478   5.113  -5.254  1.00  0.00     0.210 HD
HETATM   77  S1  UNL     1       2.841   2.800   1.012  1.00  0.00    -0.086 SA
HETATM   78  S2  UNL     1       3.647  -0.433   4.794  1.00  0.00    -0.080 SA
HETATM   79  S3  UNL     1       1.548  -8.502   1.407  1.00  0.00    -0.228 SA
HETATM   80  H46 UNL     1      -6.199  -2.788   4.108  1.00  0.00     0.125 HD
HETATM   81  H47 UNL     1      -4.688  -3.446   4.446  1.00  0.00     0.125 HD
HETATM   82  H48 UNL     1       0.283   3.254   4.197  1.00  0.00     0.159 HD
HETATM   83  H49 UNL     1       1.333   2.951   5.549  1.00  0.00     0.159 HD
HETATM   84  H50 UNL     1      -0.546  -2.147   3.161  1.00  0.00     0.317 HD
HETATM   85  H51 UNL     1      -0.870   0.423  -0.918  1.00  0.00     0.159 HD
HETATM   86  H52 UNL     1      -0.059  -0.337  -2.225  1.00  0.00     0.159 HD
HETATM   87  H53 UNL     1       0.007  -3.376   1.203  1.00  0.00     0.314 HD
HETATM   88  H54 UNL     1      -1.432  -3.586   0.530  1.00  0.00     0.314 HD
HETATM   89  H55 UNL     1      -3.187   2.093   1.694  1.00  0.00     0.163 HD
HETATM   90  H56 UNL     1      -3.922   5.205   3.294  1.00  0.00     0.166 HD
HETATM   91  H57 UNL     1      -2.984   4.170  -2.294  1.00  0.00     0.163 HD
HETATM   92  H58 UNL     1       2.150   3.660  -5.826  1.00  0.00     0.163 HD
HETATM   93  H59 UNL     1       3.767   3.062  -4.116  1.00  0.00     0.162 HD
HETATM   94  H60 UNL     1       3.798  -3.652   1.545  1.00  0.00     0.162 HD
ENDROOT
TORSDOF 33
