REMARK  28 active torsions:
REMARK  status: ('A' for Active; 'I' for Inactive)
REMARK    1  A    between atoms: C2_2  and  C3_3 
REMARK    2  A    between atoms: C3_3  and  C4_4 
REMARK    3  A    between atoms: C4_4  and  C5_5 
REMARK    4  A    between atoms: C4_4  and  O17_75 
REMARK    5  A    between atoms: C5_5  and  C6_6 
REMARK    6  A    between atoms: C6_6  and  C7_7 
REMARK    7  A    between atoms: C7_7  and  C8_8 
REMARK    8  A    between atoms: C8_8  and  C9_9 
REMARK    9  A    between atoms: C9_9  and  C10_10 
REMARK   10  A    between atoms: C10_10  and  C11_11 
REMARK   11  A    between atoms: C11_11  and  C12_12 
REMARK   12  A    between atoms: C12_12  and  C13_13 
REMARK   13  A    between atoms: C13_13  and  C14_14 
REMARK   14  A    between atoms: C14_14  and  C15_15 
REMARK   15  A    between atoms: C15_15  and  C17_17 
REMARK   16  A    between atoms: C18_18  and  O16_74 
REMARK   17  A    between atoms: C20_20  and  C56_56 
REMARK   18  A    between atoms: C26_26  and  C54_54 
REMARK   19  A    between atoms: C28_28  and  C52_52 
REMARK   20  A    between atoms: C30_30  and  C49_49 
REMARK   21  A    between atoms: C34_34  and  C46_46 
REMARK   22  A    between atoms: C36_36  and  C43_43 
REMARK   23  A    between atoms: C43_43  and  C44_44 
REMARK       I    between atoms: C44_44  and  N11_86 
REMARK   24  A    between atoms: C46_46  and  O12_70 
REMARK   25  A    between atoms: C49_49  and  C50_50 
REMARK   26  A    between atoms: C50_50  and  C51_51 
REMARK       I    between atoms: C51_51  and  N12_87 
REMARK   27  A    between atoms: C52_52  and  O14_72 
REMARK   28  A    between atoms: C54_54  and  O15_73 
ROOT
HETATM    1  C17 UNL     1       0.733  -0.418  -0.886  1.00  0.00     0.126 C 
HETATM    2  C18 UNL     1       0.756  -1.758  -0.085  1.00  0.00     0.232 C 
HETATM    3  C19 UNL     1       0.211  -2.954  -0.893  1.00  0.00     0.249 C 
HETATM    4  C20 UNL     1      -0.629  -5.289  -0.582  1.00  0.00     0.180 C 
HETATM    5  C21 UNL     1      -1.830  -5.588   0.352  1.00  0.00     0.245 C 
HETATM    6  C22 UNL     1      -3.524  -7.370   0.733  1.00  0.00     0.099 C 
HETATM    7  C23 UNL     1      -4.228  -8.351   0.134  1.00  0.00     0.004 C 
HETATM    8  C24 UNL     1      -5.300  -9.208   0.739  1.00  0.00     0.038 C 
HETATM    9  C25 UNL     1      -3.751  -7.143   2.209  1.00  0.00     0.268 C 
HETATM   10  C26 UNL     1      -4.439  -5.520   3.952  1.00  0.00     0.205 C 
HETATM   11  C27 UNL     1      -5.144  -4.156   3.912  1.00  0.00     0.243 C 
HETATM   12  C28 UNL     1      -7.224  -3.030   3.126  1.00  0.00     0.205 C 
HETATM   13  C29 UNL     1      -6.891  -2.646   1.670  1.00  0.00     0.243 C 
HETATM   14  C30 UNL     1      -5.180  -1.621   0.208  1.00  0.00     0.177 C 
HETATM   15  C31 UNL     1      -5.601  -0.137   0.137  1.00  0.00     0.240 C 
HETATM   16  C32 UNL     1      -6.340   1.660  -1.384  1.00  0.00     0.225 C 
HETATM   17  C33 UNL     1      -5.166   2.432  -2.002  1.00  0.00     0.236 C 
HETATM   18  C34 UNL     1      -4.365   4.780  -2.470  1.00  0.00     0.205 C 
HETATM   19  C35 UNL     1      -3.204   5.014  -1.470  1.00  0.00     0.245 C 
HETATM   20  C36 UNL     1      -0.850   5.170  -0.788  1.00  0.00     0.187 C 
HETATM   21  C37 UNL     1      -0.019   4.104  -0.017  1.00  0.00     0.244 C 
HETATM   22  C38 UNL     1      -2.084   3.138   1.108  1.00  0.00     0.127 C 
HETATM   23  C39 UNL     1      -2.222   1.969   2.071  1.00  0.00     0.022 C 
HETATM   24  C40 UNL     1      -0.892   1.972   2.811  1.00  0.00     0.037 C 
HETATM   25  C41 UNL     1       0.119   2.375   1.735  1.00  0.00     0.179 C 
HETATM   26  C42 UNL     1       0.767   1.125   1.107  1.00  0.00     0.241 C 
HETATM   27  C45 UNL     1      -1.445   3.681  -2.712  1.00  0.00     0.153 C 
HETATM   28  O1  UNL     1      -0.027  -2.937  -2.099  1.00  0.00    -0.271 OA
HETATM   29  O2  UNL     1      -2.088  -4.867   1.314  1.00  0.00    -0.271 OA
HETATM   30  O3  UNL     1      -3.645  -8.058   3.023  1.00  0.00    -0.266 OA
HETATM   31  O4  UNL     1      -4.607  -3.087   4.191  1.00  0.00    -0.271 OA
HETATM   32  O5  UNL     1      -7.677  -2.816   0.739  1.00  0.00    -0.271 OA
HETATM   33  O6  UNL     1      -5.552   0.613   1.111  1.00  0.00    -0.271 OA
HETATM   34  O7  UNL     1      -4.233   1.886  -2.584  1.00  0.00    -0.272 OA
HETATM   35  O8  UNL     1      -3.509   5.539  -0.385  1.00  0.00    -0.271 OA
HETATM   36  O9  UNL     1       1.215   4.100  -0.081  1.00  0.00    -0.271 OA
HETATM   37  O10 UNL     1       1.600   0.443   1.706  1.00  0.00    -0.271 OA
HETATM   38  N1  UNL     1       0.023  -4.071  -0.107  1.00  0.00    -0.345 N 
HETATM   39  N2  UNL     1      -2.580  -6.686  -0.014  1.00  0.00    -0.321 N 
HETATM   40  N3  UNL     1      -4.120  -5.879   2.568  1.00  0.00    -0.340 N 
HETATM   41  N4  UNL     1      -6.437  -4.227   3.435  1.00  0.00    -0.344 N 
HETATM   42  N5  UNL     1      -5.613  -2.162   1.492  1.00  0.00    -0.346 N 
HETATM   43  N6  UNL     1      -6.000   0.280  -1.113  1.00  0.00    -0.351 N 
HETATM   44  N7  UNL     1      -5.298   3.794  -1.899  1.00  0.00    -0.344 N 
HETATM   45  N8  UNL     1      -1.896   4.585  -1.668  1.00  0.00    -0.341 N 
HETATM   46  N9  UNL     1      -0.663   3.180   0.783  1.00  0.00    -0.337 N 
HETATM   47  N10 UNL     1       0.226   0.716  -0.090  1.00  0.00    -0.351 N 
HETATM   48  H89 UNL     1      -0.112  -3.848   0.883  1.00  0.00     0.163 HD
HETATM   49  H90 UNL     1      -2.431  -7.036  -0.953  1.00  0.00     0.169 HD
HETATM   50  H91 UNL     1      -3.793  -5.133   1.954  1.00  0.00     0.163 HD
HETATM   51  H92 UNL     1      -6.740  -5.088   2.989  1.00  0.00     0.163 HD
HETATM   52  H93 UNL     1      -5.114  -1.855   2.327  1.00  0.00     0.163 HD
HETATM   53  H94 UNL     1      -5.783  -0.313  -1.917  1.00  0.00     0.163 HD
HETATM   54  H95 UNL     1      -5.965   4.165  -1.234  1.00  0.00     0.163 HD
HETATM   55  H96 UNL     1      -0.411   1.371  -0.531  1.00  0.00     0.163 HD
ENDROOT
BRANCH   1  56
HETATM   56  C15 UNL     1       2.113  -0.068  -1.542  1.00  0.00     0.007 C 
HETATM   57  C16 UNL     1       2.671  -1.222  -2.385  1.00  0.00     0.012 C 
BRANCH  56  58
HETATM   58  C14 UNL     1       1.989   1.215  -2.406  1.00  0.00     0.006 C 
BRANCH  58  59
HETATM   59  C13 UNL     1       3.281   1.737  -3.047  1.00  0.00     0.000 C 
BRANCH  59  60
HETATM   60  C12 UNL     1       4.359   2.101  -2.024  1.00  0.00     0.000 C 
BRANCH  60  61
HETATM   61  C11 UNL     1       5.572   2.741  -2.703  1.00  0.00     0.000 C 
BRANCH  61  62
HETATM   62  C10 UNL     1       6.629   3.249  -1.716  1.00  0.00     0.000 C 
BRANCH  62  63
HETATM   63  C9  UNL     1       7.320   2.127  -0.935  1.00  0.00     0.000 C 
BRANCH  63  64
HETATM   64  C8  UNL     1       8.379   2.635   0.050  1.00  0.00     0.000 C 
BRANCH  64  65
HETATM   65  C7  UNL     1       9.621   3.210  -0.635  1.00  0.00     0.000 C 
BRANCH  65  66
HETATM   66  C6  UNL     1      10.675   3.730   0.352  1.00  0.00     0.002 C 
BRANCH  66  67
HETATM   67  C5  UNL     1      11.308   2.623   1.204  1.00  0.00     0.032 C 
BRANCH  67  68
HETATM   68  C4  UNL     1      12.510   3.082   2.046  1.00  0.00     0.118 C 
BRANCH  68  69
HETATM   69  C3  UNL     1      12.147   4.164   3.071  1.00  0.00     0.031 C 
BRANCH  69  70
HETATM   70  C2  UNL     1      13.308   4.579   3.983  1.00  0.00    -0.002 C 
HETATM   71  C1  UNL     1      13.784   3.468   4.906  1.00  0.00     0.005 C 
ENDBRANCH  69  70
ENDBRANCH  68  69
BRANCH  68  72
HETATM   72  O17 UNL     1      13.539   3.576   1.192  1.00  0.00    -0.396 OA
HETATM   73  H88 UNL     1      13.769   2.865   0.569  1.00  0.00     0.210 HD
ENDBRANCH  68  72
ENDBRANCH  67  68
ENDBRANCH  66  67
ENDBRANCH  65  66
ENDBRANCH  64  65
ENDBRANCH  63  64
ENDBRANCH  62  63
ENDBRANCH  61  62
ENDBRANCH  60  61
ENDBRANCH  59  60
ENDBRANCH  58  59
ENDBRANCH  56  58
ENDBRANCH   1  56
BRANCH   2  74
HETATM   74  O16 UNL     1      -0.057  -1.711   1.104  1.00  0.00    -0.384 OA
HETATM   75  H87 UNL     1       0.456  -1.154   1.726  1.00  0.00     0.210 HD
ENDBRANCH   2  74
BRANCH   4  76
HETATM   76  C56 UNL     1       0.364  -6.471  -0.658  1.00  0.00     0.009 C 
HETATM   77  C57 UNL     1       1.437  -6.225  -1.724  1.00  0.00     0.012 C 
HETATM   78  C58 UNL     1       1.028  -6.778   0.689  1.00  0.00     0.012 C 
ENDBRANCH   4  76
BRANCH  20  79
HETATM   79  C43 UNL     1       0.114   6.094  -1.559  1.00  0.00     0.137 C 
BRANCH  79  80
HETATM   80  C44 UNL     1      -0.522   7.370  -2.056  1.00  0.00     0.217 C 
HETATM   81  O11 UNL     1      -1.719   7.617  -2.057  1.00  0.00    -0.274 OA
HETATM   82  N11 UNL     1       0.368   8.265  -2.582  1.00  0.00    -0.370 N 
HETATM   83  H97 UNL     1      -0.006   9.167  -2.853  1.00  0.00     0.159 HD
HETATM   84  H98 UNL     1       1.360   8.205  -2.398  1.00  0.00     0.159 HD
ENDBRANCH  79  80
ENDBRANCH  20  79
BRANCH  18  85
HETATM   85  C46 UNL     1      -4.142   4.662  -3.992  1.00  0.00     0.148 C 
HETATM   86  C47 UNL     1      -3.443   5.898  -4.560  1.00  0.00     0.042 C 
BRANCH  85  87
HETATM   87  O12 UNL     1      -5.443   4.588  -4.623  1.00  0.00    -0.389 OA
HETATM   88  C48 UNL     1      -5.444   3.782  -5.795  1.00  0.00     0.202 C 
ENDBRANCH  85  87
ENDBRANCH  18  85
BRANCH  10  89
HETATM   89  C54 UNL     1      -3.253  -5.537   4.944  1.00  0.00     0.146 C 
HETATM   90  C55 UNL     1      -1.937  -4.992   4.411  1.00  0.00     0.042 C 
BRANCH  89  91
HETATM   91  O15 UNL     1      -3.018  -6.872   5.422  1.00  0.00    -0.393 OA
HETATM   92  H86 UNL     1      -3.073  -7.474   4.646  1.00  0.00     0.210 HD
ENDBRANCH  89  91
ENDBRANCH  10  89
BRANCH  12  93
HETATM   93  C52 UNL     1      -8.725  -3.328   3.323  1.00  0.00     0.146 C 
HETATM   94  C53 UNL     1      -9.615  -2.104   3.143  1.00  0.00     0.042 C 
BRANCH  93  95
HETATM   95  O14 UNL     1      -9.165  -4.377   2.450  1.00  0.00    -0.393 OA
HETATM   96  H85 UNL     1      -9.054  -4.041   1.534  1.00  0.00     0.210 HD
ENDBRANCH  93  95
ENDBRANCH  12  93
BRANCH  14  97
HETATM   97  C49 UNL     1      -3.660  -1.775   0.079  1.00  0.00     0.044 C 
BRANCH  97  98
HETATM   98  C50 UNL     1      -3.058  -1.179  -1.186  1.00  0.00     0.105 C 
BRANCH  98  99
HETATM   99  C51 UNL     1      -3.585  -1.844  -2.433  1.00  0.00     0.215 C 
HETATM  100  O13 UNL     1      -4.696  -1.596  -2.893  1.00  0.00    -0.274 OA
HETATM  101  N12 UNL     1      -2.779  -2.796  -2.979  1.00  0.00    -0.370 N 
HETATM  102  H99 UNL     1      -1.776  -2.804  -2.790  1.00  0.00     0.159 HD
HETATM  103  HA0 UNL     1      -3.067  -3.161  -3.878  1.00  0.00     0.159 HD
ENDBRANCH  98  99
ENDBRANCH  97  98
ENDBRANCH  14  97
TORSDOF 28
