REMARK  19 active torsions:
REMARK  status: ('A' for Active; 'I' for Inactive)
REMARK    1  A    between atoms: C2_2  and  C3_3 
REMARK    2  A    between atoms: C2_2  and  O12_69 
REMARK    3  A    between atoms: C11_11  and  O11_68 
REMARK    4  A    between atoms: C12_12  and  O10_67 
REMARK    5  A    between atoms: C15_15  and  O9_66 
REMARK    6  A    between atoms: C24_24  and  N2_53 
REMARK    7  A    between atoms: C27_27  and  C28_28 
REMARK       I    between atoms: C27_27  and  N2_53 
REMARK    8  A    between atoms: C31_31  and  N3_54 
REMARK    9  A    between atoms: C34_34  and  C35_35 
REMARK       I    between atoms: C34_34  and  N3_54 
REMARK   10  A    between atoms: C35_35  and  N4_55 
REMARK   11  A    between atoms: C37_37  and  C38_38 
REMARK       I    between atoms: C37_37  and  N4_55 
REMARK   12  A    between atoms: C38_38  and  C39_39 
REMARK   13  A    between atoms: C38_38  and  N5_56 
REMARK   14  A    between atoms: C42_42  and  C43_43 
REMARK       I    between atoms: C42_42  and  N5_56 
REMARK   15  A    between atoms: C43_43  and  C44_44 
REMARK   16  A    between atoms: C44_44  and  C45_45 
REMARK   17  A    between atoms: C45_45  and  C46_46 
REMARK   18  A    between atoms: C46_46  and  C47_47 
REMARK   19  A    between atoms: C47_47  and  N6_57 
ROOT
HETATM    1  C27 UNL     1       1.275   0.902  -0.869  1.00  0.00     0.256 C 
HETATM    2  N2  UNL     1       2.436   0.173  -0.679  1.00  0.00    -0.323 N 
HETATM    3  O3  UNL     1       1.182   2.118  -0.981  1.00  0.00    -0.267 OA
HETATM    4  H43 UNL     1       2.328  -0.812  -0.472  1.00  0.00     0.169 HD
ENDROOT
BRANCH   2   5
HETATM    5  C24 UNL     1       3.757   0.665  -0.643  1.00  0.00     0.035 A 
HETATM    6  C23 UNL     1       4.773  -0.256  -0.360  1.00  0.00     0.046 A 
HETATM    7  C21 UNL     1       6.118   0.148  -0.311  1.00  0.00     0.031 A 
HETATM    8  C20 UNL     1       6.451   1.472  -0.541  1.00  0.00     0.029 A 
HETATM    9  C22 UNL     1       7.165  -0.840   0.004  1.00  0.00     0.197 C 
HETATM   10  C19 UNL     1       7.855   1.905  -0.470  1.00  0.00     0.196 C 
HETATM   11  C26 UNL     1       5.443   2.400  -0.823  1.00  0.00     0.018 A 
HETATM   12  C17 UNL     1       8.940   0.890  -0.351  1.00  0.00     0.054 A 
HETATM   13  O1  UNL     1       8.104   3.108  -0.494  1.00  0.00    -0.287 OA
HETATM   14  C16 UNL     1       8.597  -0.445  -0.101  1.00  0.00     0.064 A 
HETATM   15  C18 UNL     1      10.306   1.290  -0.451  1.00  0.00     0.034 A 
HETATM   16  C15 UNL     1       9.623  -1.384   0.039  1.00  0.00     0.081 A 
HETATM   17  C14 UNL     1      10.962  -1.002  -0.067  1.00  0.00     0.049 A 
HETATM   18  C13 UNL     1      11.332   0.332  -0.316  1.00  0.00     0.005 A 
HETATM   19  C12 UNL     1      12.809   0.710  -0.495  1.00  0.00     0.132 C 
HETATM   20  C3  UNL     1      13.055   2.263  -0.725  1.00  0.00     0.086 C 
HETATM   21  C11 UNL     1      13.807   0.162   0.618  1.00  0.00     0.236 C 
HETATM   22  C4  UNL     1      11.874   3.127  -0.243  1.00  0.00     0.150 C 
HETATM   23  C5  UNL     1      11.773   3.245   1.223  1.00  0.00    -0.081 C 
HETATM   24  N1  UNL     1      10.640   2.614  -0.804  1.00  0.00    -0.276 NA
HETATM   25  C6  UNL     1      11.729   3.184   2.422  1.00  0.00    -0.076 C 
HETATM   26  C7  UNL     1      11.824   2.784   3.787  1.00  0.00     0.073 C 
HETATM   27  C8  UNL     1      12.450   1.635   4.100  1.00  0.00     0.073 C 
HETATM   28  C9  UNL     1      13.025   0.847   3.061  1.00  0.00    -0.075 C 
HETATM   29  C10 UNL     1      13.407   0.440   1.998  1.00  0.00    -0.067 C 
HETATM   30  H42 UNL     1       9.844   3.246  -0.633  1.00  0.00     0.129 HD
HETATM   31  C25 UNL     1       4.104   1.996  -0.878  1.00  0.00     0.030 A 
HETATM   32  O2  UNL     1       6.804  -1.960   0.345  1.00  0.00    -0.286 OA
BRANCH  16  33
HETATM   33  O9  UNL     1       9.348  -2.704   0.259  1.00  0.00    -0.360 OA
HETATM   34  H47 UNL     1      10.167  -3.210   0.379  1.00  0.00     0.217 HD
ENDBRANCH  16  33
BRANCH  19  35
HETATM   35  O10 UNL     1      13.194  -0.022  -1.705  1.00  0.00    -0.381 OA
HETATM   36  H48 UNL     1      13.457  -0.912  -1.383  1.00  0.00     0.211 HD
ENDBRANCH  19  35
BRANCH  20  37
HETATM   37  C2  UNL     1      13.432   2.597  -2.196  1.00  0.00     0.124 C 
HETATM   38  C1  UNL     1      13.741   4.068  -2.464  1.00  0.00     0.040 C 
BRANCH  37  39
HETATM   39  O12 UNL     1      14.633   1.891  -2.539  1.00  0.00    -0.395 OA
HETATM   40  H50 UNL     1      14.350   0.953  -2.602  1.00  0.00     0.210 HD
ENDBRANCH  37  39
ENDBRANCH  20  37
BRANCH  21  41
HETATM   41  O11 UNL     1      13.987  -1.259   0.454  1.00  0.00    -0.380 OA
HETATM   42  H49 UNL     1      14.590  -1.534   1.169  1.00  0.00     0.211 HD
ENDBRANCH  21  41
ENDBRANCH   2   5
BRANCH   1  43
HETATM   43  C28 UNL     1       0.027   0.090  -0.902  1.00  0.00     0.032 A 
HETATM   44  C29 UNL     1      -0.019  -1.167  -1.513  1.00  0.00     0.019 A 
HETATM   45  C30 UNL     1      -1.215  -1.894  -1.525  1.00  0.00     0.030 A 
HETATM   46  C31 UNL     1      -2.377  -1.378  -0.934  1.00  0.00     0.034 A 
HETATM   47  C32 UNL     1      -2.327  -0.114  -0.343  1.00  0.00     0.030 A 
HETATM   48  C33 UNL     1      -1.134   0.620  -0.332  1.00  0.00     0.019 A 
BRANCH  46  49
HETATM   49  N3  UNL     1      -3.537  -2.178  -0.993  1.00  0.00    -0.325 N 
HETATM   50  C34 UNL     1      -4.781  -1.906  -0.441  1.00  0.00     0.244 C 
HETATM   51  O4  UNL     1      -5.077  -0.914   0.222  1.00  0.00    -0.271 OA
HETATM   52  H44 UNL     1      -3.436  -3.067  -1.467  1.00  0.00     0.169 HD
BRANCH  50  53
HETATM   53  C35 UNL     1      -5.826  -2.996  -0.765  1.00  0.00     0.172 C 
HETATM   54  C36 UNL     1      -6.240  -2.913  -2.231  1.00  0.00     0.042 C 
BRANCH  53  55
HETATM   55  N4  UNL     1      -6.980  -2.842   0.107  1.00  0.00    -0.346 N 
HETATM   56  C37 UNL     1      -7.836  -3.881   0.389  1.00  0.00     0.241 C 
HETATM   57  O5  UNL     1      -7.676  -5.013  -0.064  1.00  0.00    -0.271 OA
HETATM   58  H45 UNL     1      -7.272  -1.888   0.333  1.00  0.00     0.163 HD
BRANCH  56  59
HETATM   59  C38 UNL     1      -9.079  -3.466   1.207  1.00  0.00     0.180 C 
BRANCH  59  60
HETATM   60  C39 UNL     1      -9.637  -4.633   2.049  1.00  0.00     0.009 C 
HETATM   61  C40 UNL     1      -8.621  -5.085   3.106  1.00  0.00     0.012 C 
HETATM   62  C41 UNL     1     -10.942  -4.240   2.752  1.00  0.00     0.012 C 
ENDBRANCH  59  60
BRANCH  59  63
HETATM   63  N5  UNL     1     -10.059  -3.016   0.215  1.00  0.00    -0.347 N 
HETATM   64  C42 UNL     1     -10.017  -1.730  -0.281  1.00  0.00     0.218 C 
HETATM   65  O6  UNL     1      -9.227  -0.888   0.129  1.00  0.00    -0.274 OA
HETATM   66  H46 UNL     1     -10.471  -3.731  -0.373  1.00  0.00     0.163 HD
BRANCH  64  67
HETATM   67  C43 UNL     1     -11.015  -1.493  -1.399  1.00  0.00     0.103 C 
BRANCH  67  68
HETATM   68  C44 UNL     1     -11.179  -0.022  -1.785  1.00  0.00     0.009 C 
BRANCH  68  69
HETATM   69  C45 UNL     1     -12.254   0.724  -0.984  1.00  0.00     0.002 C 
BRANCH  69  70
HETATM   70  C46 UNL     1     -11.918   0.910   0.498  1.00  0.00     0.020 C 
BRANCH  70  71
HETATM   71  C47 UNL     1     -13.011   1.657   1.271  1.00  0.00     0.135 C 
BRANCH  71  72
HETATM   72  N6  UNL     1     -13.151   3.040   0.864  1.00  0.00    -0.281 N 
HETATM   73  C48 UNL     1     -14.080   3.505  -0.008  1.00  0.00     0.250 A 
HETATM   74  C49 UNL     1     -13.860   4.949  -0.143  1.00  0.00     0.080 A 
HETATM   75  O7  UNL     1     -14.951   2.896  -0.600  1.00  0.00    -0.268 OA
HETATM   76  C50 UNL     1     -12.832   5.278   0.640  1.00  0.00     0.080 A 
HETATM   77  C51 UNL     1     -12.365   4.055   1.302  1.00  0.00     0.250 A 
HETATM   78  O8  UNL     1     -11.442   4.027   2.094  1.00  0.00    -0.268 OA
ENDBRANCH  71  72
ENDBRANCH  70  71
ENDBRANCH  69  70
ENDBRANCH  68  69
ENDBRANCH  67  68
ENDBRANCH  64  67
ENDBRANCH  59  63
ENDBRANCH  56  59
ENDBRANCH  53  55
ENDBRANCH  50  53
ENDBRANCH  46  49
ENDBRANCH   1  43
TORSDOF 19
