REMARK  0 active torsions:
REMARK  status: ('A' for Active; 'I' for Inactive)
REMARK       I    between atoms: C2_2  and  C3_3 
REMARK       I    between atoms: C2_2  and  N1_93 
REMARK       I    between atoms: C5_5  and  C6_6 
REMARK       I    between atoms: C5_5  and  N1_93 
REMARK       I    between atoms: C6_6  and  C7_7 
REMARK       I    between atoms: C6_6  and  N2_94 
REMARK       I    between atoms: C7_7  and  C8_8 
REMARK       I    between atoms: C8_8  and  O4_71 
REMARK       I    between atoms: C9_9  and  C10_10 
REMARK       I    between atoms: C9_9  and  N2_94 
REMARK       I    between atoms: C10_10  and  N3_95 
REMARK       I    between atoms: C12_12  and  C13_13 
REMARK       I    between atoms: C12_12  and  N3_95 
REMARK       I    between atoms: C13_13  and  C14_14 
REMARK       I    between atoms: C13_13  and  N7_100 
REMARK       I    between atoms: C14_14  and  C15_15 
REMARK       I    between atoms: C15_15  and  C16_16 
REMARK       I    between atoms: C16_16  and  N4_96 
REMARK       I    between atoms: C17_17  and  N4_96 
REMARK       I    between atoms: C17_17  and  N5_97 
REMARK       I    between atoms: C17_17  and  N6_99 
REMARK       I    between atoms: C18_18  and  C19_19 
REMARK       I    between atoms: C18_18  and  N7_100 
REMARK       I    between atoms: C19_19  and  N8_101 
REMARK       I    between atoms: C21_21  and  C22_22 
REMARK       I    between atoms: C21_21  and  N8_101 
REMARK       I    between atoms: C22_22  and  C23_23 
REMARK       I    between atoms: C22_22  and  N9_102 
REMARK       I    between atoms: C23_23  and  C24_24 
REMARK       I    between atoms: C24_24  and  O10_77 
REMARK       I    between atoms: C25_25  and  C26_26 
REMARK       I    between atoms: C25_25  and  N9_102 
REMARK       I    between atoms: C26_26  and  N10_103 
REMARK       I    between atoms: C28_28  and  C29_29 
REMARK       I    between atoms: C28_28  and  N10_103 
REMARK       I    between atoms: C29_29  and  C30_30 
REMARK       I    between atoms: C29_29  and  N14_108 
REMARK       I    between atoms: C30_30  and  C31_31 
REMARK       I    between atoms: C31_31  and  C32_32 
REMARK       I    between atoms: C32_32  and  N11_104 
REMARK       I    between atoms: C33_33  and  N11_104 
REMARK       I    between atoms: C33_33  and  N12_105 
REMARK       I    between atoms: C33_33  and  N13_107 
REMARK       I    between atoms: C34_34  and  C35_35 
REMARK       I    between atoms: C34_34  and  N14_108 
REMARK       I    between atoms: C35_35  and  N15_109 
REMARK       I    between atoms: C37_37  and  C38_38 
REMARK       I    between atoms: C37_37  and  N15_109 
REMARK       I    between atoms: C38_38  and  C39_39 
REMARK       I    between atoms: C38_38  and  N16_110 
REMARK       I    between atoms: C39_39  and  C40_40 
REMARK       I    between atoms: C40_40  and  O16_83 
REMARK       I    between atoms: C41_41  and  C42_42 
REMARK       I    between atoms: C41_41  and  N16_110 
REMARK       I    between atoms: C42_42  and  N17_111 
REMARK       I    between atoms: C44_44  and  C45_45 
REMARK       I    between atoms: C44_44  and  N17_111 
REMARK       I    between atoms: C45_45  and  C46_46 
REMARK       I    between atoms: C45_45  and  N21_116 
REMARK       I    between atoms: C46_46  and  C47_47 
REMARK       I    between atoms: C47_47  and  C48_48 
REMARK       I    between atoms: C48_48  and  N18_112 
REMARK       I    between atoms: C49_49  and  N18_112 
REMARK       I    between atoms: C49_49  and  N19_113 
REMARK       I    between atoms: C49_49  and  N20_115 
REMARK       I    between atoms: C50_50  and  C51_51 
REMARK       I    between atoms: C50_50  and  N21_116 
REMARK       I    between atoms: C51_51  and  N22_117 
REMARK       I    between atoms: C53_53  and  C54_54 
REMARK       I    between atoms: C53_53  and  N22_117 
REMARK       I    between atoms: C54_54  and  C55_55 
REMARK       I    between atoms: C54_54  and  N23_118 
REMARK       I    between atoms: C55_55  and  C56_56 
REMARK       I    between atoms: C56_56  and  O22_89 
REMARK       I    between atoms: C57_57  and  C58_58 
REMARK       I    between atoms: C57_57  and  N23_118 
REMARK       I    between atoms: C58_58  and  N24_119 
REMARK       I    between atoms: C60_60  and  C61_61 
REMARK       I    between atoms: C60_60  and  N24_119 
REMARK       I    between atoms: C61_61  and  C62_62 
REMARK       I    between atoms: C61_61  and  N28_124 
REMARK       I    between atoms: C62_62  and  C63_63 
REMARK       I    between atoms: C63_63  and  C64_64 
REMARK       I    between atoms: C64_64  and  N25_120 
REMARK       I    between atoms: C65_65  and  N25_120 
REMARK       I    between atoms: C65_65  and  N26_121 
REMARK       I    between atoms: C65_65  and  N27_123 
REMARK       I    between atoms: C66_66  and  N28_124 
ROOT
HETATM    1  C1  UNL     1      21.399   6.356  -1.121  1.00  0.00     0.040 C 
HETATM    2  C2  UNL     1      20.588   5.171  -0.621  1.00  0.00     0.149 C 
HETATM    3  C3  UNL     1      21.453   3.897  -0.669  1.00  0.00     0.145 C 
HETATM    4  C4  UNL     1      22.210   3.553   0.587  1.00  0.00     0.093 C 
HETATM    5  C5  UNL     1      18.350   4.227  -0.945  1.00  0.00     0.241 C 
HETATM    6  C6  UNL     1      17.169   3.921  -1.908  1.00  0.00     0.186 C 
HETATM    7  C7  UNL     1      17.578   3.498  -3.320  1.00  0.00     0.144 C 
HETATM    8  C8  UNL     1      18.746   2.559  -3.288  1.00  0.00     0.141 C 
HETATM    9  C9  UNL     1      15.168   2.441  -1.683  1.00  0.00     0.240 C 
HETATM   10  C10 UNL     1      14.511   1.290  -0.886  1.00  0.00     0.172 C 
HETATM   11  C11 UNL     1      15.531   0.274  -0.373  1.00  0.00     0.042 C 
HETATM   12  C12 UNL     1      12.657  -0.285  -1.468  1.00  0.00     0.241 C 
HETATM   13  C13 UNL     1      11.869  -0.885  -2.657  1.00  0.00     0.176 C 
HETATM   14  C14 UNL     1      12.822  -1.520  -3.684  1.00  0.00     0.036 C 
HETATM   15  C15 UNL     1      13.582  -2.742  -3.143  1.00  0.00     0.017 C 
HETATM   16  C16 UNL     1      14.836  -3.044  -3.966  1.00  0.00     0.095 C 
HETATM   17  C17 UNL     1      17.063  -2.107  -4.309  1.00  0.00     0.122 C 
HETATM   18  C18 UNL     1       9.823  -2.293  -2.814  1.00  0.00     0.240 C 
HETATM   19  C19 UNL     1       8.840  -3.138  -1.975  1.00  0.00     0.172 C 
HETATM   20  C20 UNL     1       9.264  -4.600  -2.026  1.00  0.00     0.042 C 
HETATM   21  C21 UNL     1       7.934  -1.691  -0.176  1.00  0.00     0.241 C 
HETATM   22  C22 UNL     1       8.149  -1.187   1.265  1.00  0.00     0.186 C 
HETATM   23  C23 UNL     1       9.237  -0.117   1.295  1.00  0.00     0.144 C 
HETATM   24  C24 UNL     1       9.069   0.905   0.206  1.00  0.00     0.141 C 
HETATM   25  C25 UNL     1       5.965  -1.534   2.350  1.00  0.00     0.240 C 
HETATM   26  C26 UNL     1       4.580  -0.917   2.629  1.00  0.00     0.172 C 
HETATM   27  C27 UNL     1       4.685   0.207   3.654  1.00  0.00     0.042 C 
HETATM   28  C28 UNL     1       2.337  -1.888   3.045  1.00  0.00     0.241 C 
HETATM   29  C29 UNL     1       1.582  -3.140   3.528  1.00  0.00     0.176 C 
HETATM   30  C30 UNL     1       1.847  -3.462   5.009  1.00  0.00     0.036 C 
HETATM   31  C31 UNL     1       1.709  -2.304   6.009  1.00  0.00     0.022 C 
HETATM   32  C32 UNL     1       0.374  -1.571   5.941  1.00  0.00     0.122 C 
HETATM   33  C33 UNL     1      -0.859   0.127   7.154  1.00  0.00     0.143 C 
HETATM   34  C34 UNL     1      -0.658  -4.079   3.006  1.00  0.00     0.240 C 
HETATM   35  C35 UNL     1      -2.099  -3.723   2.589  1.00  0.00     0.172 C 
HETATM   36  C36 UNL     1      -2.111  -3.423   1.093  1.00  0.00     0.042 C 
HETATM   37  C37 UNL     1      -3.127  -2.774   4.615  1.00  0.00     0.241 C 
HETATM   38  C38 UNL     1      -4.100  -1.673   5.086  1.00  0.00     0.186 C 
HETATM   39  C39 UNL     1      -4.252  -1.711   6.603  1.00  0.00     0.144 C 
HETATM   40  C40 UNL     1      -4.854  -0.432   7.107  1.00  0.00     0.141 C 
HETATM   41  C41 UNL     1      -5.636  -1.552   3.126  1.00  0.00     0.240 C 
HETATM   42  C42 UNL     1      -7.035  -1.924   2.600  1.00  0.00     0.172 C 
HETATM   43  C43 UNL     1      -8.117  -1.163   3.361  1.00  0.00     0.042 C 
HETATM   44  C44 UNL     1      -7.996  -2.274   0.338  1.00  0.00     0.241 C 
HETATM   45  C45 UNL     1      -8.052  -1.672  -1.086  1.00  0.00     0.176 C 
HETATM   46  C46 UNL     1      -8.822  -2.593  -2.043  1.00  0.00     0.036 C 
HETATM   47  C47 UNL     1      -9.070  -2.022  -3.445  1.00  0.00     0.022 C 
HETATM   48  C48 UNL     1      -7.807  -1.526  -4.148  1.00  0.00     0.122 C 
HETATM   49  C49 UNL     1      -8.732  -0.114  -5.936  1.00  0.00     0.143 C 
HETATM   50  C50 UNL     1      -7.975   0.767  -0.634  1.00  0.00     0.240 C 
HETATM   51  C51 UNL     1      -8.769   2.090  -0.602  1.00  0.00     0.172 C 
HETATM   52  C52 UNL     1      -8.522   2.855  -1.893  1.00  0.00     0.042 C 
HETATM   53  C53 UNL     1     -10.773   1.706   0.807  1.00  0.00     0.241 C 
HETATM   54  C54 UNL     1     -12.168   1.037   0.818  1.00  0.00     0.186 C 
HETATM   55  C55 UNL     1     -13.034   1.602   1.944  1.00  0.00     0.144 C 
HETATM   56  C56 UNL     1     -13.203   3.095   1.904  1.00  0.00     0.141 C 
HETATM   57  C57 UNL     1     -12.630   0.129  -1.462  1.00  0.00     0.240 C 
HETATM   58  C58 UNL     1     -13.487   0.293  -2.731  1.00  0.00     0.172 C 
HETATM   59  C59 UNL     1     -12.747   1.209  -3.701  1.00  0.00     0.042 C 
HETATM   60  C60 UNL     1     -15.860   0.816  -3.255  1.00  0.00     0.241 C 
HETATM   61  C61 UNL     1     -17.233   1.223  -2.662  1.00  0.00     0.176 C 
HETATM   62  C62 UNL     1     -17.912   0.023  -1.976  1.00  0.00     0.036 C 
HETATM   63  C63 UNL     1     -19.197  -0.432  -2.682  1.00  0.00     0.022 C 
HETATM   64  C64 UNL     1     -20.306   0.619  -2.774  1.00  0.00     0.122 C 
HETATM   65  C65 UNL     1     -20.594   2.266  -0.944  1.00  0.00     0.143 C 
HETATM   66  C66 UNL     1     -16.671   2.499  -0.571  1.00  0.00     0.214 C 
HETATM   67  C67 UNL     1     -17.066   3.714   0.223  1.00  0.00     0.117 C 
HETATM   68  O1  UNL     1      21.552   3.201  -1.685  1.00  0.00    -0.296 OA
HETATM   69  O2  UNL     1      18.331   3.847   0.229  1.00  0.00    -0.271 OA
HETATM   70  O3  UNL     1      18.729   1.394  -2.930  1.00  0.00    -0.650 OA
HETATM   71  O4  UNL     1      19.883   3.208  -3.613  1.00  0.00    -0.776 OA
HETATM   72  O5  UNL     1      14.630   2.927  -2.680  1.00  0.00    -0.271 OA
HETATM   73  O6  UNL     1      12.485  -0.660  -0.307  1.00  0.00    -0.271 OA
HETATM   74  O7  UNL     1       9.723  -2.177  -4.032  1.00  0.00    -0.271 OA
HETATM   75  O8  UNL     1       7.090  -1.195  -0.919  1.00  0.00    -0.271 OA
HETATM   76  O9  UNL     1       9.826   1.087  -0.732  1.00  0.00    -0.650 OA
HETATM   77  O10 UNL     1       7.956   1.651   0.352  1.00  0.00    -0.776 OA
HETATM   78  O11 UNL     1       6.232  -2.703   2.629  1.00  0.00    -0.271 OA
HETATM   79  O12 UNL     1       1.759  -0.875   2.656  1.00  0.00    -0.271 OA
HETATM   80  O13 UNL     1      -0.229  -5.231   2.969  1.00  0.00    -0.271 OA
HETATM   81  O14 UNL     1      -2.907  -3.792   5.268  1.00  0.00    -0.271 OA
HETATM   82  O15 UNL     1      -4.260   0.554   7.514  1.00  0.00    -0.650 OA
HETATM   83  O16 UNL     1      -6.203  -0.450   7.075  1.00  0.00    -0.776 OA
HETATM   84  O17 UNL     1      -4.784  -0.981   2.446  1.00  0.00    -0.271 OA
HETATM   85  O18 UNL     1      -8.683  -3.223   0.707  1.00  0.00    -0.271 OA
HETATM   86  O19 UNL     1      -6.760   0.728  -0.438  1.00  0.00    -0.271 OA
HETATM   87  O20 UNL     1     -10.180   1.988   1.845  1.00  0.00    -0.271 OA
HETATM   88  O21 UNL     1     -13.443   3.807   2.866  1.00  0.00    -0.650 OA
HETATM   89  O22 UNL     1     -13.160   3.634   0.671  1.00  0.00    -0.776 OA
HETATM   90  O23 UNL     1     -11.676  -0.644  -1.387  1.00  0.00    -0.271 OA
HETATM   91  O24 UNL     1     -15.766   0.373  -4.400  1.00  0.00    -0.271 OA
HETATM   92  O25 UNL     1     -15.881   1.665  -0.133  1.00  0.00    -0.274 OA
HETATM   93  N1  UNL     1      19.392   4.981  -1.442  1.00  0.00    -0.348 N 
HETATM   94  N2  UNL     1      16.375   2.895  -1.223  1.00  0.00    -0.346 N 
HETATM   95  N3  UNL     1      13.586   0.659  -1.823  1.00  0.00    -0.346 N 
HETATM   96  N4  UNL     1      15.898  -2.104  -3.617  1.00  0.00    -0.270 NA
HETATM   97  N5  UNL     1      17.248  -2.699  -5.430  1.00  0.00    -0.381 N 
ATOM     98  H5  UNL     1      16.536  -3.215  -5.947  1.00  0.00     0.158 HD
HETATM   99  N6  UNL     1      18.031  -1.427  -3.664  1.00  0.00    -0.279 NA
HETATM  100  N7  UNL     1      10.908  -1.830  -2.104  1.00  0.00    -0.346 N 
HETATM  101  N8  UNL     1       8.816  -2.668  -0.584  1.00  0.00    -0.346 N 
HETATM  102  N9  UNL     1       6.879  -0.677   1.777  1.00  0.00    -0.346 N 
HETATM  103  N10 UNL     1       3.707  -1.984   3.106  1.00  0.00    -0.346 N 
HETATM  104  N11 UNL     1       0.206  -0.704   7.100  1.00  0.00    -0.367 N 
HETATM  105  N12 UNL     1      -1.761   0.222   6.249  1.00  0.00    -0.376 N 
ATOM    106  H12 UNL     1      -1.785  -0.302   5.374  1.00  0.00     0.158 HD
HETATM  107  N13 UNL     1      -0.887   0.833   8.300  1.00  0.00    -0.274 NA
HETATM  108  N14 UNL     1       0.161  -2.998   3.243  1.00  0.00    -0.346 N 
HETATM  109  N15 UNL     1      -2.635  -2.583   3.333  1.00  0.00    -0.346 N 
HETATM  110  N16 UNL     1      -5.392  -1.932   4.429  1.00  0.00    -0.346 N 
HETATM  111  N17 UNL     1      -7.112  -1.634   1.178  1.00  0.00    -0.346 N 
HETATM  112  N18 UNL     1      -8.078  -1.232  -5.547  1.00  0.00    -0.367 N 
HETATM  113  N19 UNL     1      -9.076   0.856  -5.173  1.00  0.00    -0.376 N 
ATOM    114  H19 UNL     1      -8.889   0.914  -4.172  1.00  0.00     0.158 HD
HETATM  115  N20 UNL     1      -8.973  -0.130  -7.262  1.00  0.00    -0.274 NA
HETATM  116  N21 UNL     1      -8.683  -0.358  -1.004  1.00  0.00    -0.346 N 
HETATM  117  N22 UNL     1     -10.197   1.841  -0.437  1.00  0.00    -0.346 N 
HETATM  118  N23 UNL     1     -12.865   1.055  -0.470  1.00  0.00    -0.346 N 
HETATM  119  N24 UNL     1     -14.799   0.833  -2.386  1.00  0.00    -0.346 N 
HETATM  120  N25 UNL     1     -20.762   1.033  -1.463  1.00  0.00    -0.367 N 
HETATM  121  N26 UNL     1     -19.940   3.225  -1.493  1.00  0.00    -0.376 N 
ATOM    122  H26 UNL     1     -19.440   3.174  -2.381  1.00  0.00     0.158 HD
HETATM  123  N27 UNL     1     -21.209   2.390   0.247  1.00  0.00    -0.274 NA
HETATM  124  N28 UNL     1     -17.255   2.420  -1.811  1.00  0.00    -0.348 N 
HETATM  125  H79 UNL     1      20.632   2.686  -3.226  1.00  0.00     0.167 HD
HETATM  126  H80 UNL     1       7.953   2.227  -0.444  1.00  0.00     0.167 HD
HETATM  127  H81 UNL     1      -6.467   0.438   7.396  1.00  0.00     0.167 HD
HETATM  128  H82 UNL     1     -13.274   4.594   0.844  1.00  0.00     0.167 HD
HETATM  129  H83 UNL     1      19.567   4.923  -2.442  1.00  0.00     0.163 HD
HETATM  130  H84 UNL     1      16.690   2.645  -0.288  1.00  0.00     0.163 HD
HETATM  131  H85 UNL     1      13.502   1.108  -2.733  1.00  0.00     0.163 HD
HETATM  132  H86 UNL     1      16.065  -2.061  -2.619  1.00  0.00     0.130 HD
HETATM  133  H87 UNL     1      18.216  -2.576  -5.726  1.00  0.00     0.158 HD
HETATM  134  H88 UNL     1      18.855  -1.229  -4.217  1.00  0.00     0.126 HD
HETATM  135  H89 UNL     1      17.721  -0.559  -3.233  1.00  0.00     0.126 HD
HETATM  136  H90 UNL     1      10.800  -1.774  -1.098  1.00  0.00     0.163 HD
HETATM  137  H91 UNL     1       9.456  -3.086   0.081  1.00  0.00     0.163 HD
HETATM  138  H92 UNL     1       6.501   0.121   1.270  1.00  0.00     0.163 HD
HETATM  139  H93 UNL     1       4.146  -2.889   3.255  1.00  0.00     0.163 HD
HETATM  140  H94 UNL     1       1.061  -0.242   7.387  1.00  0.00     0.162 HD
HETATM  141  H95 UNL     1      -2.456   0.915   6.554  1.00  0.00     0.158 HD
HETATM  142  H96 UNL     1      -1.800   1.225   8.505  1.00  0.00     0.127 HD
HETATM  143  H97 UNL     1      -0.551   0.289   9.086  1.00  0.00     0.127 HD
HETATM  144  H98 UNL     1      -0.226  -2.063   3.136  1.00  0.00     0.163 HD
HETATM  145  H99 UNL     1      -3.123  -1.862   2.796  1.00  0.00     0.163 HD
HETATM  146  HA0 UNL     1      -5.982  -2.651   4.831  1.00  0.00     0.163 HD
HETATM  147  HA1 UNL     1      -6.608  -0.813   0.831  1.00  0.00     0.163 HD
HETATM  148  HA2 UNL     1      -8.340  -2.052  -6.080  1.00  0.00     0.162 HD
HETATM  149  HA3 UNL     1      -9.566   1.562  -5.723  1.00  0.00     0.158 HD
HETATM  150  HA4 UNL     1      -8.210  -0.545  -7.785  1.00  0.00     0.127 HD
HETATM  151  HA5 UNL     1      -9.223   0.768  -7.655  1.00  0.00     0.127 HD
HETATM  152  HA6 UNL     1      -9.698  -0.344  -0.940  1.00  0.00     0.163 HD
HETATM  153  HA7 UNL     1     -10.678   1.424  -1.223  1.00  0.00     0.163 HD
HETATM  154  HA8 UNL     1     -13.438   1.871  -0.679  1.00  0.00     0.163 HD
HETATM  155  HA9 UNL     1     -15.049   0.897  -1.396  1.00  0.00     0.163 HD
HETATM  156  HB0 UNL     1     -20.938   0.284  -0.806  1.00  0.00     0.162 HD
HETATM  157  HB1 UNL     1     -20.005   4.049  -0.889  1.00  0.00     0.158 HD
HETATM  158  HB2 UNL     1     -22.078   1.871   0.302  1.00  0.00     0.127 HD
HETATM  159  HB3 UNL     1     -21.343   3.338   0.573  1.00  0.00     0.127 HD
HETATM  160  HB4 UNL     1     -18.146   2.926  -1.878  1.00  0.00     0.163 HD
ENDROOT
TORSDOF 60
