REMARK  12 active torsions:
REMARK  status: ('A' for Active; 'I' for Inactive)
REMARK    1  A    between atoms: C3_3  and  N2_50 
REMARK    2  A    between atoms: C6_6  and  C8_8 
REMARK       I    between atoms: C8_8  and  N1_49 
REMARK    3  A    between atoms: C9_9  and  N1_49 
REMARK    4  A    between atoms: C13_13  and  O5_42 
REMARK    5  A    between atoms: C16_16  and  S1_53 
REMARK       I    between atoms: C19_19  and  N2_50 
REMARK       I    between atoms: C19_19  and  N3_51 
REMARK    6  A    between atoms: C20_20  and  N3_51 
REMARK    7  A    between atoms: C23_23  and  C26_26 
REMARK       I    between atoms: C26_26  and  N4_52 
REMARK    8  A    between atoms: C27_27  and  N4_52 
REMARK    9  A    between atoms: C31_31  and  O11_48 
REMARK   10  A    between atoms: C34_34  and  S2_54 
REMARK   11  A    between atoms: O4_41  and  S1_53 
REMARK   12  A    between atoms: O10_47  and  S2_54 
ROOT
HETATM    1  C19 UNL     1       0.078  -0.313   1.678  1.00  0.00     0.325 C 
HETATM    2  O6  UNL     1       0.204  -1.297   0.964  1.00  0.00    -0.247 OA
HETATM    3  N2  UNL     1      -1.122   0.297   2.012  1.00  0.00    -0.308 N 
HETATM    4  N3  UNL     1       1.126   0.361   2.294  1.00  0.00    -0.308 N 
HETATM    5  H28 UNL     1      -1.023   1.249   2.329  1.00  0.00     0.170 HD
HETATM    6  H29 UNL     1       0.888   0.640   3.236  1.00  0.00     0.170 HD
ENDROOT
BRANCH   3   7
HETATM    7  C3  UNL     1      -2.429  -0.152   1.718  1.00  0.00     0.042 A 
HETATM    8  C2  UNL     1      -3.516   0.731   1.905  1.00  0.00    -0.034 A 
HETATM    9  C1  UNL     1      -3.330   2.141   2.402  1.00  0.00     0.050 C 
HETATM   10  C7  UNL     1      -4.824   0.289   1.626  1.00  0.00     0.026 A 
HETATM   11  C6  UNL     1      -5.056  -1.013   1.168  1.00  0.00     0.033 A 
HETATM   12  C5  UNL     1      -3.986  -1.891   1.016  1.00  0.00     0.019 A 
HETATM   13  C4  UNL     1      -2.683  -1.461   1.285  1.00  0.00     0.031 A 
BRANCH  11  14
HETATM   14  C8  UNL     1      -6.432  -1.499   0.873  1.00  0.00     0.256 C 
HETATM   15  O1  UNL     1      -6.722  -2.645   1.187  1.00  0.00    -0.267 OA
HETATM   16  N1  UNL     1      -7.232  -0.581   0.213  1.00  0.00    -0.322 N 
HETATM   17  H27 UNL     1      -6.756   0.242  -0.120  1.00  0.00     0.169 HD
BRANCH  16  18
HETATM   18  C9  UNL     1      -8.606  -0.709  -0.131  1.00  0.00     0.046 A 
HETATM   19  C10 UNL     1      -9.221   0.261  -0.994  1.00  0.00     0.003 A 
HETATM   20  C11 UNL     1      -8.508   1.341  -1.586  1.00  0.00     0.017 A 
HETATM   21  C15 UNL     1     -10.614   0.148  -1.295  1.00  0.00     0.002 A 
HETATM   22  C12 UNL     1      -9.115   2.285  -2.416  1.00  0.00     0.037 A 
HETATM   23  C13 UNL     1     -10.462   2.174  -2.679  1.00  0.00     0.066 A 
HETATM   24  C14 UNL     1     -11.201   1.132  -2.134  1.00  0.00     0.050 A 
HETATM   25  C16 UNL     1     -11.338  -0.938  -0.736  1.00  0.00     0.083 A 
HETATM   26  C17 UNL     1     -10.721  -1.871   0.101  1.00  0.00     0.028 A 
HETATM   27  C18 UNL     1      -9.370  -1.752   0.399  1.00  0.00     0.032 A 
BRANCH  23  28
HETATM   28  O5  UNL     1     -11.110   3.066  -3.478  1.00  0.00    -0.361 OA
HETATM   29  H24 UNL     1     -10.481   3.742  -3.778  1.00  0.00     0.217 HD
ENDBRANCH  23  28
BRANCH  25  30
HETATM   30  S1  UNL     1     -13.069  -1.196  -1.073  1.00  0.00     0.130 S 
HETATM   31  O2  UNL     1     -13.427  -2.536  -0.655  1.00  0.00    -0.598 OA
HETATM   32  O3  UNL     1     -13.797  -0.042  -0.598  1.00  0.00    -0.598 OA
BRANCH  30  33
HETATM   33  O4  UNL     1     -13.178  -1.242  -2.682  1.00  0.00    -0.292 OA
HETATM   34  H23 UNL     1     -13.553  -2.115  -2.925  1.00  0.00     0.232 HD
ENDBRANCH  30  33
ENDBRANCH  25  30
ENDBRANCH  16  18
ENDBRANCH  11  14
ENDBRANCH   3   7
BRANCH   4  35
HETATM   35  C20 UNL     1       2.500   0.113   2.068  1.00  0.00     0.042 A 
HETATM   36  C21 UNL     1       3.080  -0.116   0.805  1.00  0.00    -0.034 A 
HETATM   37  C22 UNL     1       4.463  -0.389   0.729  1.00  0.00     0.026 A 
HETATM   38  C37 UNL     1       2.323  -0.074  -0.495  1.00  0.00     0.050 C 
HETATM   39  C23 UNL     1       5.272  -0.362   1.872  1.00  0.00     0.033 A 
HETATM   40  C24 UNL     1       4.696  -0.087   3.111  1.00  0.00     0.019 A 
HETATM   41  C25 UNL     1       3.325   0.159   3.205  1.00  0.00     0.031 A 
BRANCH  39  42
HETATM   42  C26 UNL     1       6.739  -0.630   1.811  1.00  0.00     0.256 C 
HETATM   43  O7  UNL     1       7.260  -1.191   2.767  1.00  0.00    -0.267 OA
HETATM   44  N4  UNL     1       7.370  -0.158   0.673  1.00  0.00    -0.322 N 
HETATM   45  H30 UNL     1       6.802   0.418   0.074  1.00  0.00     0.169 HD
BRANCH  44  46
HETATM   46  C27 UNL     1       8.736  -0.302   0.300  1.00  0.00     0.046 A 
HETATM   47  C28 UNL     1       9.233   0.374  -0.866  1.00  0.00     0.003 A 
HETATM   48  C29 UNL     1       8.427   1.216  -1.682  1.00  0.00     0.017 A 
HETATM   49  C33 UNL     1      10.603   0.211  -1.243  1.00  0.00     0.002 A 
HETATM   50  C30 UNL     1       8.922   1.874  -2.808  1.00  0.00     0.037 A 
HETATM   51  C31 UNL     1      10.245   1.715  -3.153  1.00  0.00     0.066 A 
HETATM   52  C32 UNL     1      11.076   0.902  -2.393  1.00  0.00     0.050 A 
HETATM   53  C34 UNL     1      11.424  -0.630  -0.444  1.00  0.00     0.083 A 
HETATM   54  C35 UNL     1      10.924  -1.275   0.689  1.00  0.00     0.028 A 
HETATM   55  C36 UNL     1       9.593  -1.112   1.051  1.00  0.00     0.032 A 
BRANCH  51  56
HETATM   56  O11 UNL     1      10.702   2.379  -4.252  1.00  0.00    -0.361 OA
HETATM   57  H26 UNL     1      11.656   2.218  -4.343  1.00  0.00     0.217 HD
ENDBRANCH  51  56
BRANCH  53  58
HETATM   58  S2  UNL     1      13.134  -0.935  -0.845  1.00  0.00     0.130 S 
HETATM   59  O8  UNL     1      13.610  -2.044  -0.045  1.00  0.00    -0.598 OA
HETATM   60  O9  UNL     1      13.826   0.334  -0.867  1.00  0.00    -0.598 OA
BRANCH  58  61
HETATM   61  O10 UNL     1      13.101  -1.517  -2.350  1.00  0.00    -0.292 OA
HETATM   62  H25 UNL     1      13.445  -2.435  -2.314  1.00  0.00     0.232 HD
ENDBRANCH  58  61
ENDBRANCH  53  58
ENDBRANCH  44  46
ENDBRANCH  39  42
ENDBRANCH   4  35
TORSDOF 12
