REMARK  0 active torsions:
REMARK  status: ('A' for Active; 'I' for Inactive)
REMARK       I    between atoms: C2_2  and  C3_3 
REMARK       I    between atoms: C3_3  and  C5_5 
REMARK       I    between atoms: C5_5  and  C6_6 
REMARK       I    between atoms: C5_5  and  N3_78 
REMARK       I    between atoms: C6_6  and  C7_7 
REMARK       I    between atoms: C6_6  and  O5_67 
REMARK       I    between atoms: C7_7  and  C8_8 
REMARK       I    between atoms: C8_8  and  N1_76 
REMARK       I    between atoms: C12_12  and  C13_13 
REMARK       I    between atoms: C13_13  and  C14_14 
REMARK       I    between atoms: C13_13  and  O4_66 
REMARK       I    between atoms: C14_14  and  C16_16 
REMARK       I    between atoms: C16_16  and  N2_77 
REMARK       I    between atoms: C17_17  and  C19_19 
REMARK       I    between atoms: C17_17  and  N2_77 
REMARK       I    between atoms: C19_19  and  C20_20 
REMARK       I    between atoms: C19_19  and  O3_65 
REMARK       I    between atoms: C29_29  and  C30_30 
REMARK       I    between atoms: C29_29  and  N3_78 
REMARK       I    between atoms: C30_30  and  C31_31 
REMARK       I    between atoms: C30_30  and  N4_79 
REMARK       I    between atoms: C34_34  and  C35_35 
REMARK       I    between atoms: C34_34  and  N4_79 
REMARK       I    between atoms: C35_35  and  C36_36 
REMARK       I    between atoms: C35_35  and  N5_80 
REMARK       I    between atoms: C40_40  and  O9_71 
REMARK       I    between atoms: C40_40  and  N5_80 
REMARK       I    between atoms: C41_41  and  C42_42 
REMARK       I    between atoms: C41_41  and  O9_71 
REMARK       I    between atoms: C45_45  and  N6_81 
REMARK       I    between atoms: C48_48  and  C49_49 
REMARK       I    between atoms: C48_48  and  N6_81 
REMARK       I    between atoms: C49_49  and  C50_50 
REMARK       I    between atoms: C49_49  and  N7_82 
REMARK       I    between atoms: C50_50  and  C51_51 
REMARK       I    between atoms: C51_51  and  S1_85 
REMARK       I    between atoms: C53_53  and  C54_54 
REMARK       I    between atoms: C53_53  and  N7_82 
REMARK       I    between atoms: C54_54  and  N8_83 
REMARK       I    between atoms: C56_56  and  C57_57 
REMARK       I    between atoms: C56_56  and  N8_83 
REMARK       I    between atoms: C57_57  and  C58_58 
REMARK       I    between atoms: C57_57  and  N9_84 
REMARK       I    between atoms: C58_58  and  C59_59 
ROOT
HETATM    1  C1  UNL     1      -2.613  -3.034  -0.961  1.00  0.00     0.005 C 
HETATM    2  C2  UNL     1      -4.077  -3.300  -0.641  1.00  0.00     0.002 C 
HETATM    3  C3  UNL     1      -4.323  -4.146   0.628  1.00  0.00     0.006 C 
HETATM    4  C4  UNL     1      -5.810  -4.516   0.671  1.00  0.00     0.012 C 
HETATM    5  C5  UNL     1      -3.748  -3.525   1.956  1.00  0.00     0.119 C 
HETATM    6  C6  UNL     1      -4.554  -2.373   2.663  1.00  0.00     0.152 C 
HETATM    7  C7  UNL     1      -4.579  -1.080   1.821  1.00  0.00     0.137 C 
HETATM    8  C8  UNL     1      -4.594   0.176   2.680  1.00  0.00     0.222 C 
HETATM    9  C9  UNL     1      -5.104   2.550   2.900  1.00  0.00     0.126 C 
HETATM   10  C10 UNL     1      -5.457   3.685   1.959  1.00  0.00     0.022 C 
HETATM   11  C11 UNL     1      -5.982   2.987   0.716  1.00  0.00     0.029 C 
HETATM   12  C12 UNL     1      -5.266   1.627   0.669  1.00  0.00     0.117 C 
HETATM   13  C13 UNL     1      -4.116   1.563  -0.394  1.00  0.00     0.156 C 
HETATM   14  C14 UNL     1      -2.680   1.827   0.121  1.00  0.00     0.105 C 
HETATM   15  C15 UNL     1      -1.606   1.413  -0.897  1.00  0.00     0.022 C 
HETATM   16  C16 UNL     1      -2.467   3.285   0.489  1.00  0.00     0.224 C 
HETATM   17  C17 UNL     1      -2.458   5.626  -0.321  1.00  0.00     0.113 C 
HETATM   18  C18 UNL     1      -3.294   6.399  -1.344  1.00  0.00     0.035 C 
HETATM   19  C19 UNL     1      -0.936   5.934  -0.403  1.00  0.00     0.173 C 
HETATM   20  C20 UNL     1      -0.605   7.364  -0.024  1.00  0.00    -0.028 A 
HETATM   21  C21 UNL     1      -0.478   8.376  -0.988  1.00  0.00     0.010 A 
HETATM   22  C22 UNL     1      -0.200   9.690  -0.608  1.00  0.00     0.001 A 
HETATM   23  C23 UNL     1      -0.045  10.009   0.739  1.00  0.00     0.000 A 
HETATM   24  C24 UNL     1      -0.174   9.016   1.708  1.00  0.00     0.001 A 
HETATM   25  C25 UNL     1      -0.453   7.702   1.330  1.00  0.00     0.010 A 
HETATM   26  C26 UNL     1      -4.987   0.156  -2.126  1.00  0.00     0.202 C 
HETATM   27  C27 UNL     1      -6.571  -2.065   3.936  1.00  0.00     0.202 C 
HETATM   28  C28 UNL     1      -4.262  -5.037   3.947  1.00  0.00     0.153 C 
HETATM   29  C29 UNL     1      -2.144  -5.300   2.607  1.00  0.00     0.243 C 
HETATM   30  C30 UNL     1      -1.677  -6.467   3.517  1.00  0.00     0.180 C 
HETATM   31  C31 UNL     1      -1.059  -5.936   4.831  1.00  0.00     0.009 C 
HETATM   32  C32 UNL     1       0.251  -5.169   4.613  1.00  0.00     0.012 C 
HETATM   33  C33 UNL     1      -0.835  -7.060   5.845  1.00  0.00     0.012 C 
HETATM   34  C34 UNL     1      -0.659  -8.616   2.728  1.00  0.00     0.241 C 
HETATM   35  C35 UNL     1       0.166  -9.228   1.561  1.00  0.00     0.184 C 
HETATM   36  C36 UNL     1       0.860 -10.559   1.952  1.00  0.00     0.010 C 
HETATM   37  C37 UNL     1       1.851 -10.470   3.115  1.00  0.00     0.012 C 
HETATM   38  C38 UNL     1       1.520 -11.227   0.741  1.00  0.00     0.012 C 
HETATM   39  C39 UNL     1       2.215  -7.727   1.502  1.00  0.00     0.156 C 
HETATM   40  C40 UNL     1       0.528  -7.684  -0.327  1.00  0.00     0.363 C 
HETATM   41  C41 UNL     1       0.777  -5.996  -1.926  1.00  0.00     0.219 C 
HETATM   42  C42 UNL     1       1.572  -4.727  -2.096  1.00  0.00    -0.034 A 
HETATM   43  C43 UNL     1       2.507  -4.597  -3.127  1.00  0.00     0.011 A 
HETATM   44  C44 UNL     1       3.268  -3.430  -3.258  1.00  0.00     0.030 A 
HETATM   45  C45 UNL     1       3.114  -2.378  -2.355  1.00  0.00     0.034 A 
HETATM   46  C46 UNL     1       2.173  -2.503  -1.326  1.00  0.00     0.030 A 
HETATM   47  C47 UNL     1       1.410  -3.667  -1.195  1.00  0.00     0.011 A 
HETATM   48  C48 UNL     1       4.891  -0.866  -3.278  1.00  0.00     0.245 C 
HETATM   49  C49 UNL     1       5.540   0.500  -2.968  1.00  0.00     0.177 C 
HETATM   50  C50 UNL     1       6.511   0.348  -1.779  1.00  0.00     0.047 C 
HETATM   51  C51 UNL     1       7.852  -0.271  -2.169  1.00  0.00     0.111 C 
HETATM   52  C52 UNL     1       9.393   1.966  -1.920  1.00  0.00     0.127 C 
HETATM   53  C53 UNL     1       4.799   2.832  -2.649  1.00  0.00     0.240 C 
HETATM   54  C54 UNL     1       3.599   3.797  -2.581  1.00  0.00     0.172 C 
HETATM   55  C55 UNL     1       2.807   3.786  -3.882  1.00  0.00     0.042 C 
HETATM   56  C56 UNL     1       3.383   6.132  -1.749  1.00  0.00     0.251 C 
HETATM   57  C57 UNL     1       4.171   7.436  -1.472  1.00  0.00     0.311 C 
HETATM   58  C58 UNL     1       4.615   8.145  -2.769  1.00  0.00     0.049 C 
HETATM   59  C59 UNL     1       3.594   8.894  -3.656  1.00  0.00    -0.020 C 
HETATM   60  C60 UNL     1       3.146  10.235  -3.073  1.00  0.00     0.009 C 
HETATM   61  C61 UNL     1       2.390   8.056  -4.070  1.00  0.00     0.009 C 
HETATM   62  C62 UNL     1       3.498   7.874   0.826  1.00  0.00     0.307 C 
HETATM   63  O1  UNL     1      -4.353   0.129   3.888  1.00  0.00    -0.273 OA
HETATM   64  O2  UNL     1      -2.105   3.626   1.612  1.00  0.00    -0.273 OA
HETATM   65  O3  UNL     1      -0.450   5.611  -1.714  1.00  0.00    -0.389 OA
HETATM   66  O4  UNL     1      -4.120   0.248  -0.998  1.00  0.00    -0.388 OA
HETATM   67  O5  UNL     1      -5.892  -2.825   2.945  1.00  0.00    -0.388 OA
HETATM   68  O6  UNL     1      -1.426  -4.965   1.652  1.00  0.00    -0.271 OA
HETATM   69  O7  UNL     1      -1.268  -9.303   3.544  1.00  0.00    -0.271 OA
HETATM   70  O8  UNL     1      -0.507  -8.041  -0.877  1.00  0.00    -0.238 OA
HETATM   71  O9  UNL     1       1.320  -6.690  -0.800  1.00  0.00    -0.299 OA
HETATM   72  O10 UNL     1       5.355  -1.591  -4.151  1.00  0.00    -0.271 OA
HETATM   73  O11 UNL     1      10.075   0.038  -3.634  1.00  0.00    -0.258 OA
HETATM   74  O12 UNL     1       5.961   3.241  -2.658  1.00  0.00    -0.271 OA
HETATM   75  O13 UNL     1       2.187   5.988  -1.497  1.00  0.00    -0.271 OA
HETATM   76  N1  UNL     1      -4.883   1.380   2.063  1.00  0.00    -0.345 N 
HETATM   77  N2  UNL     1      -2.707   4.191  -0.522  1.00  0.00    -0.354 N 
HETATM   78  N3  UNL     1      -3.330  -4.624   2.899  1.00  0.00    -0.347 N 
HETATM   79  N4  UNL     1      -0.732  -7.242   2.717  1.00  0.00    -0.346 N 
HETATM   80  N5  UNL     1       1.001  -8.220   0.865  1.00  0.00    -0.319 N 
HETATM   81  N6  UNL     1       3.861  -1.183  -2.403  1.00  0.00    -0.325 N 
HETATM   82  N7  UNL     1       4.481   1.486  -2.687  1.00  0.00    -0.346 N 
HETATM   83  N8  UNL     1       4.134   5.125  -2.305  1.00  0.00    -0.346 N 
HETATM   84  N9  UNL     1       3.438   8.330  -0.559  1.00  0.00     0.092 N 
HETATM   85  S1  UNL     1       8.866   0.822  -3.219  1.00  0.00     0.010 S 
HETATM   86  H95 UNL     1       0.515   5.810  -1.681  1.00  0.00     0.210 HD
HETATM   87  H96 UNL     1      -2.553   3.873  -1.471  1.00  0.00     0.163 HD
HETATM   88  H97 UNL     1      -0.353  -6.758   1.907  1.00  0.00     0.163 HD
HETATM   89  H98 UNL     1       3.675  -0.512  -1.667  1.00  0.00     0.169 HD
HETATM   90  H99 UNL     1       3.555   1.260  -3.035  1.00  0.00     0.163 HD
HETATM   91  HA0 UNL     1       5.140   5.238  -2.411  1.00  0.00     0.163 HD
HETATM   92  HA1 UNL     1       2.451   8.333  -0.838  1.00  0.00     0.316 HD
ENDROOT
TORSDOF 36
