REMARK  0 active torsions:
REMARK  status: ('A' for Active; 'I' for Inactive)
REMARK       I    between atoms: C2_2  and  O12_55 
REMARK       I    between atoms: C6_6  and  N4_60 
REMARK       I    between atoms: C7_7  and  N4_60 
REMARK       I    between atoms: C8_8  and  N6_62 
REMARK       I    between atoms: C9_9  and  O6_49 
REMARK       I    between atoms: C10_10  and  O4_47 
REMARK       I    between atoms: C11_11  and  C12_12 
REMARK       I    between atoms: C12_12  and  O3_46 
REMARK       I    between atoms: C13_13  and  O4_47 
REMARK       I    between atoms: C13_13  and  N5_61 
REMARK       I    between atoms: C14_14  and  C15_15 
REMARK       I    between atoms: C14_14  and  N6_62 
REMARK       I    between atoms: C15_15  and  C16_16 
REMARK       I    between atoms: C16_16  and  C17_17 
REMARK       I    between atoms: C16_16  and  N16_72 
REMARK       I    between atoms: C17_17  and  C18_18 
REMARK       I    between atoms: C18_18  and  C19_19 
REMARK       I    between atoms: C19_19  and  N7_63 
REMARK       I    between atoms: C20_20  and  C21_21 
REMARK       I    between atoms: C20_20  and  N7_63 
REMARK       I    between atoms: C21_21  and  C22_22 
REMARK       I    between atoms: C22_22  and  C23_23 
REMARK       I    between atoms: C22_22  and  N15_71 
REMARK       I    between atoms: C23_23  and  C24_24 
REMARK       I    between atoms: C24_24  and  C25_25 
REMARK       I    between atoms: C25_25  and  N8_64 
REMARK       I    between atoms: C26_26  and  C27_27 
REMARK       I    between atoms: C26_26  and  N8_64 
REMARK       I    between atoms: C27_27  and  C28_28 
REMARK       I    between atoms: C28_28  and  C29_29 
REMARK       I    between atoms: C28_28  and  N14_70 
REMARK       I    between atoms: C29_29  and  C30_30 
REMARK       I    between atoms: C30_30  and  C31_31 
REMARK       I    between atoms: C31_31  and  N9_65 
REMARK       I    between atoms: C32_32  and  C33_33 
REMARK       I    between atoms: C32_32  and  N9_65 
REMARK       I    between atoms: C33_33  and  C34_34 
REMARK       I    between atoms: C34_34  and  C35_35 
REMARK       I    between atoms: C34_34  and  N13_69 
REMARK       I    between atoms: C35_35  and  C36_36 
REMARK       I    between atoms: C36_36  and  C37_37 
REMARK       I    between atoms: C37_37  and  N10_66 
REMARK       I    between atoms: C38_38  and  C39_39 
REMARK       I    between atoms: C38_38  and  N10_66 
REMARK       I    between atoms: C39_39  and  C40_40 
REMARK       I    between atoms: C40_40  and  C41_41 
REMARK       I    between atoms: C40_40  and  N12_68 
REMARK       I    between atoms: C41_41  and  C42_42 
REMARK       I    between atoms: C42_42  and  C43_43 
REMARK       I    between atoms: C43_43  and  N11_67 
ROOT
HETATM    1  C1  UNL     1     -11.987   3.108   3.950  1.00  0.00     0.156 C 
HETATM    2  C2  UNL     1     -11.614   3.442   2.510  1.00  0.00     0.156 C 
HETATM    3  C3  UNL     1     -10.336   2.688   2.125  1.00  0.00     0.124 A 
HETATM    4  C4  UNL     1     -10.244   1.243   2.648  1.00  0.00     0.196 A 
HETATM    5  C5  UNL     1     -11.471   0.742   3.417  1.00  0.00     0.242 C 
HETATM    6  C6  UNL     1     -10.082   1.182   0.430  1.00  0.00     0.130 A 
HETATM    7  C7  UNL     1     -10.469  -0.403  -1.404  1.00  0.00     0.226 C 
HETATM    8  C8  UNL     1      -9.810  -1.643  -0.732  1.00  0.00     0.159 C 
HETATM    9  C9  UNL     1     -10.516  -2.933  -1.208  1.00  0.00     0.176 C 
HETATM   10  C10 UNL     1     -12.025  -2.798  -0.916  1.00  0.00     0.195 C 
HETATM   11  C11 UNL     1     -12.548  -1.574  -1.702  1.00  0.00     0.179 C 
HETATM   12  C12 UNL     1     -14.057  -1.373  -1.508  1.00  0.00     0.198 C 
HETATM   13  C13 UNL     1     -12.098  -3.577   1.337  1.00  0.00     0.358 C 
HETATM   14  C14 UNL     1      -7.605  -1.748  -1.963  1.00  0.00     0.220 C 
HETATM   15  C15 UNL     1      -6.110  -1.570  -1.784  1.00  0.00     0.138 C 
HETATM   16  C16 UNL     1      -5.472  -2.374  -0.643  1.00  0.00     0.226 C 
HETATM   17  C17 UNL     1      -5.823  -3.873  -0.627  1.00  0.00     0.037 C 
HETATM   18  C18 UNL     1      -5.530  -4.662  -1.911  1.00  0.00     0.022 C 
HETATM   19  C19 UNL     1      -4.049  -4.746  -2.278  1.00  0.00     0.122 C 
HETATM   20  C20 UNL     1      -2.560  -2.830  -2.804  1.00  0.00     0.219 C 
HETATM   21  C21 UNL     1      -2.235  -1.824  -3.895  1.00  0.00     0.138 C 
HETATM   22  C22 UNL     1      -1.380  -0.642  -3.397  1.00  0.00     0.226 C 
HETATM   23  C23 UNL     1      -1.292   0.441  -4.494  1.00  0.00     0.037 C 
HETATM   24  C24 UNL     1      -0.820   1.829  -4.027  1.00  0.00     0.022 C 
HETATM   25  C25 UNL     1       0.690   1.999  -3.880  1.00  0.00     0.122 C 
HETATM   26  C26 UNL     1       2.459   1.645  -2.211  1.00  0.00     0.219 C 
HETATM   27  C27 UNL     1       2.880   0.726  -1.078  1.00  0.00     0.138 C 
HETATM   28  C28 UNL     1       4.341   0.941  -0.652  1.00  0.00     0.226 C 
HETATM   29  C29 UNL     1       5.319   0.388  -1.712  1.00  0.00     0.037 C 
HETATM   30  C30 UNL     1       6.807   0.604  -1.412  1.00  0.00     0.022 C 
HETATM   31  C31 UNL     1       7.211   2.078  -1.393  1.00  0.00     0.122 C 
HETATM   32  C32 UNL     1       9.593   2.047  -2.062  1.00  0.00     0.219 C 
HETATM   33  C33 UNL     1      11.010   2.150  -1.526  1.00  0.00     0.138 C 
HETATM   34  C34 UNL     1      11.324   1.242  -0.322  1.00  0.00     0.226 C 
HETATM   35  C35 UNL     1      11.043  -0.243  -0.640  1.00  0.00     0.037 C 
HETATM   36  C36 UNL     1      11.346  -1.262   0.470  1.00  0.00     0.022 C 
HETATM   37  C37 UNL     1      12.827  -1.531   0.747  1.00  0.00     0.122 C 
HETATM   38  C38 UNL     1      13.339   0.274   2.376  1.00  0.00     0.219 C 
HETATM   39  C39 UNL     1      14.333   1.393   2.644  1.00  0.00     0.138 C 
HETATM   40  C40 UNL     1      14.012   2.295   3.850  1.00  0.00     0.226 C 
HETATM   41  C41 UNL     1      14.167   1.548   5.190  1.00  0.00     0.037 C 
HETATM   42  C42 UNL     1      13.987   2.404   6.454  1.00  0.00     0.032 C 
HETATM   43  C43 UNL     1      14.893   3.632   6.568  1.00  0.00     0.267 C 
HETATM   44  O1  UNL     1     -11.807  -0.441   3.491  1.00  0.00    -0.271 OA
HETATM   45  O2  UNL     1     -11.892  -0.364  -1.288  1.00  0.00    -0.359 OA
HETATM   46  O3  UNL     1     -14.809  -2.442  -2.073  1.00  0.00    -0.398 OA
HETATM   47  O4  UNL     1     -12.265  -2.547   0.486  1.00  0.00    -0.293 OA
HETATM   48  O5  UNL     1     -11.808  -4.722   1.032  1.00  0.00    -0.239 OA
HETATM   49  O6  UNL     1     -10.363  -3.188  -2.612  1.00  0.00    -0.391 OA
HETATM   50  O7  UNL     1      -8.111  -1.911  -3.071  1.00  0.00    -0.274 OA
HETATM   51  O8  UNL     1      -1.920  -2.925  -1.763  1.00  0.00    -0.274 OA
HETATM   52  O9  UNL     1       3.146   2.571  -2.630  1.00  0.00    -0.274 OA
HETATM   53  O10 UNL     1       9.362   1.854  -3.252  1.00  0.00    -0.274 OA
HETATM   54  O11 UNL     1      12.381   0.017   3.095  1.00  0.00    -0.274 OA
HETATM   55  O12 UNL     1     -12.712   3.098   1.651  1.00  0.00    -0.392 OA
HETATM   56  N1  UNL     1     -12.169   1.683   4.127  1.00  0.00    -0.357 N 
HETATM   57  N2  UNL     1     -10.027   0.386   1.447  1.00  0.00    -0.356 N 
ATOM     58  H2  UNL     1      -9.868  -0.621   1.431  1.00  0.00     0.162 HD
HETATM   59  N3  UNL     1     -10.271   2.508   0.669  1.00  0.00    -0.260 NA
HETATM   60  N4  UNL     1      -9.981   0.879  -0.885  1.00  0.00    -0.240 NA
HETATM   61  N5  UNL     1     -12.249  -3.148   2.608  1.00  0.00    -0.346 N 
HETATM   62  N6  UNL     1      -8.343  -1.676  -0.821  1.00  0.00    -0.350 N 
HETATM   63  N7  UNL     1      -3.631  -3.639  -3.117  1.00  0.00    -0.361 N 
HETATM   64  N8  UNL     1       1.204   1.351  -2.699  1.00  0.00    -0.361 N 
HETATM   65  N9  UNL     1       8.621   2.234  -1.109  1.00  0.00    -0.361 N 
HETATM   66  N10 UNL     1      13.603  -0.397   1.199  1.00  0.00    -0.361 N 
HETATM   67  N11 UNL     1      16.306   3.278   6.561  1.00  0.00     0.078 N 
HETATM   68  N12 UNL     1      12.692   2.918   3.693  1.00  0.00     0.083 N 
HETATM   69  N13 UNL     1      10.603   1.702   0.879  1.00  0.00     0.083 N 
HETATM   70  N14 UNL     1       4.550   0.270   0.642  1.00  0.00     0.083 N 
HETATM   71  N15 UNL     1      -0.033  -1.082  -2.997  1.00  0.00     0.083 N 
HETATM   72  N16 UNL     1      -5.839  -1.780   0.658  1.00  0.00     0.083 N 
HETATM   73  H58 UNL     1     -14.673  -2.422  -3.036  1.00  0.00     0.209 HD
HETATM   74  H59 UNL     1      -9.446  -2.950  -2.865  1.00  0.00     0.210 HD
HETATM   75  H60 UNL     1     -12.312   2.718   0.841  1.00  0.00     0.210 HD
HETATM   76  H61 UNL     1     -13.016   1.336   4.564  1.00  0.00     0.162 HD
HETATM   77  H62 UNL     1      -9.594   3.098   0.195  1.00  0.00     0.130 HD
HETATM   78  H63 UNL     1     -10.388   1.610  -1.454  1.00  0.00     0.132 HD
HETATM   79  H64 UNL     1     -11.956  -3.764   3.350  1.00  0.00     0.161 HD
HETATM   80  H65 UNL     1     -12.205  -2.144   2.786  1.00  0.00     0.161 HD
HETATM   81  H66 UNL     1      -7.832  -1.486   0.043  1.00  0.00     0.163 HD
HETATM   82  H67 UNL     1      -4.023  -3.589  -4.049  1.00  0.00     0.162 HD
HETATM   83  H68 UNL     1       0.850   0.404  -2.531  1.00  0.00     0.162 HD
HETATM   84  H69 UNL     1       8.937   2.157  -0.139  1.00  0.00     0.162 HD
HETATM   85  H70 UNL     1      14.479  -0.209   0.726  1.00  0.00     0.162 HD
HETATM   86  H71 UNL     1      16.864   4.119   6.713  1.00  0.00     0.312 HD
HETATM   87  H72 UNL     1      16.577   2.925   5.645  1.00  0.00     0.312 HD
HETATM   88  H73 UNL     1      12.505   3.541   4.477  1.00  0.00     0.313 HD
HETATM   89  H74 UNL     1      11.986   2.176   3.772  1.00  0.00     0.313 HD
HETATM   90  H75 UNL     1      10.984   2.611   1.163  1.00  0.00     0.313 HD
HETATM   91  H76 UNL     1      10.849   1.090   1.667  1.00  0.00     0.313 HD
HETATM   92  H77 UNL     1       4.540  -0.741   0.514  1.00  0.00     0.313 HD
HETATM   93  H78 UNL     1       5.476   0.500   1.003  1.00  0.00     0.313 HD
HETATM   94  H79 UNL     1      -0.156  -1.787  -2.253  1.00  0.00     0.313 HD
HETATM   95  H80 UNL     1       0.398  -1.600  -3.766  1.00  0.00     0.313 HD
HETATM   96  H81 UNL     1      -5.429  -2.342   1.408  1.00  0.00     0.313 HD
HETATM   97  H82 UNL     1      -5.393  -0.864   0.744  1.00  0.00     0.313 HD
ENDROOT
TORSDOF 44
