REMARK  31 active torsions:
REMARK  status: ('A' for Active; 'I' for Inactive)
REMARK    1  A    between atoms: C2_2  and  C3_3 
REMARK    2  A    between atoms: C12_12  and  C14_14 
REMARK    3  A    between atoms: C12_12  and  O11_84 
REMARK    4  A    between atoms: C13_13  and  O1_74 
REMARK       I    between atoms: C14_14  and  N2_68 
REMARK    5  A    between atoms: C15_15  and  C16_16 
REMARK    6  A    between atoms: C15_15  and  N2_68 
REMARK    7  A    between atoms: C16_16  and  C17_17 
REMARK    8  A    between atoms: C17_17  and  O3_76 
REMARK    9  A    between atoms: C18_18  and  C19_19 
REMARK   10  A    between atoms: C18_18  and  O3_76 
REMARK   11  A    between atoms: C19_19  and  N3_69 
REMARK   12  A    between atoms: C21_21  and  C22_22 
REMARK       I    between atoms: C21_21  and  N3_69 
REMARK   13  A    between atoms: C22_22  and  C23_23 
REMARK   14  A    between atoms: C23_23  and  N4_70 
REMARK       I    between atoms: C24_24  and  N4_70 
REMARK   15  A    between atoms: C24_24  and  O7_80 
REMARK   16  A    between atoms: C25_25  and  C26_26 
REMARK   17  A    between atoms: C25_25  and  O7_80 
REMARK   18  A    between atoms: C26_26  and  O8_81 
REMARK   19  A    between atoms: C26_26  and  O10_83 
REMARK   20  A    between atoms: C27_27  and  C28_28 
REMARK   21  A    between atoms: C27_27  and  C33_33 
REMARK   22  A    between atoms: C27_27  and  O8_81 
REMARK   23  A    between atoms: C28_28  and  C29_29 
REMARK   24  A    between atoms: C33_33  and  O9_82 
REMARK   25  A    between atoms: C34_34  and  O10_83 
REMARK   26  A    between atoms: C40_40  and  O15_88 
REMARK   27  A    between atoms: C41_41  and  C44_44 
REMARK   28  A    between atoms: C44_44  and  C63_63 
REMARK   29  A    between atoms: C48_48  and  C61_61 
REMARK   30  A    between atoms: C48_48  and  O12_85 
REMARK   31  A    between atoms: C63_63  and  O14_87 
ROOT
HETATM    1  C3  UNL     1      -2.227  -0.900  -3.028  1.00  0.00     0.038 C 
HETATM    2  C4  UNL     1      -2.923  -1.622  -4.199  1.00  0.00    -0.015 C 
HETATM    3  C5  UNL     1      -3.363  -2.894  -4.058  1.00  0.00    -0.000 C 
HETATM    4  C6  UNL     1      -3.235  -3.695  -2.765  1.00  0.00     0.300 C 
HETATM    5  C7  UNL     1      -2.847  -1.552  -1.761  1.00  0.00     0.252 C 
HETATM    6  C8  UNL     1      -2.438  -1.009  -0.393  1.00  0.00     0.042 C 
HETATM    7  C9  UNL     1      -1.729  -2.223   0.257  1.00  0.00     0.049 C 
HETATM    8  C10 UNL     1      -2.372  -3.439  -0.427  1.00  0.00     0.274 C 
HETATM    9  C11 UNL     1      -1.622   0.314  -0.412  1.00  0.00     0.124 C 
HETATM   10  C12 UNL     1      -1.912   1.266  -1.642  1.00  0.00     0.182 C 
HETATM   11  C13 UNL     1      -2.543   0.608  -2.907  1.00  0.00     0.178 C 
HETATM   12  C38 UNL     1      -3.212   0.528   1.248  1.00  0.00     0.020 A 
HETATM   13  C39 UNL     1      -4.064   1.053   2.206  1.00  0.00     0.061 A 
HETATM   14  C40 UNL     1      -5.298   0.429   2.444  1.00  0.00     0.077 A 
HETATM   15  C41 UNL     1      -5.686  -0.728   1.722  1.00  0.00     0.000 A 
HETATM   16  C42 UNL     1      -4.798  -1.217   0.737  1.00  0.00     0.021 A 
HETATM   17  C43 UNL     1      -3.575  -0.597   0.520  1.00  0.00    -0.023 A 
HETATM   18  C66 UNL     1      -0.971   1.112   1.898  1.00  0.00     0.117 C 
HETATM   19  N1  UNL     1      -2.434  -2.963  -1.790  1.00  0.00     0.098 N 
HETATM   20  N5  UNL     1      -1.981   1.097   0.837  1.00  0.00    -0.278 NA
ENDROOT
BRANCH  10  21
HETATM   21  C14 UNL     1      -0.612   2.013  -2.029  1.00  0.00     0.256 C 
HETATM   22  N2  UNL     1      -0.840   3.222  -2.661  1.00  0.00    -0.358 N 
HETATM   23  H90 UNL     1      -1.794   3.572  -2.600  1.00  0.00     0.162 HD
HETATM   24  O2  UNL     1       0.517   1.570  -1.837  1.00  0.00    -0.270 OA
BRANCH  22  25
HETATM   25  C15 UNL     1       0.224   4.129  -3.035  1.00  0.00     0.125 C 
BRANCH  25  26
HETATM   26  C16 UNL     1       0.505   5.187  -1.966  1.00  0.00     0.046 C 
BRANCH  26  27
HETATM   27  C17 UNL     1       1.104   4.624  -0.680  1.00  0.00     0.180 C 
BRANCH  27  28
HETATM   28  O3  UNL     1       2.348   3.984  -0.982  1.00  0.00    -0.320 OA
BRANCH  28  29
HETATM   29  C18 UNL     1       2.796   3.125  -0.022  1.00  0.00     0.281 C 
HETATM   30  O4  UNL     1       2.242   2.913   1.053  1.00  0.00    -0.263 OA
BRANCH  29  31
HETATM   31  C19 UNL     1       4.088   2.438  -0.483  1.00  0.00     0.180 C 
HETATM   32  C20 UNL     1       3.753   1.292  -1.424  1.00  0.00     0.043 C 
BRANCH  31  33
HETATM   33  N3  UNL     1       4.808   1.945   0.693  1.00  0.00    -0.348 N 
HETATM   34  C21 UNL     1       5.603   2.806   1.425  1.00  0.00     0.219 C 
HETATM   35  O5  UNL     1       5.926   3.920   1.027  1.00  0.00    -0.274 OA
HETATM   36  H91 UNL     1       4.354   1.202   1.211  1.00  0.00     0.163 HD
BRANCH  34  37
HETATM   37  C22 UNL     1       6.036   2.226   2.756  1.00  0.00     0.122 C 
BRANCH  37  38
HETATM   38  C23 UNL     1       6.743   3.255   3.630  1.00  0.00     0.134 C 
BRANCH  38  39
HETATM   39  N4  UNL     1       8.072   3.582   3.161  1.00  0.00    -0.336 N 
HETATM   40  C24 UNL     1       9.147   2.778   3.384  1.00  0.00     0.360 C 
HETATM   41  O6  UNL     1       9.133   1.777   4.084  1.00  0.00    -0.239 OA
HETATM   42  H92 UNL     1       8.173   4.274   2.429  1.00  0.00     0.164 HD
BRANCH  40  43
HETATM   43  O7  UNL     1      10.206   3.254   2.685  1.00  0.00    -0.299 OA
BRANCH  43  44
HETATM   44  C25 UNL     1      11.392   2.432   2.693  1.00  0.00     0.241 C 
BRANCH  44  45
HETATM   45  C26 UNL     1      11.355   1.442   1.512  1.00  0.00     0.285 C 
BRANCH  45  46
HETATM   46  O8  UNL     1      10.341   0.491   1.834  1.00  0.00    -0.352 OA
BRANCH  46  47
HETATM   47  C27 UNL     1       9.894  -0.368   0.774  1.00  0.00     0.149 C 
BRANCH  47  48
HETATM   48  C28 UNL     1       8.913   0.420  -0.121  1.00  0.00     0.042 C 
BRANCH  48  49
HETATM   49  C29 UNL     1       8.261  -0.279  -1.346  1.00  0.00    -0.049 C 
HETATM   50  C30 UNL     1       9.265  -1.153  -2.111  1.00  0.00     0.014 C 
HETATM   51  C31 UNL     1       7.038  -1.121  -0.944  1.00  0.00     0.014 C 
HETATM   52  C32 UNL     1       7.760   0.829  -2.302  1.00  0.00     0.014 C 
ENDBRANCH  48  49
ENDBRANCH  47  48
BRANCH  47  53
HETATM   53  C33 UNL     1       9.272  -1.558   1.514  1.00  0.00     0.196 C 
BRANCH  53  54
HETATM   54  O9  UNL     1       8.160  -1.129   2.303  1.00  0.00    -0.398 OA
HETATM   55  H95 UNL     1       8.519  -0.401   2.857  1.00  0.00     0.209 HD
ENDBRANCH  53  54
ENDBRANCH  47  53
ENDBRANCH  46  47
ENDBRANCH  45  46
BRANCH  45  56
HETATM   56  O10 UNL     1      12.609   0.778   1.391  1.00  0.00    -0.349 OA
BRANCH  56  57
HETATM   57  C34 UNL     1      13.484   1.173   0.324  1.00  0.00     0.053 C 
HETATM   58  C35 UNL     1      13.828   2.667   0.366  1.00  0.00     0.045 C 
HETATM   59  C36 UNL     1      12.908   0.789  -1.045  1.00  0.00     0.045 C 
HETATM   60  C37 UNL     1      14.774   0.369   0.550  1.00  0.00     0.045 C 
ENDBRANCH  56  57
ENDBRANCH  45  56
ENDBRANCH  44  45
ENDBRANCH  43  44
ENDBRANCH  40  43
ENDBRANCH  38  39
ENDBRANCH  37  38
ENDBRANCH  34  37
ENDBRANCH  31  33
ENDBRANCH  29  31
ENDBRANCH  28  29
ENDBRANCH  27  28
ENDBRANCH  26  27
ENDBRANCH  25  26
ENDBRANCH  22  25
ENDBRANCH  10  21
BRANCH  10  61
HETATM   61  O11 UNL     1      -2.838   2.340  -1.243  1.00  0.00    -0.376 OA
HETATM   62  H96 UNL     1      -2.691   2.393  -0.269  1.00  0.00     0.211 HD
ENDBRANCH  10  61
BRANCH  11  63
HETATM   63  O1  UNL     1      -3.977   0.801  -2.859  1.00  0.00    -0.391 OA
HETATM   64  H94 UNL     1      -4.112   1.606  -2.314  1.00  0.00     0.210 HD
ENDBRANCH  11  63
BRANCH   1  65
HETATM   65  C2  UNL     1      -0.692  -1.165  -3.204  1.00  0.00     0.014 C 
HETATM   66  C1  UNL     1      -0.053  -0.522  -4.435  1.00  0.00     0.006 C 
ENDBRANCH   1  65
BRANCH  15  67
HETATM   67  C44 UNL     1      -7.080  -1.410   1.936  1.00  0.00     0.121 C 
HETATM   68  C45 UNL     1      -8.139  -0.540   1.183  1.00  0.00     0.037 C 
HETATM   69  C46 UNL     1      -7.877  -0.115  -0.292  1.00  0.00     0.008 C 
HETATM   70  C47 UNL     1      -8.901   0.973  -0.721  1.00  0.00     0.045 C 
HETATM   71  C50 UNL     1      -7.835  -1.260  -1.310  1.00  0.00     0.121 C 
HETATM   72  C48 UNL     1     -10.019   0.476  -1.664  1.00  0.00     0.073 C 
HETATM   73  C49 UNL     1     -10.301  -1.029  -1.415  1.00  0.00     0.154 C 
HETATM   74  N6  UNL     1      -9.121  -1.877  -1.588  1.00  0.00    -0.409 N 
HETATM   75  C51 UNL     1      -9.282  -3.269  -1.186  1.00  0.00     0.121 C 
HETATM   76  C52 UNL     1      -9.284  -3.567   0.320  1.00  0.00     0.061 C 
HETATM   77  C53 UNL     1      -7.922  -3.799   0.907  1.00  0.00    -0.020 C 
HETATM   78  C54 UNL     1      -7.067  -2.917   1.569  1.00  0.00     0.040 C 
HETATM   79  C60 UNL     1      -7.264  -5.082   0.870  1.00  0.00    -0.001 A 
HETATM   80  N7  UNL     1      -6.028  -3.695   2.066  1.00  0.00    -0.357 N 
HETATM   81  C55 UNL     1      -6.084  -4.977   1.593  1.00  0.00     0.043 A 
HETATM   82  H93 UNL     1      -5.296  -3.343   2.670  1.00  0.00     0.166 HD
HETATM   83  C56 UNL     1      -5.197  -6.044   1.774  1.00  0.00     0.030 A 
HETATM   84  C57 UNL     1      -5.528  -7.266   1.186  1.00  0.00     0.002 A 
HETATM   85  C58 UNL     1      -6.705  -7.412   0.457  1.00  0.00     0.001 A 
HETATM   86  C59 UNL     1      -7.582  -6.333   0.296  1.00  0.00     0.014 A 
BRANCH  72  87
HETATM   87  C61 UNL     1     -11.325   1.282  -1.479  1.00  0.00     0.035 C 
HETATM   88  C62 UNL     1     -11.190   2.777  -1.748  1.00  0.00     0.008 C 
ENDBRANCH  72  87
BRANCH  72  89
HETATM   89  O12 UNL     1      -9.614   0.633  -3.034  1.00  0.00    -0.388 OA
HETATM   90  H97 UNL     1      -9.145   1.477  -3.128  1.00  0.00     0.210 HD
ENDBRANCH  72  89
BRANCH  67  91
HETATM   91  C63 UNL     1      -7.414  -1.466   3.477  1.00  0.00     0.278 C 
HETATM   92  O13 UNL     1      -6.604  -1.783   4.349  1.00  0.00    -0.264 OA
BRANCH  91  93
HETATM   93  O14 UNL     1      -8.734  -1.213   3.729  1.00  0.00    -0.325 OA
HETATM   94  C64 UNL     1      -9.095  -1.314   5.105  1.00  0.00     0.213 C 
ENDBRANCH  91  93
ENDBRANCH  67  91
ENDBRANCH  15  67
BRANCH  14  95
HETATM   95  O15 UNL     1      -6.216   0.975   3.308  1.00  0.00    -0.355 OA
HETATM   96  C65 UNL     1      -5.660   1.469   4.526  1.00  0.00     0.210 C 
ENDBRANCH  14  95
TORSDOF 31
