REMARK  22 active torsions:
REMARK  status: ('A' for Active; 'I' for Inactive)
REMARK    1  A    between atoms: C2_2  and  C3_3 
REMARK    2  A    between atoms: C2_2  and  N10_84 
REMARK       I    between atoms: C3_3  and  N1_75 
REMARK    3  A    between atoms: C4_4  and  C5_5 
REMARK    4  A    between atoms: C4_4  and  C60_60 
REMARK    5  A    between atoms: C4_4  and  N1_75 
REMARK       I    between atoms: C5_5  and  N2_76 
REMARK    6  A    between atoms: C7_7  and  N4_78 
REMARK    7  A    between atoms: C9_9  and  C10_10 
REMARK       I    between atoms: C10_10  and  N3_77 
REMARK    8  A    between atoms: C11_11  and  N3_77 
REMARK    9  A    between atoms: C21_21  and  C22_22 
REMARK       I    between atoms: C21_21  and  N4_78 
REMARK   10  A    between atoms: C25_25  and  C28_28 
REMARK       I    between atoms: C28_28  and  N5_79 
REMARK   11  A    between atoms: C29_29  and  N5_79 
REMARK   12  A    between atoms: C34_34  and  C47_47 
REMARK   13  A    between atoms: C36_36  and  C37_37 
REMARK       I    between atoms: C36_36  and  N6_80 
REMARK   14  A    between atoms: C37_37  and  C38_38 
REMARK   15  A    between atoms: C37_37  and  N7_81 
REMARK   16  A    between atoms: C38_38  and  S1_85 
REMARK   17  A    between atoms: C41_41  and  C42_42 
REMARK   18  A    between atoms: C41_41  and  S1_85 
REMARK   19  A    between atoms: C42_42  and  O8_72 
REMARK   20  A    between atoms: C43_43  and  C44_44 
REMARK       I    between atoms: C43_43  and  N7_81 
REMARK   21  A    between atoms: C44_44  and  N8_82 
REMARK       I    between atoms: C47_47  and  N9_83 
REMARK   22  A    between atoms: C48_48  and  N9_83 
ROOT
HETATM    1  C28 UNL     1       0.473  -1.337   0.480  1.00  0.00     0.256 C 
HETATM    2  O5  UNL     1       0.880  -2.289  -0.175  1.00  0.00    -0.267 OA
HETATM    3  N5  UNL     1      -0.676  -0.600   0.273  1.00  0.00    -0.323 N 
HETATM    4  H78 UNL     1      -0.908   0.092   0.975  1.00  0.00     0.169 HD
ENDROOT
BRANCH   1   5
HETATM    5  C25 UNL     1       1.289  -0.909   1.646  1.00  0.00     0.032 A 
HETATM    6  C24 UNL     1       1.917  -1.893   2.421  1.00  0.00     0.018 A 
HETATM    7  C23 UNL     1       2.766  -1.526   3.468  1.00  0.00     0.018 A 
HETATM    8  C22 UNL     1       3.004  -0.171   3.727  1.00  0.00     0.032 A 
HETATM    9  C27 UNL     1       2.356   0.812   2.968  1.00  0.00     0.018 A 
HETATM   10  C26 UNL     1       1.503   0.446   1.925  1.00  0.00     0.018 A 
BRANCH   8  11
HETATM   11  C21 UNL     1       4.000   0.276   4.737  1.00  0.00     0.252 C 
HETATM   12  O4  UNL     1       3.887   1.364   5.288  1.00  0.00    -0.268 OA
HETATM   13  N4  UNL     1       5.099  -0.548   4.899  1.00  0.00    -0.351 N 
HETATM   14  H77 UNL     1       5.215  -1.275   4.204  1.00  0.00     0.163 HD
BRANCH  13  15
HETATM   15  C7  UNL     1       6.335   0.024   5.436  1.00  0.00     0.105 C 
HETATM   16  C6  UNL     1       7.026   0.891   4.374  1.00  0.00     0.152 C 
HETATM   17  N2  UNL     1       7.634  -0.107   3.496  1.00  0.00    -0.335 N 
HETATM   18  C5  UNL     1       7.479  -0.205   2.129  1.00  0.00     0.244 C 
HETATM   19  C9  UNL     1       7.984  -1.309   4.283  1.00  0.00     0.181 C 
HETATM   20  O2  UNL     1       7.800  -1.255   1.555  1.00  0.00    -0.271 OA
HETATM   21  C8  UNL     1       7.388  -1.055   5.679  1.00  0.00     0.061 C 
BRANCH  18  22
HETATM   22  C4  UNL     1       6.976   1.008   1.301  1.00  0.00     0.184 C 
BRANCH  22  23
HETATM   23  C60 UNL     1       8.126   1.958   0.834  1.00  0.00    -0.022 C 
HETATM   24  C61 UNL     1       8.824   2.610   2.043  1.00  0.00     0.017 C 
HETATM   25  C62 UNL     1       9.189   1.214   0.001  1.00  0.00     0.017 C 
HETATM   26  C63 UNL     1       7.547   3.099  -0.031  1.00  0.00     0.017 C 
ENDBRANCH  22  23
BRANCH  22  27
HETATM   27  N1  UNL     1       6.254   0.422   0.167  1.00  0.00    -0.345 N 
HETATM   28  C3  UNL     1       4.992   0.823  -0.222  1.00  0.00     0.251 C 
HETATM   29  O1  UNL     1       4.403   1.775   0.283  1.00  0.00    -0.271 OA
HETATM   30  H75 UNL     1       6.525  -0.519  -0.120  1.00  0.00     0.163 HD
BRANCH  28  31
HETATM   31  C2  UNL     1       4.424  -0.035  -1.379  1.00  0.00     0.307 C 
HETATM   32  C1  UNL     1       3.073   0.504  -1.841  1.00  0.00     0.053 C 
BRANCH  31  33
HETATM   33  N10 UNL     1       4.358  -1.437  -0.907  1.00  0.00     0.092 N 
HETATM   34  C64 UNL     1       4.220  -2.385  -2.006  1.00  0.00     0.307 C 
HETATM   35  H82 UNL     1       3.542  -1.540  -0.298  1.00  0.00     0.316 HD
ENDBRANCH  31  33
ENDBRANCH  28  31
ENDBRANCH  22  27
ENDBRANCH  18  22
BRANCH  19  36
HETATM   36  C10 UNL     1       9.499  -1.599   4.341  1.00  0.00     0.241 C 
HETATM   37  O3  UNL     1      10.059  -1.986   5.365  1.00  0.00    -0.271 OA
HETATM   38  N3  UNL     1      10.143  -1.520   3.128  1.00  0.00    -0.351 N 
HETATM   39  H76 UNL     1       9.557  -1.474   2.295  1.00  0.00     0.163 HD
BRANCH  38  40
HETATM   40  C11 UNL     1      11.539  -1.891   2.949  1.00  0.00     0.118 C 
HETATM   41  C12 UNL     1      12.482  -0.834   3.546  1.00  0.00     0.030 C 
HETATM   42  C13 UNL     1      12.539   0.410   2.665  1.00  0.00     0.007 C 
HETATM   43  C14 UNL     1      13.099   0.066   1.287  1.00  0.00     0.039 C 
HETATM   44  C15 UNL     1      12.498  -1.180   0.687  1.00  0.00    -0.050 A 
HETATM   45  C16 UNL     1      12.688  -1.430  -0.681  1.00  0.00     0.007 A 
HETATM   46  C20 UNL     1      11.805  -2.122   1.472  1.00  0.00    -0.029 A 
HETATM   47  C17 UNL     1      12.181  -2.587  -1.272  1.00  0.00     0.001 A 
HETATM   48  C18 UNL     1      11.484  -3.512  -0.502  1.00  0.00     0.001 A 
HETATM   49  C19 UNL     1      11.297  -3.282   0.861  1.00  0.00     0.010 A 
ENDBRANCH  38  40
ENDBRANCH  19  36
ENDBRANCH  13  15
ENDBRANCH   8  11
ENDBRANCH   1   5
BRANCH   3  50
HETATM   50  C29 UNL     1      -1.608  -0.748  -0.776  1.00  0.00     0.035 A 
HETATM   51  C30 UNL     1      -2.743   0.072  -0.741  1.00  0.00     0.039 A 
HETATM   52  C31 UNL     1      -3.738  -0.026  -1.728  1.00  0.00    -0.032 A 
HETATM   53  C32 UNL     1      -3.568  -0.931  -2.799  1.00  0.00    -0.048 A 
HETATM   54  C35 UNL     1      -4.962   0.869  -1.649  1.00  0.00     0.166 C 
HETATM   55  C33 UNL     1      -4.618  -1.073  -3.891  1.00  0.00     0.074 C 
HETATM   56  C58 UNL     1      -2.431  -1.744  -2.831  1.00  0.00     0.010 A 
HETATM   57  C34 UNL     1      -5.639   0.069  -3.826  1.00  0.00     0.184 C 
HETATM   58  N6  UNL     1      -6.059   0.292  -2.424  1.00  0.00    -0.332 N 
HETATM   59  C36 UNL     1      -6.918  -0.670  -1.862  1.00  0.00     0.245 C 
HETATM   60  O6  UNL     1      -7.475  -1.498  -2.589  1.00  0.00    -0.271 OA
HETATM   61  C59 UNL     1      -1.461  -1.653  -1.827  1.00  0.00     0.030 A 
BRANCH  57  62
HETATM   62  C47 UNL     1      -6.765  -0.043  -4.873  1.00  0.00     0.241 C 
HETATM   63  O10 UNL     1      -6.620  -0.613  -5.951  1.00  0.00    -0.271 OA
HETATM   64  N9  UNL     1      -7.880   0.711  -4.563  1.00  0.00    -0.351 N 
HETATM   65  H81 UNL     1      -7.940   1.062  -3.616  1.00  0.00     0.163 HD
BRANCH  64  66
HETATM   66  C48 UNL     1      -9.101   0.639  -5.346  1.00  0.00     0.118 C 
HETATM   67  C49 UNL     1      -9.200   1.845  -6.290  1.00  0.00     0.030 C 
HETATM   68  C50 UNL     1      -9.616   3.104  -5.533  1.00  0.00     0.007 C 
HETATM   69  C51 UNL     1     -11.001   2.922  -4.917  1.00  0.00     0.039 C 
HETATM   70  C52 UNL     1     -11.160   1.614  -4.182  1.00  0.00    -0.050 A 
HETATM   71  C53 UNL     1     -12.247   1.452  -3.308  1.00  0.00     0.007 A 
HETATM   72  C57 UNL     1     -10.287   0.533  -4.403  1.00  0.00    -0.029 A 
HETATM   73  C54 UNL     1     -12.449   0.247  -2.635  1.00  0.00     0.001 A 
HETATM   74  C55 UNL     1     -11.572  -0.815  -2.832  1.00  0.00     0.001 A 
HETATM   75  C56 UNL     1     -10.500  -0.673  -3.711  1.00  0.00     0.010 A 
ENDBRANCH  64  66
ENDBRANCH  57  62
BRANCH  59  76
HETATM   76  C37 UNL     1      -7.353  -0.522  -0.379  1.00  0.00     0.194 C 
BRANCH  76  77
HETATM   77  C38 UNL     1      -7.661  -1.869   0.363  1.00  0.00     0.030 C 
HETATM   78  C39 UNL     1      -8.921  -2.588  -0.168  1.00  0.00     0.029 C 
HETATM   79  C40 UNL     1      -7.909  -1.578   1.858  1.00  0.00     0.029 C 
BRANCH  77  80
HETATM   80  S1  UNL     1      -6.274  -3.112   0.197  1.00  0.00    -0.147 SA
BRANCH  80  81
HETATM   81  C41 UNL     1      -4.886  -2.315   1.067  1.00  0.00     0.184 C 
BRANCH  81  82
HETATM   82  C42 UNL     1      -4.804  -2.686   2.530  1.00  0.00     0.149 C 
HETATM   83  O7  UNL     1      -5.522  -3.429   3.177  1.00  0.00    -0.649 OA
BRANCH  82  84
HETATM   84  O8  UNL     1      -3.772  -2.058   3.141  1.00  0.00    -0.776 OA
HETATM   85  H74 UNL     1      -3.819  -2.391   4.063  1.00  0.00     0.167 HD
ENDBRANCH  82  84
ENDBRANCH  81  82
ENDBRANCH  80  81
ENDBRANCH  77  80
ENDBRANCH  76  77
BRANCH  76  86
HETATM   86  N7  UNL     1      -8.520   0.376  -0.404  1.00  0.00    -0.344 N 
HETATM   87  C43 UNL     1      -8.386   1.741  -0.208  1.00  0.00     0.251 C 
HETATM   88  O9  UNL     1      -7.303   2.267   0.033  1.00  0.00    -0.271 OA
HETATM   89  H79 UNL     1      -9.327   0.070  -0.941  1.00  0.00     0.163 HD
BRANCH  87  90
HETATM   90  C44 UNL     1      -9.724   2.515  -0.318  1.00  0.00     0.307 C 
HETATM   91  C45 UNL     1      -9.468   4.018  -0.222  1.00  0.00     0.053 C 
BRANCH  90  92
HETATM   92  N8  UNL     1     -10.624   2.024   0.748  1.00  0.00     0.092 N 
HETATM   93  C46 UNL     1     -11.976   2.550   0.641  1.00  0.00     0.307 C 
HETATM   94  H80 UNL     1     -10.658   1.005   0.709  1.00  0.00     0.316 HD
ENDBRANCH  90  92
ENDBRANCH  87  90
ENDBRANCH  76  86
ENDBRANCH  59  76
ENDBRANCH   3  50
TORSDOF 22
