REMARK  26 active torsions:
REMARK  status: ('A' for Active; 'I' for Inactive)
REMARK    1  A    between atoms: C2_2  and  C3_3 
REMARK    2  A    between atoms: C2_2  and  N1_46 
REMARK    3  A    between atoms: C3_3  and  O2_37 
REMARK    4  A    between atoms: C5_5  and  C6_6 
REMARK    5  A    between atoms: C5_5  and  O4_39 
REMARK    6  A    between atoms: C9_9  and  N2_47 
REMARK    7  A    between atoms: C11_11  and  C14_14 
REMARK    8  A    between atoms: C14_14  and  C15_15 
REMARK       I    between atoms: C15_15  and  N4_49 
REMARK    9  A    between atoms: C16_16  and  C17_17 
REMARK   10  A    between atoms: C16_16  and  N4_49 
REMARK   11  A    between atoms: C17_17  and  C18_18 
REMARK   12  A    between atoms: C18_18  and  C19_19 
REMARK   13  A    between atoms: C19_19  and  C20_20 
REMARK   14  A    between atoms: C20_20  and  C21_21 
REMARK   15  A    between atoms: C21_21  and  C22_22 
REMARK   16  A    between atoms: C22_22  and  C23_23 
REMARK   17  A    between atoms: C23_23  and  C24_24 
REMARK   18  A    between atoms: C24_24  and  C25_25 
REMARK   19  A    between atoms: C25_25  and  C26_26 
REMARK   20  A    between atoms: C26_26  and  C27_27 
REMARK   21  A    between atoms: C27_27  and  N5_50 
REMARK   22  A    between atoms: C28_28  and  C29_29 
REMARK       I    between atoms: C28_28  and  N5_50 
REMARK   23  A    between atoms: C30_30  and  O10_45 
REMARK   24  A    between atoms: O4_39  and  P1_51 
REMARK   25  A    between atoms: O10_45  and  P1_51 
REMARK   26  A    between atoms: N1_46  and  P1_51 
ROOT
HETATM    1  C10 UNL     1       0.186   4.970  -0.946  1.00  0.00     0.112 C 
HETATM    2  C11 UNL     1       1.407   5.466  -1.179  1.00  0.00     0.034 C 
HETATM    3  C12 UNL     1       2.404   4.574  -1.807  1.00  0.00     0.257 C 
HETATM    4  C13 UNL     1       0.718   2.823  -1.926  1.00  0.00     0.331 C 
HETATM    5  O6  UNL     1       3.584   4.900  -1.902  1.00  0.00    -0.267 OA
HETATM    6  O7  UNL     1       0.518   1.646  -2.215  1.00  0.00    -0.246 OA
HETATM    7  N2  UNL     1      -0.170   3.671  -1.273  1.00  0.00    -0.278 N 
HETATM    8  N3  UNL     1       1.935   3.373  -2.242  1.00  0.00    -0.275 N 
HETATM    9  H47 UNL     1       2.604   2.738  -2.649  1.00  0.00     0.173 HD
ENDROOT
BRANCH   2  10
HETATM   10  C14 UNL     1       1.847   6.858  -0.839  1.00  0.00     0.148 C 
BRANCH  10  11
HETATM   11  C15 UNL     1       2.535   6.852   0.516  1.00  0.00     0.222 C 
HETATM   12  O8  UNL     1       1.948   7.198   1.538  1.00  0.00    -0.273 OA
HETATM   13  N4  UNL     1       3.837   6.404   0.492  1.00  0.00    -0.361 N 
HETATM   14  H48 UNL     1       4.173   5.964  -0.366  1.00  0.00     0.162 HD
BRANCH  13  15
HETATM   15  C16 UNL     1       4.619   6.223   1.697  1.00  0.00     0.122 C 
BRANCH  15  16
HETATM   16  C17 UNL     1       4.120   5.085   2.590  1.00  0.00     0.020 C 
BRANCH  16  17
HETATM   17  C18 UNL     1       4.084   3.727   1.881  1.00  0.00     0.002 C 
BRANCH  17  18
HETATM   18  C19 UNL     1       3.537   2.643   2.814  1.00  0.00     0.000 C 
BRANCH  18  19
HETATM   19  C20 UNL     1       3.445   1.255   2.172  1.00  0.00     0.000 C 
BRANCH  19  20
HETATM   20  C21 UNL     1       2.511   1.215   0.959  1.00  0.00     0.000 C 
BRANCH  20  21
HETATM   21  C22 UNL     1       2.198  -0.204   0.475  1.00  0.00     0.000 C 
BRANCH  21  22
HETATM   22  C23 UNL     1       1.265  -0.966   1.420  1.00  0.00     0.000 C 
BRANCH  22  23
HETATM   23  C24 UNL     1       0.715  -2.261   0.813  1.00  0.00     0.000 C 
BRANCH  23  24
HETATM   24  C25 UNL     1       1.764  -3.288   0.376  1.00  0.00     0.002 C 
BRANCH  24  25
HETATM   25  C26 UNL     1       2.655  -3.772   1.521  1.00  0.00     0.020 C 
BRANCH  25  26
HETATM   26  C27 UNL     1       3.610  -4.866   1.054  1.00  0.00     0.123 C 
BRANCH  26  27
HETATM   27  N5  UNL     1       4.453  -5.325   2.139  1.00  0.00    -0.353 N 
HETATM   28  C28 UNL     1       5.606  -6.069   1.887  1.00  0.00     0.325 C 
HETATM   29  O9  UNL     1       6.025  -6.251   0.743  1.00  0.00    -0.263 OA
HETATM   30  H49 UNL     1       4.047  -5.412   3.067  1.00  0.00     0.162 HD
BRANCH  28  31
HETATM   31  C29 UNL     1       6.308  -6.611   3.152  1.00  0.00     0.472 C 
HETATM   32  F1  UNL     1       7.469  -5.957   3.427  1.00  0.00    -0.162 F 
HETATM   33  F2  UNL     1       6.611  -7.935   3.063  1.00  0.00    -0.162 F 
HETATM   34  F3  UNL     1       5.521  -6.475   4.262  1.00  0.00    -0.162 F 
ENDBRANCH  28  31
ENDBRANCH  26  27
ENDBRANCH  25  26
ENDBRANCH  24  25
ENDBRANCH  23  24
ENDBRANCH  22  23
ENDBRANCH  21  22
ENDBRANCH  20  21
ENDBRANCH  19  20
ENDBRANCH  18  19
ENDBRANCH  17  18
ENDBRANCH  16  17
ENDBRANCH  15  16
ENDBRANCH  13  15
ENDBRANCH  10  11
ENDBRANCH   2  10
BRANCH   7  35
HETATM   35  C9  UNL     1      -1.495   3.194  -0.888  1.00  0.00     0.257 A 
HETATM   36  C8  UNL     1      -1.436   2.112   0.126  1.00  0.00     0.025 A 
HETATM   37  C7  UNL     1      -2.019   1.016  -0.358  1.00  0.00     0.007 A 
HETATM   38  C6  UNL     1      -2.497   1.267  -1.752  1.00  0.00     0.171 A 
HETATM   39  O5  UNL     1      -2.201   2.659  -2.018  1.00  0.00    -0.352 OA
BRANCH  38  40
HETATM   40  C5  UNL     1      -3.998   1.031  -1.926  1.00  0.00     0.215 C 
BRANCH  40  41
HETATM   41  O4  UNL     1      -4.299  -0.348  -1.778  1.00  0.00    -0.299 OA
BRANCH  41  42
HETATM   42  P1  UNL     1      -5.856  -0.770  -1.762  1.00  0.00     0.413 P 
HETATM   43  O3  UNL     1      -6.670   0.040  -2.726  1.00  0.00    -0.239 OA
BRANCH  42  44
HETATM   44  O10 UNL     1      -5.803  -2.342  -2.092  1.00  0.00    -0.260 OA
BRANCH  44  45
HETATM   45  C30 UNL     1      -5.362  -2.899  -3.257  1.00  0.00     0.080 A 
HETATM   46  C31 UNL     1      -5.329  -4.295  -3.285  1.00  0.00     0.037 A 
HETATM   47  C32 UNL     1      -4.884  -4.966  -4.424  1.00  0.00     0.003 A 
HETATM   48  C33 UNL     1      -4.475  -4.240  -5.541  1.00  0.00     0.000 A 
HETATM   49  C34 UNL     1      -4.515  -2.846  -5.517  1.00  0.00     0.003 A 
HETATM   50  C35 UNL     1      -4.959  -2.174  -4.375  1.00  0.00     0.037 A 
ENDBRANCH  44  45
ENDBRANCH  42  44
BRANCH  42  51
HETATM   51  N1  UNL     1      -6.343  -0.627  -0.206  1.00  0.00    -0.213 NA
HETATM   52  H46 UNL     1      -6.758   0.280  -0.034  1.00  0.00     0.134 HD
BRANCH  51  53
HETATM   53  C2  UNL     1      -5.447  -0.991   0.896  1.00  0.00     0.162 C 
HETATM   54  C1  UNL     1      -6.184  -0.859   2.226  1.00  0.00     0.037 C 
BRANCH  53  55
HETATM   55  C3  UNL     1      -4.926  -2.426   0.745  1.00  0.00     0.276 C 
HETATM   56  O1  UNL     1      -5.589  -3.440   0.920  1.00  0.00    -0.263 OA
BRANCH  55  57
HETATM   57  O2  UNL     1      -3.612  -2.404   0.379  1.00  0.00    -0.325 OA
HETATM   58  C4  UNL     1      -3.051  -3.696   0.146  1.00  0.00     0.213 C 
ENDBRANCH  55  57
ENDBRANCH  53  55
ENDBRANCH  51  53
ENDBRANCH  42  51
ENDBRANCH  41  42
ENDBRANCH  40  41
ENDBRANCH  38  40
ENDBRANCH   7  35
TORSDOF 26
