REMARK  19 active torsions:
REMARK  status: ('A' for Active; 'I' for Inactive)
REMARK    1  A    between atoms: C4_4  and  N1_69 
REMARK    2  A    between atoms: C7_7  and  C8_8 
REMARK       I    between atoms: C7_7  and  N1_69 
REMARK    3  A    between atoms: C11_11  and  C14_14 
REMARK    4  A    between atoms: C14_14  and  N2_70 
REMARK    5  A    between atoms: C14_14  and  O8_84 
REMARK    6  A    between atoms: C15_15  and  N2_70 
REMARK    7  A    between atoms: C17_17  and  N3_71 
REMARK    8  A    between atoms: C21_21  and  C22_22 
REMARK       I    between atoms: C21_21  and  N3_71 
REMARK    9  A    between atoms: C25_25  and  C28_28 
REMARK       I    between atoms: C28_28  and  N4_72 
REMARK   10  A    between atoms: C29_29  and  N4_72 
REMARK   11  A    between atoms: C33_33  and  C35_35 
REMARK   12  A    between atoms: C40_40  and  N5_73 
REMARK   13  A    between atoms: C41_41  and  C42_42 
REMARK       I    between atoms: C41_41  and  N5_73 
REMARK   14  A    between atoms: C45_45  and  C48_48 
REMARK       I    between atoms: C48_48  and  N6_74 
REMARK   15  A    between atoms: C49_49  and  N6_74 
REMARK   16  A    between atoms: C52_52  and  N7_75 
REMARK   17  A    between atoms: C55_55  and  C56_56 
REMARK       I    between atoms: C55_55  and  N7_75 
REMARK   18  A    between atoms: C59_59  and  C62_62 
REMARK       I    between atoms: C62_62  and  N8_76 
REMARK   19  A    between atoms: C63_63  and  N8_76 
ROOT
HETATM    1  C29 UNL     1       1.532  -3.729  -3.767  1.00  0.00     0.035 A 
HETATM    2  C30 UNL     1       0.631  -3.148  -4.668  1.00  0.00     0.029 A 
HETATM    3  C31 UNL     1      -0.621  -3.720  -4.889  1.00  0.00     0.003 A 
HETATM    4  C32 UNL     1      -0.989  -4.876  -4.203  1.00  0.00     0.012 A 
HETATM    5  C33 UNL     1      -0.117  -5.469  -3.275  1.00  0.00    -0.021 A 
HETATM    6  C34 UNL     1       1.150  -4.883  -3.079  1.00  0.00     0.042 A 
ENDROOT
BRANCH   5   7
HETATM    7  C35 UNL     1      -0.505  -6.701  -2.555  1.00  0.00     0.001 A 
HETATM    8  C36 UNL     1       0.287  -7.853  -2.760  1.00  0.00     0.014 A 
HETATM    9  C37 UNL     1      -0.078  -9.099  -2.249  1.00  0.00     0.001 A 
HETATM   10  C38 UNL     1      -1.259  -9.229  -1.532  1.00  0.00     0.002 A 
HETATM   11  C39 UNL     1      -2.056  -8.109  -1.303  1.00  0.00     0.030 A 
HETATM   12  C40 UNL     1      -1.675  -6.838  -1.770  1.00  0.00     0.046 A 
BRANCH  12  13
HETATM   13  N5  UNL     1      -2.555  -5.778  -1.437  1.00  0.00    -0.322 N 
HETATM   14  C41 UNL     1      -2.160  -4.502  -1.072  1.00  0.00     0.256 C 
HETATM   15  O4  UNL     1      -1.018  -4.141  -0.819  1.00  0.00    -0.267 OA
HETATM   16  H48 UNL     1      -3.468  -6.053  -1.101  1.00  0.00     0.169 HD
BRANCH  14  17
HETATM   17  C42 UNL     1      -3.277  -3.531  -0.880  1.00  0.00     0.032 A 
HETATM   18  C43 UNL     1      -4.482  -3.643  -1.590  1.00  0.00     0.018 A 
HETATM   19  C44 UNL     1      -5.503  -2.705  -1.395  1.00  0.00     0.018 A 
HETATM   20  C45 UNL     1      -5.324  -1.649  -0.491  1.00  0.00     0.032 A 
HETATM   21  C46 UNL     1      -4.109  -1.519   0.193  1.00  0.00     0.018 A 
HETATM   22  C47 UNL     1      -3.091  -2.457  -0.000  1.00  0.00     0.018 A 
BRANCH  20  23
HETATM   23  C48 UNL     1      -6.381  -0.622  -0.267  1.00  0.00     0.256 C 
HETATM   24  N6  UNL     1      -7.675  -1.112  -0.271  1.00  0.00    -0.323 N 
HETATM   25  H49 UNL     1      -7.786  -2.116  -0.304  1.00  0.00     0.169 HD
HETATM   26  O5  UNL     1      -6.029   0.533  -0.068  1.00  0.00    -0.267 OA
BRANCH  24  27
HETATM   27  C49 UNL     1      -8.867  -0.370  -0.134  1.00  0.00     0.035 A 
HETATM   28  C50 UNL     1      -8.921   1.021  -0.077  1.00  0.00     0.032 A 
HETATM   29  C51 UNL     1     -10.150   1.687   0.050  1.00  0.00     0.032 A 
HETATM   30  C52 UNL     1     -11.344   0.973   0.120  1.00  0.00     0.035 A 
HETATM   31  C53 UNL     1     -11.291  -0.424   0.065  1.00  0.00     0.032 A 
HETATM   32  C54 UNL     1     -10.065  -1.088  -0.065  1.00  0.00     0.032 A 
BRANCH  30  33
HETATM   33  N7  UNL     1     -12.616   1.568   0.258  1.00  0.00    -0.323 N 
HETATM   34  C55 UNL     1     -12.913   2.919   0.241  1.00  0.00     0.256 C 
HETATM   35  O6  UNL     1     -12.138   3.842   0.027  1.00  0.00    -0.267 OA
HETATM   36  H50 UNL     1     -13.396   0.926   0.302  1.00  0.00     0.169 HD
BRANCH  34  37
HETATM   37  C56 UNL     1     -14.350   3.246   0.469  1.00  0.00     0.032 A 
HETATM   38  C57 UNL     1     -15.136   2.522   1.376  1.00  0.00     0.018 A 
HETATM   39  C58 UNL     1     -16.479   2.866   1.571  1.00  0.00     0.018 A 
HETATM   40  C59 UNL     1     -17.041   3.936   0.859  1.00  0.00     0.032 A 
HETATM   41  C60 UNL     1     -16.244   4.679  -0.020  1.00  0.00     0.018 A 
HETATM   42  C61 UNL     1     -14.904   4.336  -0.215  1.00  0.00     0.018 A 
BRANCH  40  43
HETATM   43  C62 UNL     1     -18.465   4.341   1.046  1.00  0.00     0.256 C 
HETATM   44  N8  UNL     1     -19.346   3.293   1.244  1.00  0.00    -0.323 N 
HETATM   45  H51 UNL     1     -18.982   2.357   1.135  1.00  0.00     0.169 HD
HETATM   46  O7  UNL     1     -18.738   5.533   0.977  1.00  0.00    -0.267 OA
BRANCH  44  47
HETATM   47  C63 UNL     1     -20.733   3.378   1.490  1.00  0.00     0.035 A 
HETATM   48  C64 UNL     1     -21.443   2.173   1.574  1.00  0.00     0.029 A 
HETATM   49  C65 UNL     1     -22.818   2.170   1.822  1.00  0.00     0.002 A 
HETATM   50  C66 UNL     1     -23.497   3.373   1.990  1.00  0.00     0.000 A 
HETATM   51  C67 UNL     1     -22.800   4.576   1.912  1.00  0.00     0.002 A 
HETATM   52  C68 UNL     1     -21.423   4.579   1.665  1.00  0.00     0.029 A 
ENDBRANCH  44  47
ENDBRANCH  40  43
ENDBRANCH  34  37
ENDBRANCH  30  33
ENDBRANCH  24  27
ENDBRANCH  20  23
ENDBRANCH  14  17
ENDBRANCH  12  13
ENDBRANCH   5   7
BRANCH   1  53
HETATM   53  N4  UNL     1       2.784  -3.093  -3.614  1.00  0.00    -0.323 N 
HETATM   54  C28 UNL     1       3.845  -3.503  -2.828  1.00  0.00     0.256 C 
HETATM   55  O3  UNL     1       3.902  -4.499  -2.117  1.00  0.00    -0.267 OA
HETATM   56  H47 UNL     1       2.882  -2.215  -4.105  1.00  0.00     0.169 HD
BRANCH  54  57
HETATM   57  C25 UNL     1       5.032  -2.600  -2.853  1.00  0.00     0.032 A 
HETATM   58  C24 UNL     1       5.783  -2.459  -1.677  1.00  0.00     0.018 A 
HETATM   59  C23 UNL     1       6.905  -1.625  -1.649  1.00  0.00     0.018 A 
HETATM   60  C22 UNL     1       7.282  -0.922  -2.801  1.00  0.00     0.032 A 
HETATM   61  C27 UNL     1       6.553  -1.092  -3.986  1.00  0.00     0.018 A 
HETATM   62  C26 UNL     1       5.432  -1.928  -4.015  1.00  0.00     0.018 A 
BRANCH  60  63
HETATM   63  C21 UNL     1       8.470  -0.020  -2.821  1.00  0.00     0.256 C 
HETATM   64  N3  UNL     1       8.698   0.670  -1.644  1.00  0.00    -0.323 N 
HETATM   65  H46 UNL     1       7.995   0.593  -0.922  1.00  0.00     0.169 HD
HETATM   66  O2  UNL     1       9.109   0.067  -3.863  1.00  0.00    -0.267 OA
BRANCH  64  67
HETATM   67  C17 UNL     1       9.763   1.555  -1.364  1.00  0.00     0.037 A 
HETATM   68  C16 UNL     1       9.737   2.222  -0.128  1.00  0.00     0.058 A 
HETATM   69  C15 UNL     1      10.755   3.110   0.268  1.00  0.00     0.032 A 
HETATM   70  C20 UNL     1      11.778   3.359  -0.648  1.00  0.00     0.029 A 
HETATM   71  C19 UNL     1      11.824   2.697  -1.878  1.00  0.00     0.004 A 
HETATM   72  C18 UNL     1      10.823   1.793  -2.232  1.00  0.00     0.029 A 
BRANCH  69  73
HETATM   73  N2  UNL     1      10.605   3.783   1.483  1.00  0.00    -0.360 N 
HETATM   74  H45 UNL     1      10.082   3.225   2.151  1.00  0.00     0.162 HD
BRANCH  73  75
HETATM   75  C14 UNL     1      11.658   4.529   2.146  1.00  0.00     0.252 C 
BRANCH  75  76
HETATM   76  C11 UNL     1      12.900   3.716   2.466  1.00  0.00    -0.010 A 
HETATM   77  C10 UNL     1      12.794   2.496   3.156  1.00  0.00     0.012 A 
HETATM   78  C9  UNL     1      13.934   1.752   3.477  1.00  0.00     0.018 A 
HETATM   79  C8  UNL     1      15.204   2.222   3.129  1.00  0.00     0.032 A 
HETATM   80  C13 UNL     1      15.326   3.431   2.435  1.00  0.00     0.018 A 
HETATM   81  C12 UNL     1      14.183   4.173   2.118  1.00  0.00     0.012 A 
BRANCH  79  82
HETATM   82  C7  UNL     1      16.392   1.397   3.494  1.00  0.00     0.256 C 
HETATM   83  N1  UNL     1      17.526   2.121   3.818  1.00  0.00    -0.323 N 
HETATM   84  H44 UNL     1      17.426   3.124   3.886  1.00  0.00     0.169 HD
HETATM   85  O1  UNL     1      16.266   0.179   3.515  1.00  0.00    -0.267 OA
BRANCH  83  86
HETATM   86  C4  UNL     1      18.797   1.613   4.160  1.00  0.00     0.035 A 
HETATM   87  C3  UNL     1      19.131   0.258   4.131  1.00  0.00     0.029 A 
HETATM   88  C2  UNL     1      20.419  -0.163   4.479  1.00  0.00     0.002 A 
HETATM   89  C1  UNL     1      21.385   0.768   4.855  1.00  0.00     0.000 A 
HETATM   90  C6  UNL     1      21.064   2.122   4.883  1.00  0.00     0.002 A 
HETATM   91  C5  UNL     1      19.777   2.542   4.536  1.00  0.00     0.029 A 
ENDBRANCH  83  86
ENDBRANCH  79  82
ENDBRANCH  75  76
BRANCH  75  92
HETATM   92  O8  UNL     1      11.915   5.680   1.373  1.00  0.00    -0.373 OA
HETATM   93  H52 UNL     1      11.122   5.717   0.810  1.00  0.00     0.212 HD
ENDBRANCH  75  92
ENDBRANCH  73  75
ENDBRANCH  69  73
ENDBRANCH  64  67
ENDBRANCH  60  63
ENDBRANCH  54  57
ENDBRANCH   1  53
TORSDOF 19
