REMARK  21 active torsions:
REMARK  status: ('A' for Active; 'I' for Inactive)
REMARK    1  A    between atoms: C2_2  and  O1_38 
REMARK    2  A    between atoms: C7_7  and  N3_45 
REMARK    3  A    between atoms: C8_8  and  N3_45 
REMARK    4  A    between atoms: C17_17  and  O2_39 
REMARK    5  A    between atoms: C18_18  and  C19_19 
REMARK    6  A    between atoms: C18_18  and  O2_39 
REMARK    7  A    between atoms: C19_19  and  S1_51 
REMARK    8  A    between atoms: C20_20  and  C21_21 
REMARK    9  A    between atoms: C20_20  and  S1_51 
REMARK       I    between atoms: C21_21  and  N4_46 
REMARK   10  A    between atoms: C22_22  and  C23_23 
REMARK   11  A    between atoms: C22_22  and  N4_46 
REMARK   12  A    between atoms: C23_23  and  C24_24 
REMARK   13  A    between atoms: C24_24  and  C25_25 
REMARK   14  A    between atoms: C25_25  and  C26_26 
REMARK   15  A    between atoms: C26_26  and  C27_27 
REMARK   16  A    between atoms: C27_27  and  N5_47 
REMARK   17  A    between atoms: C28_28  and  C29_29 
REMARK       I    between atoms: C28_28  and  N5_47 
REMARK   18  A    between atoms: C29_29  and  C30_30 
REMARK   19  A    between atoms: C30_30  and  C31_31 
REMARK   20  A    between atoms: C31_31  and  C32_32 
REMARK   21  A    between atoms: C32_32  and  C33_33 
ROOT
HETATM    1  C20 UNL     1       1.251   3.429  -3.119  1.00  0.00     0.176 C 
ENDROOT
BRANCH   1   2
HETATM    2  C21 UNL     1      -0.173   3.412  -2.587  1.00  0.00     0.226 C 
HETATM    3  O3  UNL     1      -0.994   4.286  -2.858  1.00  0.00    -0.273 OA
HETATM    4  N4  UNL     1      -0.469   2.335  -1.777  1.00  0.00    -0.360 N 
HETATM    5  H45 UNL     1       0.285   1.705  -1.500  1.00  0.00     0.162 HD
BRANCH   4   6
HETATM    6  C22 UNL     1      -1.771   2.166  -1.170  1.00  0.00     0.122 C 
BRANCH   6   7
HETATM    7  C23 UNL     1      -1.921   2.934   0.141  1.00  0.00     0.020 C 
BRANCH   7   8
HETATM    8  C24 UNL     1      -1.042   2.449   1.300  1.00  0.00     0.002 C 
BRANCH   8   9
HETATM    9  C25 UNL     1      -1.442   1.085   1.878  1.00  0.00     0.002 C 
BRANCH   9  10
HETATM   10  C26 UNL     1      -0.596  -0.069   1.330  1.00  0.00     0.020 C 
BRANCH  10  11
HETATM   11  C27 UNL     1      -0.948  -1.418   1.959  1.00  0.00     0.122 C 
BRANCH  11  12
HETATM   12  N5  UNL     1      -2.316  -1.817   1.699  1.00  0.00    -0.361 N 
HETATM   13  C28 UNL     1      -2.710  -2.358   0.497  1.00  0.00     0.217 C 
HETATM   14  O4  UNL     1      -1.944  -2.595  -0.432  1.00  0.00    -0.274 OA
HETATM   15  H46 UNL     1      -3.015  -1.606   2.399  1.00  0.00     0.162 HD
BRANCH  13  16
HETATM   16  C29 UNL     1      -4.199  -2.621   0.398  1.00  0.00     0.103 C 
BRANCH  16  17
HETATM   17  C30 UNL     1      -5.013  -1.330   0.300  1.00  0.00     0.009 C 
BRANCH  17  18
HETATM   18  C31 UNL     1      -4.799  -0.608  -1.035  1.00  0.00     0.002 C 
BRANCH  18  19
HETATM   19  C32 UNL     1      -5.471   0.769  -1.091  1.00  0.00     0.017 C 
BRANCH  19  20
HETATM   20  C33 UNL     1      -7.002   0.744  -1.000  1.00  0.00     0.072 C 
HETATM   21  C34 UNL     1      -7.678   0.048  -2.197  1.00  0.00     0.123 C 
HETATM   22  C35 UNL     1      -9.069   0.664  -2.384  1.00  0.00     0.119 C 
HETATM   23  N7  UNL     1      -8.025  -1.325  -1.887  1.00  0.00    -0.335 N 
HETATM   24  C36 UNL     1      -9.028   2.153  -2.099  1.00  0.00     0.101 C 
HETATM   25  N6  UNL     1      -9.887  -0.141  -1.502  1.00  0.00    -0.336 N 
HETATM   26  S2  UNL     1      -7.646   2.451  -0.969  1.00  0.00    -0.160 SA
HETATM   27  C37 UNL     1      -9.309  -1.396  -1.370  1.00  0.00     0.316 C 
HETATM   28  H47 UNL     1     -10.896  -0.090  -1.436  1.00  0.00     0.164 HD
HETATM   29  O5  UNL     1      -9.836  -2.385  -0.899  1.00  0.00    -0.247 OA
HETATM   30  H48 UNL     1      -7.392  -2.107  -1.787  1.00  0.00     0.164 HD
ENDBRANCH  19  20
ENDBRANCH  18  19
ENDBRANCH  17  18
ENDBRANCH  16  17
ENDBRANCH  13  16
ENDBRANCH  11  12
ENDBRANCH  10  11
ENDBRANCH   9  10
ENDBRANCH   8   9
ENDBRANCH   7   8
ENDBRANCH   6   7
ENDBRANCH   4   6
ENDBRANCH   1   2
BRANCH   1  31
HETATM   31  S1  UNL     1       2.228   4.804  -2.427  1.00  0.00    -0.158 SA
BRANCH  31  32
HETATM   32  C19 UNL     1       2.089   4.471  -0.633  1.00  0.00     0.101 C 
BRANCH  32  33
HETATM   33  C18 UNL     1       2.937   3.292  -0.155  1.00  0.00     0.186 C 
BRANCH  33  34
HETATM   34  O2  UNL     1       2.355   2.059  -0.578  1.00  0.00    -0.347 OA
BRANCH  34  35
HETATM   35  C17 UNL     1       3.009   0.886  -0.252  1.00  0.00     0.102 A 
HETATM   36  C2  UNL     1       2.393  -0.324  -0.878  1.00  0.00     0.102 A 
HETATM   37  C3  UNL     1       2.885  -1.566  -0.650  1.00  0.00     0.053 A 
HETATM   38  C4  UNL     1       4.033  -1.707   0.206  1.00  0.00     0.000 A 
HETATM   39  C5  UNL     1       4.704  -2.781   0.624  1.00  0.00     0.047 A 
HETATM   40  C15 UNL     1       4.656  -0.512   0.818  1.00  0.00    -0.020 A 
HETATM   41  C6  UNL     1       5.799  -2.291   1.447  1.00  0.00     0.022 A 
HETATM   42  N2  UNL     1       4.800  -4.142   0.559  1.00  0.00    -0.220 NA
HETATM   43  C7  UNL     1       6.558  -3.340   1.828  1.00  0.00     0.086 A 
HETATM   44  C14 UNL     1       5.710  -0.865   1.581  1.00  0.00     0.028 A 
HETATM   45  N1  UNL     1       5.980  -4.502   1.241  1.00  0.00    -0.211 NA
HETATM   46  H42 UNL     1       5.850  -5.223   1.954  1.00  0.00     0.148 HD
HETATM   47  H43 UNL     1       4.692  -4.503  -0.390  1.00  0.00     0.147 HD
HETATM   48  C16 UNL     1       4.095   0.791   0.555  1.00  0.00     0.052 A 
BRANCH  36  49
HETATM   49  O1  UNL     1       1.303  -0.029  -1.676  1.00  0.00    -0.353 OA
HETATM   50  C1  UNL     1       0.643  -1.116  -2.320  1.00  0.00     0.210 C 
ENDBRANCH  36  49
BRANCH  43  51
HETATM   51  N3  UNL     1       7.658  -3.375   2.652  1.00  0.00    -0.248 NA
HETATM   52  H44 UNL     1       8.089  -4.296   2.616  1.00  0.00     0.135 HD
BRANCH  51  53
HETATM   53  C8  UNL     1       8.669  -2.386   2.700  1.00  0.00     0.016 A 
HETATM   54  C9  UNL     1       9.364  -2.202   3.900  1.00  0.00     0.066 A 
HETATM   55  C10 UNL     1      10.412  -1.290   3.968  1.00  0.00     0.118 A 
HETATM   56  C11 UNL     1      10.809  -0.566   2.851  1.00  0.00     0.042 A 
HETATM   57  F1  UNL     1      11.055  -1.111   5.130  1.00  0.00    -0.206 F 
HETATM   58  C12 UNL     1      10.150  -0.766   1.640  1.00  0.00     0.005 A 
HETATM   59  C13 UNL     1       9.095  -1.681   1.564  1.00  0.00     0.024 A 
ENDBRANCH  51  53
ENDBRANCH  43  51
ENDBRANCH  34  35
ENDBRANCH  33  34
ENDBRANCH  32  33
ENDBRANCH  31  32
ENDBRANCH   1  31
TORSDOF 21
