REMARK  18 active torsions:
REMARK  status: ('A' for Active; 'I' for Inactive)
REMARK    1  A    between atoms: C3_3  and  O15_67 
REMARK    2  A    between atoms: C4_4  and  N1_68 
REMARK    3  A    between atoms: C6_6  and  O2_54 
REMARK    4  A    between atoms: C7_7  and  O2_54 
REMARK    5  A    between atoms: C9_9  and  C26_26 
REMARK    6  A    between atoms: C9_9  and  O9_61 
REMARK    7  A    between atoms: C13_13  and  O7_59 
REMARK    8  A    between atoms: C16_16  and  O3_55 
REMARK    9  A    between atoms: C21_21  and  O6_58 
REMARK   10  A    between atoms: C28_28  and  C29_29 
REMARK   11  A    between atoms: C28_28  and  N1_68 
REMARK   12  A    between atoms: C32_32  and  N2_69 
REMARK   13  A    between atoms: C35_35  and  C36_36 
REMARK       I    between atoms: C35_35  and  N2_69 
REMARK   14  A    between atoms: C38_38  and  N4_71 
REMARK   15  A    between atoms: C41_41  and  C42_42 
REMARK       I    between atoms: C41_41  and  N4_71 
REMARK   16  A    between atoms: C44_44  and  N6_73 
REMARK   17  A    between atoms: C47_47  and  C48_48 
REMARK       I    between atoms: C47_47  and  N6_73 
REMARK   18  A    between atoms: C50_50  and  N8_75 
ROOT
HETATM    1  N1  UNL     1      -3.611  -2.986  -4.804  1.00  0.00     0.095 N 
HETATM    2  H49 UNL     1      -2.807  -3.427  -5.258  1.00  0.00     0.316 HD
ENDROOT
BRANCH   1   3
HETATM    3  C4  UNL     1      -3.632  -3.430  -3.386  1.00  0.00     0.256 C 
HETATM    4  C3  UNL     1      -3.751  -4.980  -3.361  1.00  0.00     0.180 C 
HETATM    5  C2  UNL     1      -4.231  -5.516  -1.991  1.00  0.00     0.151 C 
HETATM    6  C1  UNL     1      -5.664  -6.046  -1.954  1.00  0.00     0.042 C 
HETATM    7  O1  UNL     1      -3.994  -4.571  -0.944  1.00  0.00    -0.354 OA
HETATM    8  C6  UNL     1      -4.617  -3.296  -1.103  1.00  0.00     0.263 C 
HETATM    9  C5  UNL     1      -4.782  -2.862  -2.563  1.00  0.00     0.099 C 
BRANCH   4  10
HETATM   10  O15 UNL     1      -4.603  -5.426  -4.426  1.00  0.00    -0.391 OA
HETATM   11  H48 UNL     1      -4.653  -4.665  -5.041  1.00  0.00     0.210 HD
ENDBRANCH   4  10
BRANCH   8  12
HETATM   12  O2  UNL     1      -5.890  -3.235  -0.470  1.00  0.00    -0.351 OA
BRANCH  12  13
HETATM   13  C7  UNL     1      -5.798  -3.170   0.963  1.00  0.00     0.164 C 
HETATM   14  C8  UNL     1      -6.219  -4.549   1.483  1.00  0.00     0.083 C 
HETATM   15  C9  UNL     1      -6.822  -4.537   2.883  1.00  0.00     0.124 C 
HETATM   16  C10 UNL     1      -8.020  -3.580   2.904  1.00  0.00     0.088 C 
HETATM   17  C11 UNL     1      -7.725  -2.211   2.341  1.00  0.00    -0.009 A 
HETATM   18  C12 UNL     1      -6.670  -2.011   1.429  1.00  0.00     0.014 A 
HETATM   19  C16 UNL     1      -8.534  -1.122   2.710  1.00  0.00     0.088 A 
HETATM   20  C13 UNL     1      -6.404  -0.697   0.987  1.00  0.00     0.090 A 
HETATM   21  C14 UNL     1      -7.211   0.393   1.371  1.00  0.00     0.066 A 
HETATM   22  C15 UNL     1      -8.285   0.172   2.225  1.00  0.00     0.066 A 
HETATM   23  C20 UNL     1      -6.923   1.761   0.876  1.00  0.00     0.200 A 
HETATM   24  C17 UNL     1      -9.144   1.298   2.626  1.00  0.00     0.197 A 
HETATM   25  C18 UNL     1      -8.882   2.652   2.108  1.00  0.00     0.032 A 
HETATM   26  O4  UNL     1     -10.083   1.096   3.393  1.00  0.00    -0.286 OA
HETATM   27  C19 UNL     1      -7.806   2.899   1.251  1.00  0.00     0.062 A 
HETATM   28  C24 UNL     1      -9.741   3.690   2.497  1.00  0.00     0.017 A 
HETATM   29  C21 UNL     1      -7.591   4.211   0.772  1.00  0.00     0.083 A 
HETATM   30  C22 UNL     1      -8.459   5.239   1.170  1.00  0.00     0.038 A 
HETATM   31  C23 UNL     1      -9.528   4.980   2.028  1.00  0.00     0.004 A 
HETATM   32  O5  UNL     1      -5.936   1.903   0.159  1.00  0.00    -0.286 OA
BRANCH  15  33
HETATM   33  C26 UNL     1      -5.787  -4.155   3.970  1.00  0.00     0.157 C 
HETATM   34  C27 UNL     1      -6.058  -4.621   5.380  1.00  0.00     0.094 C 
HETATM   35  O8  UNL     1      -4.788  -3.475   3.731  1.00  0.00    -0.295 OA
ENDBRANCH  15  33
BRANCH  15  36
HETATM   36  O9  UNL     1      -7.287  -5.875   3.133  1.00  0.00    -0.382 OA
HETATM   37  H47 UNL     1      -7.980  -5.848   3.814  1.00  0.00     0.211 HD
ENDBRANCH  15  36
BRANCH  20  38
HETATM   38  O7  UNL     1      -5.305  -0.514   0.178  1.00  0.00    -0.359 OA
HETATM   39  H46 UNL     1      -5.246   0.443  -0.049  1.00  0.00     0.217 HD
ENDBRANCH  20  38
BRANCH  29  40
HETATM   40  O6  UNL     1      -6.532   4.416  -0.070  1.00  0.00    -0.355 OA
HETATM   41  C25 UNL     1      -6.298   5.725  -0.570  1.00  0.00     0.210 C 
ENDBRANCH  29  40
BRANCH  19  42
HETATM   42  O3  UNL     1      -9.572  -1.387   3.570  1.00  0.00    -0.359 OA
HETATM   43  H45 UNL     1     -10.062  -0.549   3.739  1.00  0.00     0.217 HD
ENDBRANCH  19  42
ENDBRANCH  12  13
ENDBRANCH   8  12
ENDBRANCH   1   3
BRANCH   1  44
HETATM   44  C28 UNL     1      -3.484  -1.536  -4.992  1.00  0.00     0.308 C 
BRANCH  44  45
HETATM   45  C29 UNL     1      -2.190  -0.961  -4.466  1.00  0.00    -0.030 A 
HETATM   46  C30 UNL     1      -2.173  -0.192  -3.297  1.00  0.00     0.011 A 
HETATM   47  C31 UNL     1      -0.969   0.315  -2.798  1.00  0.00     0.030 A 
HETATM   48  C32 UNL     1       0.241   0.064  -3.455  1.00  0.00     0.035 A 
HETATM   49  C33 UNL     1       0.225  -0.692  -4.627  1.00  0.00     0.030 A 
HETATM   50  C34 UNL     1      -0.979  -1.202  -5.127  1.00  0.00     0.011 A 
BRANCH  48  51
HETATM   51  N2  UNL     1       1.406   0.616  -2.888  1.00  0.00    -0.322 N 
HETATM   52  C35 UNL     1       2.716   0.429  -3.288  1.00  0.00     0.273 C 
HETATM   53  O10 UNL     1       3.091  -0.343  -4.163  1.00  0.00    -0.266 OA
HETATM   54  H50 UNL     1       1.278   1.135  -2.030  1.00  0.00     0.169 HD
BRANCH  52  55
HETATM   55  C36 UNL     1       3.662   1.207  -2.508  1.00  0.00     0.105 A 
HETATM   56  C37 UNL     1       4.864   0.756  -1.980  1.00  0.00     0.066 A 
HETATM   57  C38 UNL     1       5.474   1.818  -1.271  1.00  0.00     0.053 A 
HETATM   58  C39 UNL     1       4.649   2.908  -1.408  1.00  0.00     0.120 A 
HETATM   59  N3  UNL     1       3.585   2.550  -2.197  1.00  0.00    -0.354 N 
HETATM   60  C40 UNL     1       2.600   3.492  -2.686  1.00  0.00     0.156 C 
BRANCH  57  61
HETATM   61  N4  UNL     1       6.671   1.730  -0.587  1.00  0.00    -0.320 N 
HETATM   62  C41 UNL     1       7.317   2.768   0.057  1.00  0.00     0.273 C 
HETATM   63  O11 UNL     1       6.963   3.942   0.046  1.00  0.00    -0.266 OA
HETATM   64  H51 UNL     1       7.146   0.840  -0.643  1.00  0.00     0.169 HD
BRANCH  62  65
HETATM   65  C42 UNL     1       8.538   2.351   0.727  1.00  0.00     0.105 A 
HETATM   66  C43 UNL     1       9.752   3.024   0.715  1.00  0.00     0.066 A 
HETATM   67  C44 UNL     1      10.690   2.279   1.469  1.00  0.00     0.053 A 
HETATM   68  C45 UNL     1      10.022   1.182   1.954  1.00  0.00     0.120 A 
HETATM   69  N5  UNL     1       8.712   1.256   1.550  1.00  0.00    -0.354 N 
HETATM   70  C46 UNL     1       7.680   0.357   2.022  1.00  0.00     0.156 C 
BRANCH  67  71
HETATM   71  N6  UNL     1      12.014   2.628   1.654  1.00  0.00    -0.320 N 
HETATM   72  C47 UNL     1      12.929   1.948   2.434  1.00  0.00     0.273 C 
HETATM   73  O12 UNL     1      12.688   0.974   3.137  1.00  0.00    -0.266 OA
HETATM   74  H52 UNL     1      12.298   3.507   1.246  1.00  0.00     0.169 HD
BRANCH  72  75
HETATM   75  C48 UNL     1      14.258   2.538   2.389  1.00  0.00     0.105 A 
HETATM   76  C49 UNL     1      15.078   2.808   3.478  1.00  0.00     0.073 A 
HETATM   77  C50 UNL     1      16.282   3.384   2.999  1.00  0.00     0.120 A 
HETATM   78  C51 UNL     1      16.188   3.421   1.621  1.00  0.00     0.127 A 
HETATM   79  N7  UNL     1      14.983   2.872   1.260  1.00  0.00    -0.354 N 
HETATM   80  C52 UNL     1      14.598   2.608  -0.112  1.00  0.00     0.156 C 
BRANCH  77  81
HETATM   81  N8  UNL     1      17.406   3.842   3.778  1.00  0.00    -0.114 N 
HETATM   82  O13 UNL     1      18.374   4.301   3.157  1.00  0.00    -0.532 OA
HETATM   83  O14 UNL     1      17.311   3.743   5.008  1.00  0.00    -0.532 OA
ENDBRANCH  77  81
ENDBRANCH  72  75
ENDBRANCH  67  71
ENDBRANCH  62  65
ENDBRANCH  57  61
ENDBRANCH  52  55
ENDBRANCH  48  51
ENDBRANCH  44  45
ENDBRANCH   1  44
TORSDOF 18
