REMARK  16 active torsions:
REMARK  status: ('A' for Active; 'I' for Inactive)
REMARK    1  A    between atoms: C3_3  and  O2_66 
REMARK    2  A    between atoms: C6_6  and  C7_7 
REMARK    3  A    between atoms: C7_7  and  O1_65 
REMARK    4  A    between atoms: C8_8  and  O2_66 
REMARK    5  A    between atoms: C22_22  and  O5_69 
REMARK    6  A    between atoms: C33_33  and  O3_67 
REMARK    7  A    between atoms: C35_35  and  O3_67 
REMARK    8  A    between atoms: C38_38  and  C41_41 
REMARK    9  A    between atoms: C41_41  and  O4_68 
REMARK   10  A    between atoms: C45_45  and  O5_69 
REMARK   11  A    between atoms: C48_48  and  C51_51 
REMARK   12  A    between atoms: C51_51  and  O6_70 
REMARK   13  A    between atoms: C55_55  and  O7_71 
REMARK   14  A    between atoms: C58_58  and  O7_71 
REMARK   15  A    between atoms: C61_61  and  C64_64 
REMARK   16  A    between atoms: C64_64  and  O8_72 
ROOT
HETATM    1  C8  UNL     1       4.058   5.045   1.038  1.00  0.00     0.077 A 
HETATM    2  C9  UNL     1       2.682   4.819   0.796  1.00  0.00     0.052 A 
HETATM    3  C10 UNL     1       2.459   3.487   0.451  1.00  0.00     0.006 A 
HETATM    4  C11 UNL     1       3.480   2.490   0.322  1.00  0.00     0.003 A 
HETATM    5  C12 UNL     1       4.842   2.711   0.520  1.00  0.00     0.017 A 
HETATM    6  C13 UNL     1       5.090   4.053   0.887  1.00  0.00     0.038 A 
HETATM    7  C14 UNL     1       2.870   1.310  -0.029  1.00  0.00     0.046 A 
HETATM    8  C15 UNL     1       3.549  -0.069  -0.330  1.00  0.00     0.060 C 
HETATM    9  C16 UNL     1       2.854  -1.221  -0.414  1.00  0.00     0.046 A 
HETATM   10  C17 UNL     1       1.289  -2.818  -0.452  1.00  0.00     0.046 A 
HETATM   11  C18 UNL     1       0.150  -3.537  -0.414  1.00  0.00     0.060 C 
HETATM   12  C19 UNL     1      -1.249  -2.894  -0.129  1.00  0.00     0.046 A 
HETATM   13  C20 UNL     1      -2.423  -3.537   0.183  1.00  0.00     0.006 A 
HETATM   14  C21 UNL     1      -2.618  -4.907   0.344  1.00  0.00     0.052 A 
HETATM   15  C22 UNL     1      -3.961  -5.179   0.699  1.00  0.00     0.077 A 
HETATM   16  C23 UNL     1      -4.995  -4.185   0.815  1.00  0.00     0.038 A 
HETATM   17  C24 UNL     1      -4.778  -2.800   0.632  1.00  0.00     0.017 A 
HETATM   18  C25 UNL     1      -3.444  -2.540   0.321  1.00  0.00     0.003 A 
HETATM   19  C26 UNL     1      -2.867  -1.315   0.088  1.00  0.00     0.046 A 
HETATM   20  C27 UNL     1      -3.563   0.088   0.078  1.00  0.00     0.060 C 
HETATM   21  C28 UNL     1      -2.872   1.245   0.094  1.00  0.00     0.046 A 
HETATM   22  C29 UNL     1      -3.583   2.534   0.069  1.00  0.00     0.006 A 
HETATM   23  C30 UNL     1      -2.609   3.528   0.090  1.00  0.00     0.003 A 
HETATM   24  C31 UNL     1      -2.962   4.875   0.074  1.00  0.00     0.017 A 
HETATM   25  C32 UNL     1      -4.314   5.218   0.018  1.00  0.00     0.038 A 
HETATM   26  C33 UNL     1      -5.287   4.209  -0.030  1.00  0.00     0.077 A 
HETATM   27  C34 UNL     1      -4.933   2.860   0.021  1.00  0.00     0.052 A 
HETATM   28  C42 UNL     1      -1.307   2.842   0.127  1.00  0.00     0.046 A 
HETATM   29  C43 UNL     1      -0.164   3.557   0.149  1.00  0.00     0.060 C 
HETATM   30  C44 UNL     1       1.252   2.889   0.177  1.00  0.00     0.046 A 
HETATM   31  C52 UNL     1       2.573  -3.479  -0.737  1.00  0.00     0.003 A 
HETATM   32  C53 UNL     1       3.547  -2.485  -0.714  1.00  0.00     0.006 A 
HETATM   33  C54 UNL     1       4.881  -2.789  -0.959  1.00  0.00     0.052 A 
HETATM   34  C55 UNL     1       5.216  -4.111  -1.254  1.00  0.00     0.077 A 
HETATM   35  C56 UNL     1       4.246  -5.123  -1.253  1.00  0.00     0.038 A 
HETATM   36  C57 UNL     1       2.910  -4.805  -0.997  1.00  0.00     0.017 A 
HETATM   37  N1  UNL     1       1.523  -1.485  -0.273  1.00  0.00    -0.355 N 
ATOM     38  H1  UNL     1       0.808  -0.789  -0.064  1.00  0.00     0.166 HD
HETATM   39  N2  UNL     1      -1.523  -1.539  -0.144  1.00  0.00    -0.355 N 
HETATM   40  N3  UNL     1      -1.531   1.496   0.126  1.00  0.00    -0.355 N 
ATOM     41  H3  UNL     1      -0.803   0.782   0.146  1.00  0.00     0.166 HD
HETATM   42  N4  UNL     1       1.511   1.555  -0.075  1.00  0.00    -0.355 N 
HETATM   43  H45 UNL     1      -0.828  -0.809  -0.282  1.00  0.00     0.166 HD
HETATM   44  H46 UNL     1       0.799   0.849  -0.245  1.00  0.00     0.166 HD
ENDROOT
BRANCH   1  45
HETATM   45  O2  UNL     1       4.499   6.308   1.405  1.00  0.00    -0.311 OA
BRANCH  45  46
HETATM   46  C3  UNL     1       3.952   6.867   2.541  1.00  0.00     0.076 A 
HETATM   47  C2  UNL     1       3.884   8.260   2.566  1.00  0.00     0.038 A 
HETATM   48  C1  UNL     1       3.367   8.919   3.684  1.00  0.00     0.012 A 
HETATM   49  C6  UNL     1       2.914   8.188   4.791  1.00  0.00    -0.035 A 
HETATM   50  C5  UNL     1       3.012   6.790   4.770  1.00  0.00     0.012 A 
HETATM   51  C4  UNL     1       3.534   6.133   3.653  1.00  0.00     0.038 A 
BRANCH  49  52
HETATM   52  C7  UNL     1       2.373   8.901   6.000  1.00  0.00     0.202 C 
BRANCH  52  53
HETATM   53  O1  UNL     1       3.440   9.422   6.786  1.00  0.00    -0.396 OA
HETATM   54  H41 UNL     1       4.244   8.939   6.525  1.00  0.00     0.209 HD
ENDBRANCH  52  53
ENDBRANCH  49  52
ENDBRANCH  45  46
ENDBRANCH   1  45
BRANCH  34  55
HETATM   55  O7  UNL     1       6.537  -4.406  -1.505  1.00  0.00    -0.311 OA
BRANCH  55  56
HETATM   56  C58 UNL     1       6.850  -4.828  -2.780  1.00  0.00     0.076 A 
HETATM   57  C59 UNL     1       6.179  -4.409  -3.932  1.00  0.00     0.038 A 
HETATM   58  C60 UNL     1       6.588  -4.869  -5.187  1.00  0.00     0.012 A 
HETATM   59  C61 UNL     1       7.675  -5.746  -5.303  1.00  0.00    -0.035 A 
HETATM   60  C62 UNL     1       8.359  -6.139  -4.145  1.00  0.00     0.012 A 
HETATM   61  C63 UNL     1       7.950  -5.680  -2.891  1.00  0.00     0.038 A 
BRANCH  59  62
HETATM   62  C64 UNL     1       8.135  -6.222  -6.653  1.00  0.00     0.202 C 
BRANCH  62  63
HETATM   63  O8  UNL     1       9.293  -5.506  -7.066  1.00  0.00    -0.396 OA
HETATM   64  H44 UNL     1       9.322  -4.686  -6.540  1.00  0.00     0.209 HD
ENDBRANCH  62  63
ENDBRANCH  59  62
ENDBRANCH  55  56
ENDBRANCH  34  55
BRANCH  26  65
HETATM   65  O3  UNL     1      -6.625   4.528  -0.086  1.00  0.00    -0.311 OA
BRANCH  65  66
HETATM   66  C35 UNL     1      -7.074   5.137  -1.239  1.00  0.00     0.076 A 
HETATM   67  C36 UNL     1      -6.537   4.905  -2.508  1.00  0.00     0.038 A 
HETATM   68  C37 UNL     1      -7.078   5.547  -3.625  1.00  0.00     0.012 A 
HETATM   69  C38 UNL     1      -8.164   6.422  -3.486  1.00  0.00    -0.035 A 
HETATM   70  C39 UNL     1      -8.713   6.628  -2.212  1.00  0.00     0.012 A 
HETATM   71  C40 UNL     1      -8.172   5.986  -1.097  1.00  0.00     0.038 A 
BRANCH  69  72
HETATM   72  C41 UNL     1      -8.766   7.095  -4.688  1.00  0.00     0.202 C 
BRANCH  72  73
HETATM   73  O4  UNL     1      -9.968   6.440  -5.075  1.00  0.00    -0.396 OA
HETATM   74  H42 UNL     1      -9.946   5.550  -4.682  1.00  0.00     0.209 HD
ENDBRANCH  72  73
ENDBRANCH  69  72
ENDBRANCH  65  66
ENDBRANCH  26  65
BRANCH  15  75
HETATM   75  O5  UNL     1      -4.369  -6.487   0.916  1.00  0.00    -0.311 OA
BRANCH  75  76
HETATM   76  C45 UNL     1      -3.706  -7.207   1.886  1.00  0.00     0.076 A 
HETATM   77  C46 UNL     1      -3.161  -6.647   3.044  1.00  0.00     0.038 A 
HETATM   78  C47 UNL     1      -2.526  -7.462   3.984  1.00  0.00     0.012 A 
HETATM   79  C48 UNL     1      -2.438  -8.846   3.782  1.00  0.00    -0.035 A 
HETATM   80  C49 UNL     1      -3.016  -9.404   2.633  1.00  0.00     0.012 A 
HETATM   81  C50 UNL     1      -3.647  -8.588   1.692  1.00  0.00     0.038 A 
BRANCH  79  82
HETATM   82  C51 UNL     1      -1.773  -9.729   4.801  1.00  0.00     0.202 C 
BRANCH  82  83
HETATM   83  O6  UNL     1      -2.751 -10.373   5.611  1.00  0.00    -0.396 OA
HETATM   84  H43 UNL     1      -3.575  -9.863   5.517  1.00  0.00     0.209 HD
ENDBRANCH  82  83
ENDBRANCH  79  82
ENDBRANCH  75  76
ENDBRANCH  15  75
TORSDOF 16
