REMARK  20 active torsions:
REMARK  status: ('A' for Active; 'I' for Inactive)
REMARK    1  A    between atoms: C2_2  and  C3_3 
REMARK    2  A    between atoms: C2_2  and  N1_53 
REMARK    3  A    between atoms: C6_6  and  N3_56 
REMARK    4  A    between atoms: C9_9  and  C10_10 
REMARK    5  A    between atoms: C9_9  and  N3_56 
REMARK    6  A    between atoms: C13_13  and  N5_59 
REMARK    7  A    between atoms: C16_16  and  C17_17 
REMARK    8  A    between atoms: C16_16  and  N5_59 
REMARK    9  A    between atoms: C20_20  and  N7_62 
REMARK   10  A    between atoms: C23_23  and  C24_24 
REMARK       I    between atoms: C23_23  and  N7_62 
REMARK   11  A    between atoms: C26_26  and  C30_30 
REMARK       I    between atoms: C30_30  and  N8_63 
REMARK   12  A    between atoms: C31_31  and  N8_63 
REMARK   13  A    between atoms: C34_34  and  C37_37 
REMARK   14  A    between atoms: C37_37  and  N10_66 
REMARK   15  A    between atoms: C38_38  and  N10_66 
REMARK   16  A    between atoms: C41_41  and  C44_44 
REMARK   17  A    between atoms: C44_44  and  N12_69 
REMARK   18  A    between atoms: C45_45  and  N12_69 
REMARK   19  A    between atoms: C48_48  and  C51_51 
REMARK   20  A    between atoms: C51_51  and  N14_72 
ROOT
HETATM    1  C24 UNL     1      -0.665   0.757  -3.439  1.00  0.00     0.033 A 
HETATM    2  C25 UNL     1       0.607   0.980  -2.889  1.00  0.00     0.034 A 
HETATM    3  C26 UNL     1       1.750   0.858  -3.688  1.00  0.00     0.033 A 
HETATM    4  C27 UNL     1       1.611   0.547  -5.048  1.00  0.00     0.017 A 
HETATM    5  C28 UNL     1       0.346   0.347  -5.602  1.00  0.00     0.002 A 
HETATM    6  C29 UNL     1      -0.793   0.453  -4.802  1.00  0.00     0.017 A 
ENDROOT
BRANCH   1   7
HETATM    7  C23 UNL     1      -1.851   0.893  -2.544  1.00  0.00     0.256 C 
HETATM    8  N7  UNL     1      -2.927   0.081  -2.856  1.00  0.00    -0.323 N 
HETATM    9  H41 UNL     1      -2.790  -0.606  -3.585  1.00  0.00     0.169 HD
HETATM   10  O1  UNL     1      -1.767   1.664  -1.595  1.00  0.00    -0.267 OA
BRANCH   8  11
HETATM   11  C20 UNL     1      -4.177   0.032  -2.203  1.00  0.00     0.035 A 
HETATM   12  C19 UNL     1      -4.551   0.893  -1.167  1.00  0.00     0.030 A 
HETATM   13  C18 UNL     1      -5.810   0.782  -0.568  1.00  0.00     0.017 A 
HETATM   14  C17 UNL     1      -6.707  -0.192  -1.010  1.00  0.00     0.008 A 
HETATM   15  C22 UNL     1      -6.351  -1.054  -2.049  1.00  0.00     0.017 A 
HETATM   16  C21 UNL     1      -5.089  -0.939  -2.640  1.00  0.00     0.030 A 
BRANCH  14  17
HETATM   17  C16 UNL     1      -8.055  -0.309  -0.374  1.00  0.00     0.109 C 
HETATM   18  N6  UNL     1      -8.123  -0.369   0.918  1.00  0.00    -0.385 N 
HETATM   19  H40 UNL     1      -7.191  -0.359   1.343  1.00  0.00     0.157 HD
ATOM     20  H6  UNL     1      -8.994  -0.420   1.446  1.00  0.00     0.157 HD
BRANCH  17  21
HETATM   21  N5  UNL     1      -9.134  -0.329  -1.231  1.00  0.00    -0.342 N 
HETATM   22  H39 UNL     1      -8.946  -0.089  -2.196  1.00  0.00     0.167 HD
BRANCH  21  23
HETATM   23  C13 UNL     1     -10.502  -0.510  -0.951  1.00  0.00     0.033 A 
HETATM   24  C12 UNL     1     -10.996  -0.933   0.289  1.00  0.00     0.030 A 
HETATM   25  C11 UNL     1     -12.369  -1.088   0.513  1.00  0.00     0.017 A 
HETATM   26  C10 UNL     1     -13.273  -0.821  -0.515  1.00  0.00     0.008 A 
HETATM   27  C15 UNL     1     -12.809  -0.403  -1.762  1.00  0.00     0.017 A 
HETATM   28  C14 UNL     1     -11.434  -0.251  -1.973  1.00  0.00     0.030 A 
BRANCH  26  29
HETATM   29  C9  UNL     1     -14.743  -0.966  -0.277  1.00  0.00     0.109 C 
HETATM   30  N4  UNL     1     -15.437  -1.650  -1.130  1.00  0.00    -0.385 N 
HETATM   31  H38 UNL     1     -14.842  -2.046  -1.863  1.00  0.00     0.157 HD
ATOM     32  H4  UNL     1     -16.448  -1.778  -1.078  1.00  0.00     0.157 HD
BRANCH  29  33
HETATM   33  N3  UNL     1     -15.240  -0.341   0.846  1.00  0.00    -0.342 N 
HETATM   34  H37 UNL     1     -14.591   0.250   1.351  1.00  0.00     0.167 HD
BRANCH  33  35
HETATM   35  C6  UNL     1     -16.559  -0.266   1.335  1.00  0.00     0.033 A 
HETATM   36  C5  UNL     1     -16.789   0.470   2.513  1.00  0.00     0.030 A 
HETATM   37  C4  UNL     1     -18.068   0.576   3.072  1.00  0.00     0.017 A 
HETATM   38  C3  UNL     1     -19.145  -0.065   2.460  1.00  0.00     0.007 A 
HETATM   39  C8  UNL     1     -18.939  -0.810   1.300  1.00  0.00     0.017 A 
HETATM   40  C7  UNL     1     -17.654  -0.908   0.749  1.00  0.00     0.030 A 
BRANCH  38  41
HETATM   41  C2  UNL     1     -20.511   0.025   3.055  1.00  0.00     0.104 C 
HETATM   42  N2  UNL     1     -20.948   1.145   3.539  1.00  0.00    -0.385 N 
HETATM   43  H36 UNL     1     -20.267   1.896   3.400  1.00  0.00     0.157 HD
ATOM     44  H2  UNL     1     -21.851   1.262   3.998  1.00  0.00     0.157 HD
BRANCH  41  45
HETATM   45  N1  UNL     1     -21.289  -1.107   3.077  1.00  0.00    -0.380 N 
HETATM   46  C1  UNL     1     -22.513  -1.174   3.843  1.00  0.00     0.147 C 
HETATM   47  H35 UNL     1     -20.794  -1.989   3.001  1.00  0.00     0.160 HD
ENDBRANCH  41  45
ENDBRANCH  38  41
ENDBRANCH  33  35
ENDBRANCH  29  33
ENDBRANCH  26  29
ENDBRANCH  21  23
ENDBRANCH  17  21
ENDBRANCH  14  17
ENDBRANCH   8  11
ENDBRANCH   1   7
BRANCH   3  48
HETATM   48  C30 UNL     1       3.125   1.084  -3.152  1.00  0.00     0.256 C 
HETATM   49  N8  UNL     1       3.307   0.750  -1.821  1.00  0.00    -0.323 N 
HETATM   50  H42 UNL     1       2.534   0.311  -1.340  1.00  0.00     0.169 HD
HETATM   51  O2  UNL     1       3.978   1.509  -3.922  1.00  0.00    -0.267 OA
BRANCH  49  52
HETATM   52  C31 UNL     1       4.487   0.887  -1.059  1.00  0.00     0.035 A 
HETATM   53  C32 UNL     1       5.672   1.444  -1.543  1.00  0.00     0.030 A 
HETATM   54  C33 UNL     1       6.802   1.547  -0.720  1.00  0.00     0.017 A 
HETATM   55  C34 UNL     1       6.753   1.101   0.604  1.00  0.00     0.008 A 
HETATM   56  C35 UNL     1       5.572   0.533   1.090  1.00  0.00     0.017 A 
HETATM   57  C36 UNL     1       4.447   0.431   0.265  1.00  0.00     0.030 A 
BRANCH  55  58
HETATM   58  C37 UNL     1       7.946   1.208   1.503  1.00  0.00     0.109 C 
HETATM   59  N9  UNL     1       8.013   0.415   2.529  1.00  0.00    -0.385 N 
HETATM   60  H43 UNL     1       8.849   0.672   3.064  1.00  0.00     0.157 HD
ATOM     61  H9  UNL     1       7.354  -0.328   2.761  1.00  0.00     0.157 HD
BRANCH  58  62
HETATM   62  N10 UNL     1       8.899   2.168   1.247  1.00  0.00    -0.342 N 
HETATM   63  H44 UNL     1       8.619   2.939   0.650  1.00  0.00     0.167 HD
BRANCH  62  64
HETATM   64  C38 UNL     1      10.299   1.994   1.266  1.00  0.00     0.033 A 
HETATM   65  C39 UNL     1      10.916   0.744   1.405  1.00  0.00     0.030 A 
HETATM   66  C40 UNL     1      12.310   0.626   1.464  1.00  0.00     0.017 A 
HETATM   67  C41 UNL     1      13.113   1.768   1.404  1.00  0.00     0.008 A 
HETATM   68  C42 UNL     1      12.510   3.022   1.267  1.00  0.00     0.017 A 
HETATM   69  C43 UNL     1      11.117   3.131   1.209  1.00  0.00     0.030 A 
BRANCH  67  70
HETATM   70  C44 UNL     1      14.607   1.670   1.470  1.00  0.00     0.109 C 
HETATM   71  N11 UNL     1      15.304   2.642   0.967  1.00  0.00    -0.385 N 
HETATM   72  H45 UNL     1      16.294   2.448   1.155  1.00  0.00     0.157 HD
ATOM     73  H11 UNL     1      14.934   3.454   0.473  1.00  0.00     0.157 HD
BRANCH  70  74
HETATM   74  N12 UNL     1      15.182   0.591   2.102  1.00  0.00    -0.342 N 
HETATM   75  H46 UNL     1      14.591   0.068   2.739  1.00  0.00     0.167 HD
BRANCH  74  76
HETATM   76  C45 UNL     1      16.281  -0.169   1.649  1.00  0.00     0.033 A 
HETATM   77  C46 UNL     1      16.884  -1.071   2.541  1.00  0.00     0.030 A 
HETATM   78  C47 UNL     1      18.004  -1.820   2.164  1.00  0.00     0.017 A 
HETATM   79  C48 UNL     1      18.540  -1.670   0.885  1.00  0.00     0.007 A 
HETATM   80  C49 UNL     1      17.965  -0.767  -0.011  1.00  0.00     0.017 A 
HETATM   81  C50 UNL     1      16.847  -0.019   0.376  1.00  0.00     0.030 A 
BRANCH  79  82
HETATM   82  C51 UNL     1      19.737  -2.466   0.485  1.00  0.00     0.104 C 
HETATM   83  N13 UNL     1      19.810  -3.000  -0.693  1.00  0.00    -0.385 N 
HETATM   84  H47 UNL     1      18.957  -2.828  -1.231  1.00  0.00     0.157 HD
ATOM     85  H13 UNL     1      20.614  -3.524  -1.039  1.00  0.00     0.157 HD
BRANCH  82  86
HETATM   86  N14 UNL     1      20.753  -2.618   1.397  1.00  0.00    -0.380 N 
HETATM   87  C52 UNL     1      22.037  -3.166   1.014  1.00  0.00     0.147 C 
HETATM   88  H48 UNL     1      20.806  -1.912   2.123  1.00  0.00     0.160 HD
ENDBRANCH  82  86
ENDBRANCH  79  82
ENDBRANCH  74  76
ENDBRANCH  70  74
ENDBRANCH  67  70
ENDBRANCH  62  64
ENDBRANCH  58  62
ENDBRANCH  55  58
ENDBRANCH  49  52
ENDBRANCH   3  48
TORSDOF 20
