REMARK  14 active torsions:
REMARK  status: ('A' for Active; 'I' for Inactive)
REMARK    1  A    between atoms: C5_5  and  C6_6 
REMARK    2  A    between atoms: C5_5  and  N2_56 
REMARK    3  A    between atoms: C8_8  and  N5_61 
REMARK    4  A    between atoms: C9_9  and  C10_10 
REMARK    5  A    between atoms: C11_11  and  C12_12 
REMARK       I    between atoms: C11_11  and  N5_61 
REMARK    6  A    between atoms: C17_17  and  C20_20 
REMARK    7  A    between atoms: C23_23  and  N9_67 
REMARK    8  A    between atoms: C24_24  and  N9_67 
REMARK    9  A    between atoms: C31_31  and  N1_55 
REMARK   10  A    between atoms: C34_34  and  N14_75 
REMARK   11  A    between atoms: C35_35  and  C36_36 
REMARK       I    between atoms: C35_35  and  N14_75 
REMARK   12  A    between atoms: C41_41  and  C44_44 
REMARK   13  A    between atoms: C47_47  and  N18_81 
REMARK   14  A    between atoms: C48_48  and  N18_81 
ROOT
HETATM    1  C1  UNL     1       2.161  -0.144   1.693  1.00  0.00     0.287 C 
HETATM    2  C2  UNL     1       1.569  -0.654   0.361  1.00  0.00     0.126 C 
HETATM    3  C3  UNL     1       2.161   1.667  -0.373  1.00  0.00     0.126 C 
HETATM    4  C4  UNL     1       1.421   2.067   0.923  1.00  0.00     0.287 C 
HETATM    5  N1  UNL     1       1.913   0.256  -0.772  1.00  0.00    -0.277 NA
HETATM    6  N2  UNL     1       1.711   1.205   2.084  1.00  0.00     0.096 N 
ENDROOT
BRANCH   6   7
HETATM    7  C5  UNL     1       0.647   1.207   3.109  1.00  0.00     0.330 C 
BRANCH   7   8
HETATM    8  C6  UNL     1      -0.627   0.456   2.771  1.00  0.00     0.056 A 
HETATM    9  C7  UNL     1      -1.661   1.062   2.072  1.00  0.00     0.060 A 
HETATM   10  C8  UNL     1      -2.755   0.307   1.644  1.00  0.00     0.070 A 
HETATM   11  C9  UNL     1      -2.803  -1.033   2.039  1.00  0.00     0.159 A 
HETATM   12  N3  UNL     1      -1.789  -1.587   2.755  1.00  0.00    -0.294 N 
HETATM   13  N4  UNL     1      -0.695  -0.847   3.105  1.00  0.00    -0.303 N 
ATOM     14  H3  UNL     1      -1.845  -2.566   3.034  1.00  0.00     0.187 HD
ATOM     15  H4  UNL     1       0.071  -1.282   3.620  1.00  0.00     0.186 HD
BRANCH  10  16
HETATM   16  N5  UNL     1      -3.780   0.882   0.844  1.00  0.00    -0.320 N 
HETATM   17  C11 UNL     1      -3.698   2.062   0.117  1.00  0.00     0.272 C 
HETATM   18  O1  UNL     1      -2.674   2.728   0.004  1.00  0.00    -0.266 OA
HETATM   19  H34 UNL     1      -4.577   0.291   0.624  1.00  0.00     0.169 HD
BRANCH  17  20
HETATM   20  C12 UNL     1      -4.930   2.428  -0.555  1.00  0.00     0.102 A 
HETATM   21  C13 UNL     1      -5.072   3.254  -1.660  1.00  0.00     0.049 A 
HETATM   22  C14 UNL     1      -6.450   3.350  -1.984  1.00  0.00    -0.007 A 
HETATM   23  C15 UNL     1      -7.139   2.590  -1.047  1.00  0.00     0.044 A 
HETATM   24  C19 UNL     1      -7.182   4.013  -2.983  1.00  0.00     0.014 A 
HETATM   25  C16 UNL     1      -8.535   2.463  -1.056  1.00  0.00     0.045 A 
HETATM   26  N6  UNL     1      -6.206   2.057  -0.189  1.00  0.00    -0.351 N 
HETATM   27  C17 UNL     1      -9.283   3.121  -2.058  1.00  0.00     0.010 A 
HETATM   28  C18 UNL     1      -8.581   3.888  -3.006  1.00  0.00     0.016 A 
HETATM   29  H35 UNL     1      -6.447   1.496   0.616  1.00  0.00     0.166 HD
BRANCH  27  30
HETATM   30  C20 UNL     1     -10.756   2.999  -2.103  1.00  0.00     0.117 A 
HETATM   31  N7  UNL     1     -11.427   3.677  -3.052  1.00  0.00    -0.351 N 
HETATM   32  C21 UNL     1     -12.761   3.523  -3.060  1.00  0.00     0.093 A 
ATOM     33  H7  UNL     1     -10.949   4.274  -3.727  1.00  0.00     0.166 HD
HETATM   34  C22 UNL     1     -13.439   2.735  -2.161  1.00  0.00     0.065 A 
HETATM   35  C23 UNL     1     -12.677   2.079  -1.213  1.00  0.00     0.108 A 
HETATM   36  N8  UNL     1     -11.341   2.206  -1.186  1.00  0.00    -0.328 N 
ATOM     37  H8  UNL     1     -10.783   1.714  -0.488  1.00  0.00     0.169 HD
BRANCH  35  38
HETATM   38  N9  UNL     1     -13.347   1.252  -0.277  1.00  0.00    -0.342 N 
HETATM   39  H36 UNL     1     -14.114   1.767   0.141  1.00  0.00     0.167 HD
BRANCH  38  40
HETATM   40  C24 UNL     1     -12.762   0.342   0.637  1.00  0.00     0.034 A 
HETATM   41  C25 UNL     1     -11.588  -0.368   0.332  1.00  0.00     0.044 A 
HETATM   42  C26 UNL     1     -11.060  -1.281   1.262  1.00  0.00     0.011 A 
HETATM   43  C27 UNL     1     -11.729  -1.495   2.459  1.00  0.00     0.059 A 
HETATM   44  C30 UNL     1      -9.936  -2.133   1.327  1.00  0.00     0.120 A 
HETATM   45  C28 UNL     1     -12.922  -0.847   2.784  1.00  0.00     0.034 A 
HETATM   46  N10 UNL     1     -10.976  -2.421   3.132  1.00  0.00    -0.300 N 
HETATM   47  C29 UNL     1     -13.425   0.065   1.844  1.00  0.00     0.032 A 
HETATM   48  N11 UNL     1      -9.872  -2.817   2.472  1.00  0.00    -0.311 N 
HETATM   49  H37 UNL     1     -11.161  -2.823   4.044  1.00  0.00     0.187 HD
ATOM     50  H11 UNL     1      -9.158  -3.480   2.774  1.00  0.00     0.186 HD
ENDBRANCH  38  40
ENDBRANCH  35  38
ENDBRANCH  27  30
ENDBRANCH  17  20
ENDBRANCH  10  16
BRANCH  11  51
HETATM   51  C10 UNL     1      -3.929  -1.964   1.669  1.00  0.00     0.436 C 
HETATM   52  F1  UNL     1      -4.380  -2.716   2.711  1.00  0.00    -0.165 F 
HETATM   53  F2  UNL     1      -3.593  -2.841   0.683  1.00  0.00    -0.165 F 
HETATM   54  F3  UNL     1      -5.038  -1.306   1.199  1.00  0.00    -0.165 F 
ENDBRANCH  11  51
ENDBRANCH   7   8
ENDBRANCH   6   7
BRANCH   5  55
HETATM   55  C31 UNL     1       0.997   0.067  -1.846  1.00  0.00     0.056 A 
HETATM   56  C32 UNL     1      -0.227   0.717  -1.968  1.00  0.00     0.133 A 
HETATM   57  N12 UNL     1      -1.108   0.471  -2.963  1.00  0.00    -0.310 N 
HETATM   58  N13 UNL     1      -0.803  -0.453  -3.909  1.00  0.00    -0.310 N 
ATOM     59  H12 UNL     1      -1.994   0.975  -3.003  1.00  0.00     0.186 HD
HETATM   60  C33 UNL     1       0.378  -1.106  -3.846  1.00  0.00     0.138 A 
ATOM     61  H13 UNL     1      -1.461  -0.653  -4.662  1.00  0.00     0.186 HD
HETATM   62  C34 UNL     1       1.303  -0.879  -2.840  1.00  0.00     0.075 A 
BRANCH  62  63
HETATM   63  N14 UNL     1       2.568  -1.500  -2.739  1.00  0.00    -0.319 N 
HETATM   64  C35 UNL     1       3.075  -2.514  -3.521  1.00  0.00     0.272 C 
HETATM   65  O2  UNL     1       2.440  -3.085  -4.400  1.00  0.00    -0.266 OA
HETATM   66  H38 UNL     1       3.091  -1.170  -1.937  1.00  0.00     0.169 HD
BRANCH  64  67
HETATM   67  C36 UNL     1       4.440  -2.886  -3.194  1.00  0.00     0.102 A 
HETATM   68  C37 UNL     1       5.092  -4.066  -3.516  1.00  0.00     0.049 A 
HETATM   69  C38 UNL     1       6.414  -4.011  -3.002  1.00  0.00    -0.007 A 
HETATM   70  C39 UNL     1       6.560  -2.773  -2.389  1.00  0.00     0.044 A 
HETATM   71  C43 UNL     1       7.505  -4.895  -3.004  1.00  0.00     0.014 A 
HETATM   72  C40 UNL     1       7.755  -2.369  -1.774  1.00  0.00     0.045 A 
HETATM   73  N15 UNL     1       5.365  -2.106  -2.533  1.00  0.00    -0.351 N 
HETATM   74  C41 UNL     1       8.859  -3.249  -1.766  1.00  0.00     0.010 A 
HETATM   75  C42 UNL     1       8.704  -4.503  -2.387  1.00  0.00     0.016 A 
HETATM   76  H39 UNL     1       5.211  -1.158  -2.222  1.00  0.00     0.166 HD
BRANCH  74  77
HETATM   77  C44 UNL     1      10.136  -2.863  -1.125  1.00  0.00     0.117 A 
HETATM   78  N16 UNL     1      11.140  -3.761  -1.129  1.00  0.00    -0.351 N 
HETATM   79  C45 UNL     1      12.287  -3.376  -0.548  1.00  0.00     0.093 A 
ATOM     80  H16 UNL     1      11.034  -4.684  -1.551  1.00  0.00     0.166 HD
HETATM   81  C46 UNL     1      12.460  -2.150   0.042  1.00  0.00     0.065 A 
HETATM   82  C47 UNL     1      11.376  -1.298   0.022  1.00  0.00     0.108 A 
HETATM   83  N17 UNL     1      10.219  -1.635  -0.573  1.00  0.00    -0.328 N 
ATOM     84  H17 UNL     1       9.433  -0.986  -0.606  1.00  0.00     0.169 HD
BRANCH  82  85
HETATM   85  N18 UNL     1      11.434  -0.008   0.563  1.00  0.00    -0.342 N 
HETATM   86  H40 UNL     1      10.544   0.449   0.383  1.00  0.00     0.167 HD
BRANCH  85  87
HETATM   87  C48 UNL     1      12.045   0.470   1.741  1.00  0.00     0.034 A 
HETATM   88  C49 UNL     1      12.477  -0.374   2.777  1.00  0.00     0.044 A 
HETATM   89  C50 UNL     1      13.088   0.182   3.917  1.00  0.00     0.011 A 
HETATM   90  C51 UNL     1      13.254   1.559   3.998  1.00  0.00     0.059 A 
HETATM   91  C54 UNL     1      13.629  -0.310   5.126  1.00  0.00     0.120 A 
HETATM   92  C52 UNL     1      12.836   2.432   2.993  1.00  0.00     0.034 A 
HETATM   93  N19 UNL     1      13.868   1.779   5.203  1.00  0.00    -0.300 N 
HETATM   94  C53 UNL     1      12.229   1.856   1.869  1.00  0.00     0.032 A 
HETATM   95  N20 UNL     1      14.107   0.660   5.910  1.00  0.00    -0.311 N 
HETATM   96  H41 UNL     1      14.147   2.668   5.602  1.00  0.00     0.187 HD
ATOM     97  H20 UNL     1      14.548   0.573   6.826  1.00  0.00     0.186 HD
ENDBRANCH  85  87
ENDBRANCH  82  85
ENDBRANCH  74  77
ENDBRANCH  64  67
ENDBRANCH  62  63
ENDBRANCH   5  55
TORSDOF 14
