REMARK  18 active torsions:
REMARK  status: ('A' for Active; 'I' for Inactive)
REMARK    1  A    between atoms: C3_3  and  N8_54 
REMARK    2  A    between atoms: C5_5  and  C6_6 
REMARK       I    between atoms: C6_6  and  N2_48 
REMARK    3  A    between atoms: C7_7  and  N2_48 
REMARK    4  A    between atoms: C9_9  and  C11_11 
REMARK       I    between atoms: C11_11  and  N4_50 
REMARK    5  A    between atoms: C12_12  and  N4_50 
REMARK    6  A    between atoms: C14_14  and  N6_52 
REMARK    7  A    between atoms: C16_16  and  C17_17 
REMARK       I    between atoms: C16_16  and  N6_52 
REMARK    8  A    between atoms: C17_17  and  C18_18 
REMARK    9  A    between atoms: C22_22  and  C23_23 
REMARK       I    between atoms: C22_22  and  N8_54 
REMARK   10  A    between atoms: C25_25  and  C28_28 
REMARK       I    between atoms: C28_28  and  N10_57 
REMARK   11  A    between atoms: C29_29  and  N10_57 
REMARK   12  A    between atoms: C31_31  and  C32_32 
REMARK       I    between atoms: C32_32  and  N13_61 
REMARK   13  A    between atoms: C33_33  and  N13_61 
REMARK   14  A    between atoms: C35_35  and  C36_36 
REMARK       I    between atoms: C36_36  and  N16_65 
REMARK   15  A    between atoms: C37_37  and  N16_65 
REMARK   16  A    between atoms: C39_39  and  C40_40 
REMARK       I    between atoms: C40_40  and  N19_69 
REMARK   17  A    between atoms: C41_41  and  C42_42 
REMARK   18  A    between atoms: C41_41  and  N19_69 
ROOT
HETATM    1  C18 UNL     1     -19.072  -4.823   3.437  1.00  0.00     0.133 C 
HETATM    2  C19 UNL     1     -19.926  -3.644   3.642  1.00  0.00     0.059 C 
HETATM    3  N7  UNL     1     -20.590  -2.714   3.844  1.00  0.00    -0.197 NA
ENDROOT
BRANCH   1   4
HETATM    4  C17 UNL     1     -17.604  -4.430   3.315  1.00  0.00     0.117 C 
BRANCH   4   5
HETATM    5  C16 UNL     1     -17.285  -3.799   1.969  1.00  0.00     0.224 C 
HETATM    6  N6  UNL     1     -16.004  -3.278   1.948  1.00  0.00    -0.313 N 
HETATM    7  H41 UNL     1     -15.540  -3.159   2.842  1.00  0.00     0.170 HD
HETATM    8  O3  UNL     1     -18.101  -3.801   1.056  1.00  0.00    -0.273 OA
BRANCH   6   9
HETATM    9  C14 UNL     1     -15.380  -2.639   0.887  1.00  0.00     0.111 A 
HETATM   10  C15 UNL     1     -14.274  -1.817   1.031  1.00  0.00     0.079 A 
HETATM   11  C12 UNL     1     -13.930  -1.293  -0.233  1.00  0.00     0.054 A 
HETATM   12  C13 UNL     1     -14.811  -1.835  -1.136  1.00  0.00     0.121 A 
HETATM   13  N5  UNL     1     -15.660  -2.692  -0.462  1.00  0.00    -0.345 N 
HETATM   14  C20 UNL     1     -16.565  -3.571  -1.171  1.00  0.00     0.157 C 
BRANCH  11  15
HETATM   15  N4  UNL     1     -12.935  -0.406  -0.594  1.00  0.00    -0.320 N 
HETATM   16  C11 UNL     1     -11.981   0.113   0.260  1.00  0.00     0.273 C 
HETATM   17  O2  UNL     1     -11.828  -0.215   1.432  1.00  0.00    -0.266 OA
HETATM   18  H40 UNL     1     -12.863  -0.187  -1.577  1.00  0.00     0.169 HD
BRANCH  16  19
HETATM   19  C9  UNL     1     -11.106   1.073  -0.388  1.00  0.00     0.105 A 
HETATM   20  C10 UNL     1      -9.722   1.125  -0.295  1.00  0.00     0.066 A 
HETATM   21  C7  UNL     1      -9.254   2.194  -1.097  1.00  0.00     0.053 A 
HETATM   22  C8  UNL     1     -10.365   2.799  -1.632  1.00  0.00     0.120 A 
HETATM   23  N3  UNL     1     -11.481   2.150  -1.166  1.00  0.00    -0.354 N 
HETATM   24  C21 UNL     1     -12.833   2.612  -1.401  1.00  0.00     0.156 C 
BRANCH  21  25
HETATM   25  N2  UNL     1      -7.923   2.528  -1.270  1.00  0.00    -0.320 N 
HETATM   26  C6  UNL     1      -7.437   3.574  -2.034  1.00  0.00     0.273 C 
HETATM   27  O1  UNL     1      -8.143   4.361  -2.659  1.00  0.00    -0.266 OA
HETATM   28  H39 UNL     1      -7.264   1.957  -0.764  1.00  0.00     0.169 HD
BRANCH  26  29
HETATM   29  C5  UNL     1      -5.977   3.685  -2.036  1.00  0.00     0.105 A 
HETATM   30  C4  UNL     1      -5.012   2.813  -1.538  1.00  0.00     0.066 A 
HETATM   31  C3  UNL     1      -3.730   3.359  -1.776  1.00  0.00     0.053 A 
HETATM   32  C2  UNL     1      -3.921   4.554  -2.424  1.00  0.00     0.120 A 
HETATM   33  N1  UNL     1      -5.271   4.745  -2.584  1.00  0.00    -0.354 N 
HETATM   34  C1  UNL     1      -5.848   5.907  -3.228  1.00  0.00     0.156 C 
BRANCH  31  35
HETATM   35  N8  UNL     1      -2.483   2.865  -1.462  1.00  0.00    -0.320 N 
HETATM   36  C22 UNL     1      -2.232   1.674  -0.810  1.00  0.00     0.272 C 
HETATM   37  O4  UNL     1      -3.061   0.867  -0.405  1.00  0.00    -0.266 OA
HETATM   38  H42 UNL     1      -1.670   3.413  -1.728  1.00  0.00     0.169 HD
BRANCH  36  39
HETATM   39  C23 UNL     1      -0.768   1.414  -0.612  1.00  0.00     0.101 A 
HETATM   40  C27 UNL     1      -0.345   0.241   0.002  1.00  0.00     0.036 A 
HETATM   41  C26 UNL     1       1.024   0.041   0.172  1.00  0.00     0.021 A 
HETATM   42  C25 UNL     1       1.922   1.018  -0.265  1.00  0.00     0.047 A 
HETATM   43  C24 UNL     1       1.409   2.147  -0.891  1.00  0.00     0.105 A 
HETATM   44  N9  UNL     1       0.085   2.382  -1.067  1.00  0.00    -0.360 N 
ATOM     45  H9  UNL     1      -0.256   3.233  -1.514  1.00  0.00     0.165 HD
BRANCH  42  46
HETATM   46  C28 UNL     1       3.378   0.810  -0.094  1.00  0.00     0.258 C 
HETATM   47  N10 UNL     1       4.092   1.943   0.243  1.00  0.00    -0.308 N 
HETATM   48  H43 UNL     1       3.613   2.804   0.462  1.00  0.00     0.170 HD
HETATM   49  O5  UNL     1       3.805  -0.331  -0.233  1.00  0.00    -0.267 OA
BRANCH  47  50
HETATM   50  C29 UNL     1       5.455   1.965   0.406  1.00  0.00     0.125 A 
HETATM   51  C30 UNL     1       6.185   3.060   0.802  1.00  0.00     0.140 A 
HETATM   52  N11 UNL     1       7.486   2.630   0.825  1.00  0.00    -0.339 N 
HETATM   53  C31 UNL     1       7.499   1.310   0.445  1.00  0.00     0.178 A 
HETATM   54  C46 UNL     1       8.634   3.425   1.188  1.00  0.00     0.157 C 
HETATM   55  N12 UNL     1       6.268   0.899   0.182  1.00  0.00    -0.323 N 
ATOM     56  H12 UNL     1       5.986  -0.031  -0.127  1.00  0.00     0.169 HD
BRANCH  53  57
HETATM   57  C32 UNL     1       8.656   0.430   0.327  1.00  0.00     0.291 C 
HETATM   58  N13 UNL     1       8.266  -0.833  -0.062  1.00  0.00    -0.305 N 
HETATM   59  H44 UNL     1       7.267  -0.965  -0.202  1.00  0.00     0.170 HD
HETATM   60  O6  UNL     1       9.800   0.809   0.554  1.00  0.00    -0.264 OA
BRANCH  58  61
HETATM   61  C33 UNL     1       9.100  -1.895  -0.263  1.00  0.00     0.125 A 
HETATM   62  C34 UNL     1       8.692  -3.149  -0.647  1.00  0.00     0.140 A 
HETATM   63  N14 UNL     1       9.841  -3.888  -0.726  1.00  0.00    -0.339 N 
HETATM   64  C35 UNL     1      10.893  -3.069  -0.391  1.00  0.00     0.178 A 
HETATM   65  C45 UNL     1       9.924  -5.280  -1.095  1.00  0.00     0.157 C 
HETATM   66  N15 UNL     1      10.452  -1.852  -0.108  1.00  0.00    -0.323 N 
ATOM     67  H15 UNL     1      11.012  -1.046   0.170  1.00  0.00     0.169 HD
BRANCH  64  68
HETATM   68  C36 UNL     1      12.305  -3.423  -0.337  1.00  0.00     0.291 C 
HETATM   69  N16 UNL     1      13.078  -2.348   0.040  1.00  0.00    -0.305 N 
HETATM   70  H45 UNL     1      12.591  -1.476   0.227  1.00  0.00     0.170 HD
HETATM   71  O7  UNL     1      12.725  -4.547  -0.601  1.00  0.00    -0.264 OA
BRANCH  69  72
HETATM   72  C37 UNL     1      14.435  -2.335   0.188  1.00  0.00     0.125 A 
HETATM   73  C38 UNL     1      15.351  -3.340   0.011  1.00  0.00     0.140 A 
HETATM   74  N17 UNL     1      16.562  -2.774   0.296  1.00  0.00    -0.339 N 
HETATM   75  C39 UNL     1      16.345  -1.459   0.632  1.00  0.00     0.178 A 
HETATM   76  C44 UNL     1      17.837  -3.447   0.251  1.00  0.00     0.157 C 
HETATM   77  N18 UNL     1      15.050  -1.176   0.571  1.00  0.00    -0.323 N 
ATOM     78  H18 UNL     1      14.606  -0.279   0.769  1.00  0.00     0.169 HD
BRANCH  75  79
HETATM   79  C40 UNL     1      17.348  -0.475   1.005  1.00  0.00     0.285 C 
HETATM   80  N19 UNL     1      16.805   0.757   1.301  1.00  0.00    -0.353 N 
HETATM   81  H46 UNL     1      15.790   0.815   1.247  1.00  0.00     0.162 HD
HETATM   82  O8  UNL     1      18.556  -0.690   1.053  1.00  0.00    -0.264 OA
BRANCH  80  83
HETATM   83  C41 UNL     1      17.596   1.884   1.748  1.00  0.00     0.137 C 
BRANCH  83  84
HETATM   84  C42 UNL     1      18.394   2.527   0.617  1.00  0.00     0.143 C 
HETATM   85  C43 UNL     1      19.105   3.713   1.105  1.00  0.00     0.060 C 
HETATM   86  N20 UNL     1      19.656   4.657   1.495  1.00  0.00    -0.197 NA
ENDBRANCH  83  84
ENDBRANCH  80  83
ENDBRANCH  75  79
ENDBRANCH  69  72
ENDBRANCH  64  68
ENDBRANCH  58  61
ENDBRANCH  53  57
ENDBRANCH  47  50
ENDBRANCH  42  46
ENDBRANCH  36  39
ENDBRANCH  31  35
ENDBRANCH  26  29
ENDBRANCH  21  25
ENDBRANCH  16  19
ENDBRANCH  11  15
ENDBRANCH   6   9
ENDBRANCH   4   5
ENDBRANCH   1   4
TORSDOF 18
