REMARK  23 active torsions:
REMARK  status: ('A' for Active; 'I' for Inactive)
REMARK    1  A    between atoms: C3_3  and  C4_4 
REMARK    2  A    between atoms: C3_3  and  N1_64 
REMARK    3  A    between atoms: C5_5  and  C6_6 
REMARK    4  A    between atoms: C6_6  and  N2_65 
REMARK    5  A    between atoms: C6_6  and  O4_85 
REMARK    6  A    between atoms: C7_7  and  N2_65 
REMARK    7  A    between atoms: C10_10  and  C13_13 
REMARK       I    between atoms: C13_13  and  N3_66 
REMARK    8  A    between atoms: C14_14  and  N3_66 
REMARK    9  A    between atoms: C18_18  and  N4_67 
REMARK   10  A    between atoms: C20_20  and  N4_67 
REMARK   11  A    between atoms: C23_23  and  C24_24 
REMARK   12  A    between atoms: C30_30  and  C32_32 
REMARK   13  A    between atoms: C32_32  and  N8_73 
REMARK   14  A    between atoms: C34_34  and  C35_35 
REMARK   15  A    between atoms: C34_34  and  N8_73 
REMARK   16  A    between atoms: C36_36  and  C37_37 
REMARK       I    between atoms: C37_37  and  N9_74 
REMARK   17  A    between atoms: C38_38  and  C39_39 
REMARK   18  A    between atoms: C38_38  and  N9_74 
REMARK   19  A    between atoms: C42_42  and  C45_45 
REMARK       I    between atoms: C45_45  and  N10_75 
REMARK   20  A    between atoms: C46_46  and  N10_75 
REMARK   21  A    between atoms: C50_50  and  N11_76 
REMARK   22  A    between atoms: C52_52  and  N11_76 
REMARK   23  A    between atoms: C55_55  and  C56_56 
ROOT
HETATM    1  C32 UNL     1      -2.126  -0.912  -2.580  1.00  0.00     0.311 C 
ENDROOT
BRANCH   1   2
HETATM    2  C30 UNL     1      -0.808  -0.742  -1.852  1.00  0.00    -0.028 A 
HETATM    3  C29 UNL     1       0.388  -0.660  -2.574  1.00  0.00     0.010 A 
HETATM    4  C28 UNL     1       1.617  -0.495  -1.923  1.00  0.00     0.015 A 
HETATM    5  C27 UNL     1       1.661  -0.407  -0.516  1.00  0.00     0.004 A 
HETATM    6  C24 UNL     1       2.709  -0.236   0.449  1.00  0.00     0.019 A 
HETATM    7  C26 UNL     1       0.459  -0.509   0.185  1.00  0.00     0.043 A 
HETATM    8  C25 UNL     1       2.106  -0.226   1.695  1.00  0.00     0.103 A 
HETATM    9  N7  UNL     1       0.756  -0.388   1.521  1.00  0.00    -0.364 N 
HETATM   10  H54 UNL     1       0.069  -0.399   2.262  1.00  0.00     0.165 HD
HETATM   11  C31 UNL     1      -0.778  -0.690  -0.447  1.00  0.00     0.039 A 
BRANCH   6  12
HETATM   12  C23 UNL     1       4.143  -0.068   0.240  1.00  0.00     0.063 A 
HETATM   13  C22 UNL     1       5.063  -0.516   1.159  1.00  0.00     0.048 A 
HETATM   14  C21 UNL     1       6.376  -0.295   0.834  1.00  0.00     0.108 A 
HETATM   15  N5  UNL     1       6.768   0.319  -0.296  1.00  0.00    -0.202 N 
HETATM   16  C20 UNL     1       5.809   0.726  -1.140  1.00  0.00     0.683 A 
ATOM     17  H5  UNL     1       7.755   0.469  -0.503  1.00  0.00     0.183 HD
HETATM   18  N6  UNL     1       4.501   0.546  -0.907  1.00  0.00    -0.191 N 
ATOM     19  H6  UNL     1       3.799   0.863  -1.575  1.00  0.00     0.184 HD
BRANCH  16  20
HETATM   20  N4  UNL     1       6.100   1.379  -2.334  1.00  0.00    -0.192 N 
HETATM   21  H53 UNL     1       5.231   1.622  -2.787  1.00  0.00     0.184 HD
BRANCH  20  22
HETATM   22  C18 UNL     1       7.281   1.771  -2.974  1.00  0.00     0.051 A 
HETATM   23  C17 UNL     1       7.185   2.467  -4.187  1.00  0.00     0.030 A 
HETATM   24  C16 UNL     1       8.326   2.886  -4.873  1.00  0.00     0.004 A 
HETATM   25  C15 UNL     1       9.593   2.613  -4.357  1.00  0.00     0.029 A 
HETATM   26  C14 UNL     1       9.723   1.920  -3.157  1.00  0.00     0.037 A 
HETATM   27  C19 UNL     1       8.563   1.508  -2.477  1.00  0.00     0.059 A 
BRANCH  26  28
HETATM   28  N3  UNL     1      10.962   1.606  -2.558  1.00  0.00    -0.323 N 
HETATM   29  C13 UNL     1      12.226   1.843  -3.066  1.00  0.00     0.256 C 
HETATM   30  O1  UNL     1      12.504   2.307  -4.165  1.00  0.00    -0.267 OA
HETATM   31  H52 UNL     1      10.901   1.093  -1.688  1.00  0.00     0.169 HD
BRANCH  29  32
HETATM   32  C10 UNL     1      13.347   1.439  -2.169  1.00  0.00     0.032 A 
HETATM   33  C9  UNL     1      13.265   1.559  -0.778  1.00  0.00     0.019 A 
HETATM   34  C8  UNL     1      14.345   1.171   0.026  1.00  0.00     0.024 A 
HETATM   35  C7  UNL     1      15.516   0.639  -0.532  1.00  0.00     0.010 A 
HETATM   36  C12 UNL     1      15.601   0.583  -1.931  1.00  0.00     0.024 A 
HETATM   37  C11 UNL     1      14.530   0.968  -2.744  1.00  0.00     0.019 A 
BRANCH  35  38
HETATM   38  N2  UNL     1      16.649   0.304   0.218  1.00  0.00    -0.263 NA
HETATM   39  H51 UNL     1      17.242  -0.354  -0.281  1.00  0.00     0.130 HD
BRANCH  38  40
HETATM   40  C6  UNL     1      16.529  -0.016   1.620  1.00  0.00     0.219 C 
BRANCH  40  41
HETATM   41  C5  UNL     1      17.705  -0.868   2.002  1.00  0.00     0.018 C 
HETATM   42  C4  UNL     1      18.741  -0.513   2.785  1.00  0.00     0.003 C 
BRANCH  42  43
HETATM   43  C3  UNL     1      19.889  -1.418   3.135  1.00  0.00     0.298 C 
BRANCH  43  44
HETATM   44  N1  UNL     1      20.041  -1.738   4.557  1.00  0.00     0.083 N 
HETATM   45  C1  UNL     1      18.893  -2.460   5.098  1.00  0.00     0.309 C 
HETATM   46  C2  UNL     1      20.371  -0.576   5.375  1.00  0.00     0.309 C 
ENDBRANCH  43  44
ENDBRANCH  42  43
ENDBRANCH  40  41
BRANCH  40  47
HETATM   47  O4  UNL     1      16.561   1.206   2.313  1.00  0.00    -0.378 OA
HETATM   48  H59 UNL     1      16.812   1.819   1.599  1.00  0.00     0.212 HD
ENDBRANCH  40  47
ENDBRANCH  38  40
ENDBRANCH  35  38
ENDBRANCH  29  32
ENDBRANCH  26  28
ENDBRANCH  20  22
ENDBRANCH  16  20
ENDBRANCH   6  12
ENDBRANCH   1   2
BRANCH   1  49
HETATM   49  N8  UNL     1      -3.153   0.098  -2.229  1.00  0.00     0.091 N 
HETATM   50  C33 UNL     1      -4.463  -0.403  -2.681  1.00  0.00     0.310 C 
BRANCH  49  51
HETATM   51  C34 UNL     1      -2.904   1.406  -2.867  1.00  0.00     0.300 C 
BRANCH  51  52
HETATM   52  C35 UNL     1      -1.770   2.182  -2.265  1.00  0.00     0.008 C 
HETATM   53  C36 UNL     1      -1.689   2.769  -1.058  1.00  0.00     0.072 C 
BRANCH  53  54
HETATM   54  C37 UNL     1      -2.676   2.795   0.051  1.00  0.00     0.241 C 
HETATM   55  N9  UNL     1      -3.568   1.766   0.091  1.00  0.00    -0.353 N 
HETATM   56  H55 UNL     1      -3.427   0.988  -0.554  1.00  0.00     0.163 HD
HETATM   57  O2  UNL     1      -2.613   3.677   0.902  1.00  0.00    -0.269 OA
BRANCH  55  58
HETATM   58  C38 UNL     1      -4.444   1.577   1.216  1.00  0.00     0.161 C 
BRANCH  58  59
HETATM   59  C39 UNL     1      -5.530   0.586   0.889  1.00  0.00    -0.040 A 
HETATM   60  C40 UNL     1      -6.745   1.024   0.340  1.00  0.00     0.010 A 
HETATM   61  C41 UNL     1      -7.738   0.106  -0.011  1.00  0.00     0.017 A 
HETATM   62  C42 UNL     1      -7.522  -1.264   0.185  1.00  0.00     0.032 A 
HETATM   63  C43 UNL     1      -6.304  -1.709   0.710  1.00  0.00     0.017 A 
HETATM   64  C44 UNL     1      -5.315  -0.789   1.063  1.00  0.00     0.010 A 
BRANCH  62  65
HETATM   65  C45 UNL     1      -8.545  -2.277  -0.197  1.00  0.00     0.256 C 
HETATM   66  N10 UNL     1      -9.851  -1.903   0.057  1.00  0.00    -0.323 N 
HETATM   67  H56 UNL     1      -9.992  -1.039   0.565  1.00  0.00     0.169 HD
HETATM   68  O3  UNL     1      -8.157  -3.340  -0.666  1.00  0.00    -0.267 OA
BRANCH  66  69
HETATM   69  C46 UNL     1     -11.026  -2.630  -0.233  1.00  0.00     0.037 A 
HETATM   70  C47 UNL     1     -11.039  -3.846  -0.912  1.00  0.00     0.029 A 
HETATM   71  C48 UNL     1     -12.248  -4.493  -1.163  1.00  0.00     0.004 A 
HETATM   72  C49 UNL     1     -13.449  -3.924  -0.737  1.00  0.00     0.030 A 
HETATM   73  C50 UNL     1     -13.471  -2.701  -0.052  1.00  0.00     0.051 A 
HETATM   74  C51 UNL     1     -12.244  -2.069   0.187  1.00  0.00     0.059 A 
BRANCH  73  75
HETATM   75  N11 UNL     1     -14.708  -2.179   0.342  1.00  0.00    -0.192 N 
HETATM   76  H57 UNL     1     -15.525  -2.738   0.137  1.00  0.00     0.184 HD
BRANCH  75  77
HETATM   77  C52 UNL     1     -15.110  -1.032   1.018  1.00  0.00     0.683 A 
HETATM   78  N12 UNL     1     -14.238  -0.105   1.439  1.00  0.00    -0.200 N 
HETATM   79  C53 UNL     1     -14.740   0.972   2.082  1.00  0.00     0.132 A 
ATOM     80  H12 UNL     1     -13.236  -0.209   1.280  1.00  0.00     0.183 HD
HETATM   81  C54 UNL     1     -16.077   1.169   2.331  1.00  0.00     0.078 A 
HETATM   82  C55 UNL     1     -16.900   0.162   1.868  1.00  0.00     0.084 A 
HETATM   83 CL1  UNL     1     -16.596   2.599   3.126  1.00  0.00    -0.080 Cl
HETATM   84  N13 UNL     1     -16.433  -0.928   1.209  1.00  0.00    -0.189 N 
ATOM     85  H13 UNL     1     -17.070  -1.648   0.869  1.00  0.00     0.184 HD
BRANCH  82  86
HETATM   86  C56 UNL     1     -18.346   0.176   2.026  1.00  0.00     0.021 A 
HETATM   87  C57 UNL     1     -18.987   0.239   3.248  1.00  0.00     0.103 A 
HETATM   88  N14 UNL     1     -20.338   0.210   3.021  1.00  0.00    -0.364 N 
HETATM   89  C58 UNL     1     -20.594   0.102   1.674  1.00  0.00     0.043 A 
HETATM   90  H58 UNL     1     -21.051   0.247   3.737  1.00  0.00     0.165 HD
HETATM   91  C59 UNL     1     -21.814   0.029   0.991  1.00  0.00     0.030 A 
HETATM   92  C63 UNL     1     -19.360   0.066   1.022  1.00  0.00     0.004 A 
HETATM   93  C60 UNL     1     -21.772  -0.088  -0.401  1.00  0.00     0.002 A 
HETATM   94  C61 UNL     1     -20.557  -0.130  -1.081  1.00  0.00     0.001 A 
HETATM   95  C62 UNL     1     -19.347  -0.054  -0.383  1.00  0.00     0.014 A 
ENDBRANCH  82  86
ENDBRANCH  75  77
ENDBRANCH  73  75
ENDBRANCH  66  69
ENDBRANCH  62  65
ENDBRANCH  58  59
ENDBRANCH  55  58
ENDBRANCH  53  54
ENDBRANCH  51  52
ENDBRANCH  49  51
ENDBRANCH   1  49
TORSDOF 23
