REMARK  22 active torsions:
REMARK  status: ('A' for Active; 'I' for Inactive)
REMARK    1  A    between atoms: C2_2  and  C3_3 
REMARK    2  A    between atoms: C3_3  and  C4_4 
REMARK    3  A    between atoms: C4_4  and  C5_5 
REMARK    4  A    between atoms: C4_4  and  N6_46 
REMARK       I    between atoms: C5_5  and  N1_39 
REMARK    5  A    between atoms: C6_6  and  C7_7 
REMARK    6  A    between atoms: C6_6  and  N1_39 
REMARK    7  A    between atoms: C7_7  and  C8_8 
REMARK    8  A    between atoms: C8_8  and  C9_9 
REMARK    9  A    between atoms: C9_9  and  N3_42 
REMARK   10  A    between atoms: C12_12  and  C13_13 
REMARK   11  A    between atoms: C12_12  and  N3_42 
REMARK   12  A    between atoms: C13_13  and  O3_35 
REMARK   13  A    between atoms: C14_14  and  C17_17 
REMARK   14  A    between atoms: C14_14  and  N4_43 
REMARK   15  A    between atoms: C19_19  and  C20_20 
REMARK       I    between atoms: C19_19  and  N6_46 
REMARK   16  A    between atoms: C23_23  and  N7_47 
REMARK   17  A    between atoms: C26_26  and  C27_27 
REMARK   18  A    between atoms: C26_26  and  N7_47 
REMARK   19  A    between atoms: C32_32  and  N12_55 
REMARK   20  A    between atoms: O2_34  and  N2_40 
REMARK   21  A    between atoms: O3_35  and  N4_43 
REMARK   22  A    between atoms: O4_36  and  N5_44 
ROOT
HETATM    1  C4  UNL     1      -0.285  -4.119   3.211  1.00  0.00     0.177 C 
ENDROOT
BRANCH   1   2
HETATM    2  C3  UNL     1      -0.285  -5.626   2.906  1.00  0.00     0.034 C 
BRANCH   2   3
HETATM    3  C2  UNL     1      -0.278  -6.028   1.424  1.00  0.00    -0.002 C 
HETATM    4  C1  UNL     1      -1.503  -5.591   0.639  1.00  0.00     0.005 C 
ENDBRANCH   2   3
ENDBRANCH   1   2
BRANCH   1   5
HETATM    5  C5  UNL     1      -1.679  -3.464   3.102  1.00  0.00     0.240 C 
HETATM    6  O1  UNL     1      -2.737  -4.083   3.173  1.00  0.00    -0.271 OA
HETATM    7  N1  UNL     1      -1.627  -2.087   3.024  1.00  0.00    -0.359 N 
HETATM    8  H41 UNL     1      -0.716  -1.662   2.874  1.00  0.00     0.162 HD
BRANCH   7   9
HETATM    9  C6  UNL     1      -2.795  -1.271   2.768  1.00  0.00     0.128 C 
BRANCH   9  10
HETATM   10  C7  UNL     1      -3.190  -1.281   1.294  1.00  0.00     0.077 C 
BRANCH  10  11
HETATM   11  C8  UNL     1      -2.172  -0.626   0.348  1.00  0.00     0.049 C 
HETATM   12  N2  UNL     1      -1.128  -0.071   0.908  1.00  0.00    -0.275 N 
ATOM     13  H2  UNL     1      -0.994  -0.024   1.918  1.00  0.00     0.193 HD
BRANCH  11  14
HETATM   14  C9  UNL     1      -2.459  -0.720  -1.194  1.00  0.00     0.190 C 
HETATM   15  C10 UNL     1      -3.869  -1.248  -1.527  1.00  0.00     0.055 C 
HETATM   16  C11 UNL     1      -1.451  -1.738  -1.771  1.00  0.00     0.055 C 
BRANCH  14  17
HETATM   17  N3  UNL     1      -2.232   0.578  -1.878  1.00  0.00     0.100 N 
HETATM   18  H42 UNL     1      -2.117   0.412  -2.878  1.00  0.00     0.317 HD
BRANCH  17  19
HETATM   19  C12 UNL     1      -3.217   1.647  -1.694  1.00  0.00     0.299 C 
BRANCH  19  20
HETATM   20  C13 UNL     1      -3.344   2.245  -0.290  1.00  0.00     0.224 C 
BRANCH  20  21
HETATM   21  O3  UNL     1      -4.275   3.335  -0.355  1.00  0.00    -0.303 OA
BRANCH  21  22
HETATM   22  N4  UNL     1      -4.517   3.812   1.005  1.00  0.00    -0.191 NA
HETATM   23  H43 UNL     1      -4.143   4.769   0.950  1.00  0.00     0.155 HD
BRANCH  22  24
HETATM   24  C14 UNL     1      -5.986   3.958   1.165  1.00  0.00     0.068 C 
HETATM   25  C15 UNL     1      -6.641   2.574   1.000  1.00  0.00     0.040 C 
HETATM   26  C16 UNL     1      -6.271   4.443   2.596  1.00  0.00     0.040 C 
BRANCH  24  27
HETATM   27  C17 UNL     1      -6.522   5.028   0.164  1.00  0.00     0.030 C 
HETATM   28  C18 UNL     1      -7.759   4.697  -0.645  1.00  0.00     0.068 C 
HETATM   29  N5  UNL     1      -6.026   6.221  -0.033  1.00  0.00    -0.276 N 
ATOM     30  H5  UNL     1      -6.421   6.887  -0.697  1.00  0.00     0.193 HD
BRANCH  29  31
HETATM   31  O4  UNL     1      -4.905   6.498   0.751  1.00  0.00    -0.290 OA
HETATM   32  H40 UNL     1      -4.688   7.412   0.486  1.00  0.00     0.244 HD
ENDBRANCH  29  31
ENDBRANCH  24  27
ENDBRANCH  22  24
ENDBRANCH  21  22
ENDBRANCH  20  21
ENDBRANCH  19  20
ENDBRANCH  17  19
ENDBRANCH  14  17
ENDBRANCH  11  14
BRANCH  12  33
HETATM   33  O2  UNL     1      -0.217   0.450  -0.008  1.00  0.00    -0.290 OA
HETATM   34  H39 UNL     1       0.309   1.070   0.531  1.00  0.00     0.244 HD
ENDBRANCH  12  33
ENDBRANCH  10  11
ENDBRANCH   9  10
ENDBRANCH   7   9
ENDBRANCH   1   5
BRANCH   1  35
HETATM   35  N6  UNL     1       0.684  -3.381   2.395  1.00  0.00    -0.344 N 
HETATM   36  C19 UNL     1       2.020  -3.341   2.727  1.00  0.00     0.252 C 
HETATM   37  O5  UNL     1       2.465  -3.820   3.764  1.00  0.00    -0.268 OA
HETATM   38  H44 UNL     1       0.408  -3.171   1.445  1.00  0.00     0.163 HD
BRANCH  36  39
HETATM   39  C20 UNL     1       2.938  -2.707   1.737  1.00  0.00     0.032 A 
HETATM   40  C21 UNL     1       2.496  -1.809   0.763  1.00  0.00     0.019 A 
HETATM   41  C22 UNL     1       3.407  -1.251  -0.142  1.00  0.00     0.024 A 
HETATM   42  C23 UNL     1       4.776  -1.542  -0.078  1.00  0.00     0.008 A 
HETATM   43  C24 UNL     1       5.201  -2.465   0.883  1.00  0.00     0.024 A 
HETATM   44  C25 UNL     1       4.298  -3.029   1.793  1.00  0.00     0.019 A 
BRANCH  42  45
HETATM   45  N7  UNL     1       5.618  -1.006  -1.053  1.00  0.00    -0.287 NA
HETATM   46  H45 UNL     1       5.261  -0.132  -1.450  1.00  0.00     0.128 HD
BRANCH  45  47
HETATM   47  C26 UNL     1       7.051  -0.890  -0.789  1.00  0.00     0.151 C 
BRANCH  47  48
HETATM   48  C27 UNL     1       7.691   0.047  -1.794  1.00  0.00     0.038 A 
HETATM   49  C28 UNL     1       9.032  -0.106  -2.143  1.00  0.00     0.116 A 
HETATM   50  N8  UNL     1       9.676   0.721  -3.006  1.00  0.00    -0.348 N 
HETATM   51  C29 UNL     1       8.935   1.729  -3.519  1.00  0.00     0.140 A 
ATOM     52  H8  UNL     1      10.657   0.590  -3.252  1.00  0.00     0.167 HD
HETATM   53  C30 UNL     1       7.600   1.886  -3.162  1.00  0.00     0.146 A 
HETATM   54  N11 UNL     1       9.609   2.575  -4.410  1.00  0.00    -0.317 N 
HETATM   55  C31 UNL     1       6.884   3.018  -3.779  1.00  0.00     0.278 A 
HETATM   56  N9  UNL     1       6.943   1.070  -2.295  1.00  0.00    -0.350 N 
HETATM   57  O6  UNL     1       5.714   3.291  -3.533  1.00  0.00    -0.265 OA
HETATM   58  N10 UNL     1       7.623   3.771  -4.664  1.00  0.00    -0.298 N 
HETATM   59  C32 UNL     1       8.940   3.547  -4.936  1.00  0.00     0.159 A 
HETATM   60  H46 UNL     1       7.156   4.575  -5.053  1.00  0.00     0.171 HD
ATOM     61  H9  UNL     1       5.966   1.213  -2.039  1.00  0.00     0.166 HD
ATOM     62  H11 UNL     1      10.593   2.429  -4.635  1.00  0.00     0.170 HD
BRANCH  59  63
HETATM   63  N12 UNL     1       9.533   4.399  -5.806  1.00  0.00    -0.274 NA
HETATM   64  H47 UNL     1       8.969   4.727  -6.580  1.00  0.00     0.127 HD
HETATM   65  H48 UNL     1      10.443   4.059  -6.108  1.00  0.00     0.127 HD
ENDBRANCH  59  63
ENDBRANCH  47  48
ENDBRANCH  45  47
ENDBRANCH  42  45
ENDBRANCH  36  39
ENDBRANCH   1  35
TORSDOF 22
