REMARK  21 active torsions:
REMARK  status: ('A' for Active; 'I' for Inactive)
REMARK    1  A    between atoms: C2_2  and  C3_3 
REMARK    2  A    between atoms: C2_2  and  N10_65 
REMARK       I    between atoms: C3_3  and  N1_52 
REMARK    3  A    between atoms: C4_4  and  N1_52 
REMARK    4  A    between atoms: C12_12  and  C13_13 
REMARK    5  A    between atoms: C12_12  and  N2_53 
REMARK    6  A    between atoms: C13_13  and  C14_14 
REMARK    7  A    between atoms: C14_14  and  C15_15 
REMARK    8  A    between atoms: C15_15  and  C16_16 
REMARK    9  A    between atoms: C15_15  and  N3_54 
REMARK   10  A    between atoms: C16_16  and  O5_47 
REMARK   11  A    between atoms: C18_18  and  C19_19 
REMARK       I    between atoms: C18_18  and  N3_54 
REMARK   12  A    between atoms: C22_22  and  C25_25 
REMARK   13  A    between atoms: C25_25  and  C26_26 
REMARK   14  A    between atoms: C26_26  and  C27_27 
REMARK   15  A    between atoms: C31_31  and  N9_64 
REMARK   16  A    between atoms: C32_32  and  N8_63 
REMARK   17  A    between atoms: C33_33  and  C34_34 
REMARK       I    between atoms: C33_33  and  N10_65 
REMARK   18  A    between atoms: C34_34  and  C35_35 
REMARK   19  A    between atoms: C34_34  and  N11_66 
REMARK   20  A    between atoms: C38_38  and  O9_51 
REMARK       I    between atoms: C38_38  and  N11_66 
REMARK   21  A    between atoms: C39_39  and  O9_51 
ROOT
HETATM    1  C14 UNL     1       3.335   3.104   6.184  1.00  0.00     0.037 C 
ENDROOT
BRANCH   1   2
HETATM    2  C13 UNL     1       3.556   1.665   6.681  1.00  0.00     0.023 C 
BRANCH   2   3
HETATM    3  C12 UNL     1       2.331   1.080   7.393  1.00  0.00     0.135 C 
BRANCH   3   4
HETATM    4  N2  UNL     1       1.209   0.897   6.489  1.00  0.00    -0.280 N 
HETATM    5  C10 UNL     1       0.085   1.678   6.495  1.00  0.00     0.261 A 
HETATM    6  C7  UNL     1      -0.735   1.230   5.372  1.00  0.00     0.048 A 
HETATM    7  O2  UNL     1      -0.226   2.575   7.255  1.00  0.00    -0.267 OA
HETATM    8  C6  UNL     1      -0.077   0.181   4.758  1.00  0.00     0.050 A 
HETATM    9  C8  UNL     1      -1.942   1.704   4.906  1.00  0.00     0.020 A 
HETATM   10  C5  UNL     1      -0.587  -0.460   3.642  1.00  0.00     0.047 A 
HETATM   11  C11 UNL     1       1.179  -0.027   5.479  1.00  0.00     0.261 A 
HETATM   12  C4  UNL     1      -1.806   0.001   3.138  1.00  0.00     0.035 A 
HETATM   13  C9  UNL     1      -2.474   1.079   3.774  1.00  0.00     0.030 A 
HETATM   14  O3  UNL     1       2.017  -0.858   5.180  1.00  0.00    -0.267 OA
BRANCH  12  15
HETATM   15  N1  UNL     1      -2.429  -0.525   1.992  1.00  0.00    -0.325 N 
HETATM   16  C3  UNL     1      -2.008  -1.567   1.180  1.00  0.00     0.244 C 
HETATM   17  O1  UNL     1      -1.044  -2.298   1.388  1.00  0.00    -0.271 OA
HETATM   18  H44 UNL     1      -3.289  -0.059   1.694  1.00  0.00     0.169 HD
BRANCH  16  19
HETATM   19  C2  UNL     1      -2.935  -1.754  -0.051  1.00  0.00     0.172 C 
HETATM   20  C1  UNL     1      -2.555  -2.994  -0.853  1.00  0.00     0.042 C 
BRANCH  19  21
HETATM   21  N10 UNL     1      -2.880  -0.574  -0.915  1.00  0.00    -0.346 N 
HETATM   22  C33 UNL     1      -3.577   0.587  -0.647  1.00  0.00     0.241 C 
HETATM   23  O7  UNL     1      -4.285   0.677   0.355  1.00  0.00    -0.271 OA
HETATM   24  H50 UNL     1      -2.090  -0.499  -1.556  1.00  0.00     0.163 HD
BRANCH  22  25
HETATM   25  C34 UNL     1      -3.255   1.766  -1.607  1.00  0.00     0.182 C 
BRANCH  25  26
HETATM   26  C35 UNL     1      -4.006   3.085  -1.316  1.00  0.00     0.009 C 
HETATM   27  C36 UNL     1      -5.533   2.964  -1.354  1.00  0.00     0.012 C 
HETATM   28  C37 UNL     1      -3.552   3.718   0.004  1.00  0.00     0.012 C 
ENDBRANCH  25  26
BRANCH  25  29
HETATM   29  N11 UNL     1      -3.454   1.353  -2.996  1.00  0.00    -0.323 N 
HETATM   30  C38 UNL     1      -2.544   0.624  -3.693  1.00  0.00     0.362 C 
HETATM   31  O8  UNL     1      -1.446   0.304  -3.260  1.00  0.00    -0.238 OA
HETATM   32  H51 UNL     1      -4.384   1.352  -3.393  1.00  0.00     0.165 HD
BRANCH  30  33
HETATM   33  O9  UNL     1      -3.086   0.269  -4.876  1.00  0.00    -0.294 OA
BRANCH  33  34
HETATM   34  C39 UNL     1      -2.382  -0.618  -5.783  1.00  0.00     0.061 C 
HETATM   35  C40 UNL     1      -1.071   0.006  -6.268  1.00  0.00     0.046 C 
HETATM   36  C41 UNL     1      -3.324  -0.779  -6.986  1.00  0.00     0.046 C 
HETATM   37  C42 UNL     1      -2.169  -1.993  -5.142  1.00  0.00     0.046 C 
ENDBRANCH  33  34
ENDBRANCH  30  33
ENDBRANCH  25  29
ENDBRANCH  22  25
ENDBRANCH  19  21
ENDBRANCH  16  19
ENDBRANCH  12  15
ENDBRANCH   3   4
ENDBRANCH   2   3
ENDBRANCH   1   2
BRANCH   1  38
HETATM   38  C15 UNL     1       4.129   3.438   4.910  1.00  0.00     0.184 C 
BRANCH  38  39
HETATM   39  C16 UNL     1       5.639   3.374   5.192  1.00  0.00     0.281 C 
HETATM   40  O4  UNL     1       6.205   4.010   6.073  1.00  0.00    -0.263 OA
BRANCH  39  41
HETATM   41  O5  UNL     1       6.265   2.503   4.342  1.00  0.00    -0.325 OA
HETATM   42  C17 UNL     1       7.672   2.392   4.562  1.00  0.00     0.213 C 
ENDBRANCH  39  41
ENDBRANCH  38  39
BRANCH  38  43
HETATM   43  N3  UNL     1       3.728   2.574   3.794  1.00  0.00    -0.343 N 
HETATM   44  C18 UNL     1       2.519   2.702   3.154  1.00  0.00     0.252 C 
HETATM   45  O6  UNL     1       1.697   3.567   3.431  1.00  0.00    -0.268 OA
HETATM   46  H45 UNL     1       4.428   1.930   3.444  1.00  0.00     0.163 HD
BRANCH  44  47
HETATM   47  C19 UNL     1       2.230   1.719   2.076  1.00  0.00     0.032 A 
HETATM   48  C20 UNL     1       1.362   2.094   1.044  1.00  0.00     0.017 A 
HETATM   49  C21 UNL     1       1.032   1.185   0.036  1.00  0.00     0.008 A 
HETATM   50  C22 UNL     1       1.551  -0.116   0.062  1.00  0.00    -0.058 A 
HETATM   51  C23 UNL     1       2.415  -0.489   1.100  1.00  0.00     0.008 A 
HETATM   52  C24 UNL     1       2.752   0.421   2.104  1.00  0.00     0.017 A 
BRANCH  50  53
HETATM   53  C25 UNL     1       1.186  -1.110  -1.012  1.00  0.00     0.044 C 
BRANCH  53  54
HETATM   54  C26 UNL     1       2.167  -1.064  -2.185  1.00  0.00     0.063 C 
BRANCH  54  55
HETATM   55  C27 UNL     1       1.780  -2.001  -3.296  1.00  0.00     0.025 A 
HETATM   56  C28 UNL     1       1.990  -1.661  -4.620  1.00  0.00     0.114 A 
HETATM   57  N4  UNL     1       1.677  -2.482  -5.652  1.00  0.00    -0.348 N 
HETATM   58  C29 UNL     1       1.150  -3.678  -5.365  1.00  0.00     0.138 A 
ATOM     59  H4  UNL     1       1.838  -2.197  -6.618  1.00  0.00     0.167 HD
HETATM   60  C30 UNL     1       0.956  -4.034  -4.026  1.00  0.00     0.116 A 
HETATM   61  N7  UNL     1       0.825  -4.469  -6.381  1.00  0.00    -0.317 N 
HETATM   62  C31 UNL     1       0.402  -5.296  -3.852  1.00  0.00     0.111 A 
HETATM   63  N5  UNL     1       1.275  -3.213  -2.980  1.00  0.00    -0.353 N 
HETATM   64  N6  UNL     1       0.067  -6.105  -4.866  1.00  0.00    -0.322 N 
HETATM   65  C32 UNL     1       0.281  -5.646  -6.094  1.00  0.00     0.157 A 
ATOM     66  H6  UNL     1      -0.333  -7.029  -4.703  1.00  0.00     0.169 HD
ATOM     67  H5  UNL     1       1.139  -3.501  -2.011  1.00  0.00     0.166 HD
ATOM     68  H7  UNL     1       0.987  -4.183  -7.347  1.00  0.00     0.170 HD
BRANCH  62  69
HETATM   69  N9  UNL     1       0.168  -5.785  -2.539  1.00  0.00    -0.287 NA
HETATM   70  H48 UNL     1      -0.409  -5.100  -2.053  1.00  0.00     0.125 HD
HETATM   71  H49 UNL     1       1.057  -5.764  -2.041  1.00  0.00     0.125 HD
ENDBRANCH  62  69
BRANCH  65  72
HETATM   72  N8  UNL     1      -0.059  -6.467  -7.147  1.00  0.00    -0.274 NA
HETATM   73  H46 UNL     1       0.497  -6.249  -7.963  1.00  0.00     0.127 HD
HETATM   74  H47 UNL     1      -0.083  -7.431  -6.842  1.00  0.00     0.127 HD
ENDBRANCH  65  72
ENDBRANCH  54  55
ENDBRANCH  53  54
ENDBRANCH  50  53
ENDBRANCH  44  47
ENDBRANCH  38  43
ENDBRANCH   1  38
TORSDOF 21
