REMARK  0 active torsions:
REMARK  status: ('A' for Active; 'I' for Inactive)
REMARK       I    between atoms: O11_11  and  C23_44 
REMARK       I    between atoms: O12_12  and  C28_49 
REMARK       I    between atoms: O14_14  and  C38_59 
REMARK       I    between atoms: O19_19  and  C54_75 
REMARK       I    between atoms: O21_21  and  C65_86 
REMARK       I    between atoms: C1_22  and  C45_66 
REMARK       I    between atoms: C1_22  and  N1_88 
REMARK       I    between atoms: C2_23  and  C3_24 
REMARK       I    between atoms: C2_23  and  C40_61 
REMARK       I    between atoms: C2_23  and  N1_88 
REMARK       I    between atoms: C3_24  and  N2_89 
REMARK       I    between atoms: C4_25  and  N2_89 
REMARK       I    between atoms: C6_27  and  C38_59 
REMARK       I    between atoms: C10_31  and  C34_55 
REMARK       I    between atoms: C13_34  and  C31_52 
REMARK       I    between atoms: C15_36  and  C23_44 
REMARK       I    between atoms: C23_44  and  C25_46 
REMARK       I    between atoms: C31_52  and  C32_53 
REMARK       I    between atoms: C32_53  and  C33_54 
REMARK       I    between atoms: C33_54  and  N9_96 
REMARK       I    between atoms: C34_55  and  C35_56 
REMARK       I    between atoms: C40_61  and  C42_63 
REMARK       I    between atoms: C42_63  and  C43_64 
REMARK       I    between atoms: C43_64  and  N10_97 
REMARK       I    between atoms: C45_66  and  N11_98 
REMARK       I    between atoms: C48_69  and  C49_70 
REMARK       I    between atoms: C48_69  and  N11_98 
REMARK       I    between atoms: C49_70  and  C65_86 
REMARK       I    between atoms: C49_70  and  N12_99 
REMARK       I    between atoms: C50_71  and  C51_72 
REMARK       I    between atoms: C50_71  and  N12_99 
REMARK       I    between atoms: C51_72  and  C63_84 
REMARK       I    between atoms: C51_72  and  N13_100 
REMARK       I    between atoms: C52_73  and  C53_74 
REMARK       I    between atoms: C52_73  and  N13_100 
REMARK       I    between atoms: C53_74  and  C54_75 
REMARK       I    between atoms: C54_75  and  C55_76 
REMARK       I    between atoms: C56_77  and  C57_78 
REMARK       I    between atoms: C57_78  and  C59_80 
REMARK       I    between atoms: C59_80  and  C60_81 
REMARK       I    between atoms: C63_84  and  C64_85 
REMARK       I    between atoms: C64_85  and  N14_101 
ROOT
HETATM    1  O1  UNL     1       1.601  -0.601   2.611  1.00  0.00    -0.266 OA
HETATM    2  O2  UNL     1       1.690   2.885   0.474  1.00  0.00    -0.271 OA
HETATM    3  O3  UNL     1      -0.923   3.473  -2.622  1.00  0.00    -0.271 OA
HETATM    4  O4  UNL     1      -3.053  -0.542  -3.412  1.00  0.00    -0.271 OA
HETATM    5  O5  UNL     1      -6.893   0.659  -1.664  1.00  0.00    -0.272 OA
HETATM    6  O6  UNL     1      -6.347  -2.086   0.178  1.00  0.00    -0.271 OA
HETATM    7  O7  UNL     1      -3.885  -0.286   0.348  1.00  0.00    -0.271 OA
HETATM    8  O8  UNL     1      -2.490   1.947   2.159  1.00  0.00    -0.271 OA
HETATM    9  O9  UNL     1      -3.927   3.387  -0.554  1.00  0.00    -0.263 OA
HETATM   10  O10 UNL     1      -2.822   4.820   0.836  1.00  0.00    -0.312 OA
HETATM   11  O11 UNL     1      -3.812   1.184   5.340  1.00  0.00    -0.383 OA
HETATM   12  O12 UNL     1      -1.529  -4.463   7.131  1.00  0.00    -0.361 OA
HETATM   13  O13 UNL     1      -5.205  -2.797   3.839  1.00  0.00    -0.280 OA
HETATM   14  O14 UNL     1       0.524  -0.379  -1.111  1.00  0.00    -0.393 OA
HETATM   15  O15 UNL     1      -0.019   5.428   5.430  1.00  0.00    -0.273 OA
HETATM   16  O16 UNL     1       5.926   0.575  -0.330  1.00  0.00    -0.271 OA
HETATM   17  O17 UNL     1       4.184   0.541  -3.603  1.00  0.00    -0.271 OA
HETATM   18  O18 UNL     1       7.830  -0.103  -6.749  1.00  0.00    -0.274 OA
HETATM   19  O19 UNL     1       7.607  -2.956  -7.784  1.00  0.00    -0.391 OA
HETATM   20  O20 UNL     1       8.198   1.924  -2.484  1.00  0.00    -0.274 OA
HETATM   21  O21 UNL     1       6.160   3.974  -0.578  1.00  0.00    -0.393 OA
HETATM   22  C1  UNL     1       2.403   0.286   2.358  1.00  0.00     0.268 C 
HETATM   23  C2  UNL     1       0.901   2.195   2.674  1.00  0.00     0.181 C 
HETATM   24  C3  UNL     1       0.747   2.847   1.274  1.00  0.00     0.241 C 
HETATM   25  C4  UNL     1      -0.744   4.058  -0.285  1.00  0.00     0.205 C 
HETATM   26  C5  UNL     1      -1.011   3.091  -1.454  1.00  0.00     0.243 C 
HETATM   27  C6  UNL     1      -1.436   0.751  -2.130  1.00  0.00     0.200 C 
HETATM   28  C7  UNL     1      -2.831   0.454  -2.716  1.00  0.00     0.243 C 
HETATM   29  C8  UNL     1      -5.098   1.361  -3.130  1.00  0.00     0.225 C 
HETATM   30  C9  UNL     1      -6.020   0.335  -2.463  1.00  0.00     0.236 C 
HETATM   31  C10 UNL     1      -6.364  -2.145  -2.239  1.00  0.00     0.177 C 
HETATM   32  C11 UNL     1      -5.710  -2.345  -0.849  1.00  0.00     0.243 C 
HETATM   33  C12 UNL     1      -3.637  -3.366  -1.883  1.00  0.00     0.153 C 
HETATM   34  C13 UNL     1      -3.669  -2.708   0.524  1.00  0.00     0.179 C 
HETATM   35  C14 UNL     1      -3.702  -1.253   1.092  1.00  0.00     0.241 C 
HETATM   36  C15 UNL     1      -3.785   0.125   3.152  1.00  0.00     0.210 C 
HETATM   37  C16 UNL     1      -3.613   1.476   2.397  1.00  0.00     0.245 C 
HETATM   38  C17 UNL     1      -6.058   1.544   1.792  1.00  0.00     0.153 C 
HETATM   39  C18 UNL     1      -4.672   3.617   1.771  1.00  0.00     0.182 C 
HETATM   40  C19 UNL     1      -3.793   3.915   0.544  1.00  0.00     0.282 C 
HETATM   41  C20 UNL     1      -1.864   5.122  -0.204  1.00  0.00     0.159 C 
HETATM   42  C21 UNL     1      -1.280   6.485   0.165  1.00  0.00     0.042 C 
HETATM   43  C22 UNL     1      -4.281   4.376   3.042  1.00  0.00     0.043 C 
HETATM   44  C23 UNL     1      -2.996   0.349   4.488  1.00  0.00     0.185 C 
HETATM   45  C24 UNL     1      -3.038   2.005   6.208  1.00  0.00     0.202 C 
HETATM   46  C25 UNL     1      -2.625  -0.930   5.225  1.00  0.00    -0.027 A 
HETATM   47  C26 UNL     1      -3.516  -1.557   6.107  1.00  0.00     0.012 A 
HETATM   48  C27 UNL     1      -3.161  -2.743   6.756  1.00  0.00     0.037 A 
HETATM   49  C28 UNL     1      -1.910  -3.304   6.523  1.00  0.00     0.065 A 
HETATM   50  C29 UNL     1      -1.011  -2.701   5.654  1.00  0.00     0.037 A 
HETATM   51  C30 UNL     1      -1.366  -1.518   5.004  1.00  0.00     0.012 A 
HETATM   52  C31 UNL     1      -3.931  -3.920   1.440  1.00  0.00     0.044 C 
HETATM   53  C32 UNL     1      -5.360  -4.204   1.893  1.00  0.00     0.099 C 
HETATM   54  C33 UNL     1      -5.866  -3.185   2.883  1.00  0.00     0.195 C 
HETATM   55  C34 UNL     1      -7.904  -2.084  -2.180  1.00  0.00     0.038 C 
HETATM   56  C35 UNL     1      -8.581  -3.426  -1.820  1.00  0.00    -0.020 C 
HETATM   57  C36 UNL     1      -8.365  -4.500  -2.887  1.00  0.00     0.009 C 
HETATM   58  C37 UNL     1     -10.083  -3.204  -1.615  1.00  0.00     0.009 C 
HETATM   59  C38 UNL     1      -0.821  -0.545  -1.582  1.00  0.00     0.202 C 
HETATM   60  C39 UNL     1       1.471  -0.276  -2.167  1.00  0.00     0.201 C 
HETATM   61  C40 UNL     1       0.651   3.144   3.870  1.00  0.00     0.026 C 
HETATM   62  C41 UNL     1       0.584   2.287   5.155  1.00  0.00     0.013 C 
HETATM   63  C42 UNL     1       1.685   4.290   4.101  1.00  0.00     0.080 C 
HETATM   64  C43 UNL     1       1.166   5.266   5.160  1.00  0.00     0.219 C 
HETATM   65  C44 UNL     1       2.039   5.119   2.866  1.00  0.00     0.020 C 
HETATM   66  C45 UNL     1       3.656   0.087   1.540  1.00  0.00     0.099 C 
HETATM   67  C46 UNL     1       4.521  -0.891   1.852  1.00  0.00     0.004 C 
HETATM   68  C47 UNL     1       4.423  -1.859   2.990  1.00  0.00     0.038 C 
HETATM   69  C48 UNL     1       4.846   1.164  -0.385  1.00  0.00     0.247 C 
HETATM   70  C49 UNL     1       4.582   2.275  -1.433  1.00  0.00     0.205 C 
HETATM   71  C50 UNL     1       5.268   1.121  -3.495  1.00  0.00     0.241 C 
HETATM   72  C51 UNL     1       6.480   0.748  -4.375  1.00  0.00     0.185 C 
HETATM   73  C52 UNL     1       6.642  -0.375  -6.600  1.00  0.00     0.221 C 
HETATM   74  C53 UNL     1       5.894  -1.238  -7.590  1.00  0.00     0.138 C 
HETATM   75  C54 UNL     1       6.256  -2.714  -7.400  1.00  0.00     0.149 C 
HETATM   76  C55 UNL     1       5.985  -3.214  -6.001  1.00  0.00     0.001 C 
HETATM   77  C56 UNL     1       6.887  -3.733  -5.150  1.00  0.00    -0.024 C 
HETATM   78  C57 UNL     1       6.658  -4.185  -3.719  1.00  0.00     0.004 C 
HETATM   79  C58 UNL     1       6.788  -5.708  -3.651  1.00  0.00     0.014 C 
HETATM   80  C59 UNL     1       5.334  -3.689  -3.091  1.00  0.00     0.012 C 
HETATM   81  C60 UNL     1       5.143  -3.996  -1.589  1.00  0.00    -0.022 C 
HETATM   82  C61 UNL     1       3.802  -3.427  -1.116  1.00  0.00     0.009 C 
HETATM   83  C62 UNL     1       6.270  -3.436  -0.721  1.00  0.00     0.009 C 
HETATM   84  C63 UNL     1       7.457  -0.113  -3.568  1.00  0.00     0.137 C 
HETATM   85  C64 UNL     1       8.341   0.721  -2.672  1.00  0.00     0.217 C 
HETATM   86  C65 UNL     1       4.774   3.650  -0.755  1.00  0.00     0.146 C 
HETATM   87  C66 UNL     1       4.146   4.769  -1.577  1.00  0.00     0.042 C 
HETATM   88  N1  UNL     1       2.241   1.616   2.705  1.00  0.00    -0.342 N 
HETATM   89  N2  UNL     1      -0.481   3.392   0.996  1.00  0.00    -0.344 N 
HETATM   90  N3  UNL     1      -1.388   1.813  -1.124  1.00  0.00    -0.344 N 
HETATM   91  N4  UNL     1      -3.788   1.414  -2.517  1.00  0.00    -0.350 N 
HETATM   92  N5  UNL     1      -5.758  -0.966  -2.862  1.00  0.00    -0.346 N 
HETATM   93  N6  UNL     1      -4.377  -2.763  -0.781  1.00  0.00    -0.341 N 
HETATM   94  N7  UNL     1      -3.339  -1.070   2.408  1.00  0.00    -0.343 N 
HETATM   95  N8  UNL     1      -4.761   2.169   2.022  1.00  0.00    -0.341 N 
HETATM   96  N9  UNL     1      -7.128  -2.726   2.661  1.00  0.00    -0.273 NA
HETATM   97  N10 UNL     1       2.125   6.015   5.778  1.00  0.00    -0.370 N 
HETATM   98  N11 UNL     1       3.792   0.986   0.491  1.00  0.00    -0.321 N 
HETATM   99  N12 UNL     1       5.495   2.097  -2.558  1.00  0.00    -0.344 N 
HETATM  100  N13 UNL     1       5.914   0.003  -5.504  1.00  0.00    -0.347 N 
HETATM  101  N14 UNL     1       9.329   0.023  -2.042  1.00  0.00    -0.370 N 
HETATM  102  H1  UNL     1      -2.262  -4.769   7.689  1.00  0.00     0.217 HD
HETATM  103  H2  UNL     1       8.153  -2.233  -7.418  1.00  0.00     0.210 HD
HETATM  104  H3  UNL     1       6.651   3.166  -0.338  1.00  0.00     0.210 HD
HETATM  105  H90 UNL     1       2.975   2.231   2.374  1.00  0.00     0.163 HD
HETATM  106  H91 UNL     1      -1.283   3.041   1.526  1.00  0.00     0.163 HD
HETATM  107  H92 UNL     1      -1.625   1.582  -0.164  1.00  0.00     0.163 HD
HETATM  108  H93 UNL     1      -3.649   2.087  -1.760  1.00  0.00     0.163 HD
HETATM  109  H94 UNL     1      -4.819  -1.086  -3.245  1.00  0.00     0.163 HD
HETATM  110  H95 UNL     1      -3.400  -1.902   2.989  1.00  0.00     0.163 HD
HETATM  111  H96 UNL     1      -7.339  -2.551   1.675  1.00  0.00     0.127 HD
HETATM  112  H97 UNL     1      -7.401  -1.960   3.263  1.00  0.00     0.127 HD
HETATM  113  H98 UNL     1       3.112   5.815   5.698  1.00  0.00     0.159 HD
HETATM  114  H99 UNL     1       1.821   6.638   6.515  1.00  0.00     0.159 HD
HETATM  115  HA0 UNL     1       2.958   1.559   0.319  1.00  0.00     0.169 HD
HETATM  116  HA1 UNL     1       6.464   2.390  -2.410  1.00  0.00     0.163 HD
HETATM  117  HA2 UNL     1       4.947  -0.295  -5.398  1.00  0.00     0.163 HD
HETATM  118  HA3 UNL     1       9.881   0.522  -1.357  1.00  0.00     0.159 HD
HETATM  119  HA4 UNL     1       9.317  -0.987  -1.992  1.00  0.00     0.159 HD
ENDROOT
TORSDOF 34
