REMARK  0 active torsions:
REMARK  status: ('A' for Active; 'I' for Inactive)
REMARK       I    between atoms: C2_2  and  C3_3 
REMARK       I    between atoms: C3_3  and  C5_5 
REMARK       I    between atoms: C5_5  and  C6_6 
REMARK       I    between atoms: C5_5  and  N3_101 
REMARK       I    between atoms: C6_6  and  C7_7 
REMARK       I    between atoms: C6_6  and  O5_85 
REMARK       I    between atoms: C7_7  and  C8_8 
REMARK       I    between atoms: C8_8  and  N1_99 
REMARK       I    between atoms: C12_12  and  C13_13 
REMARK       I    between atoms: C13_13  and  C14_14 
REMARK       I    between atoms: C13_13  and  O4_84 
REMARK       I    between atoms: C14_14  and  C16_16 
REMARK       I    between atoms: C16_16  and  N2_100 
REMARK       I    between atoms: C17_17  and  C19_19 
REMARK       I    between atoms: C17_17  and  N2_100 
REMARK       I    between atoms: C19_19  and  C20_20 
REMARK       I    between atoms: C19_19  and  O3_83 
REMARK       I    between atoms: C29_29  and  C30_30 
REMARK       I    between atoms: C29_29  and  N3_101 
REMARK       I    between atoms: C30_30  and  C31_31 
REMARK       I    between atoms: C30_30  and  N4_102 
REMARK       I    between atoms: C34_34  and  C35_35 
REMARK       I    between atoms: C34_34  and  N4_102 
REMARK       I    between atoms: C35_35  and  C36_36 
REMARK       I    between atoms: C35_35  and  N5_103 
REMARK       I    between atoms: C40_40  and  O9_89 
REMARK       I    between atoms: C40_40  and  N5_103 
REMARK       I    between atoms: C41_41  and  C42_42 
REMARK       I    between atoms: C41_41  and  O9_89 
REMARK       I    between atoms: C45_45  and  N6_104 
REMARK       I    between atoms: C48_48  and  C49_49 
REMARK       I    between atoms: C48_48  and  N6_104 
REMARK       I    between atoms: C49_49  and  C50_50 
REMARK       I    between atoms: C49_49  and  N9_107 
REMARK       I    between atoms: C50_50  and  C51_51 
REMARK       I    between atoms: C51_51  and  C52_52 
REMARK       I    between atoms: C52_52  and  N7_105 
REMARK       I    between atoms: C53_53  and  N7_105 
REMARK       I    between atoms: C53_53  and  N8_106 
REMARK       I    between atoms: C54_54  and  C55_55 
REMARK       I    between atoms: C54_54  and  N9_107 
REMARK       I    between atoms: C55_55  and  C56_56 
REMARK       I    between atoms: C55_55  and  N10_108 
REMARK       I    between atoms: C59_59  and  C60_60 
REMARK       I    between atoms: C59_59  and  N10_108 
REMARK       I    between atoms: C60_60  and  C61_61 
REMARK       I    between atoms: C61_61  and  O14_94 
REMARK       I    between atoms: C62_62  and  C63_63 
REMARK       I    between atoms: C62_62  and  O14_94 
REMARK       I    between atoms: C63_63  and  O15_95 
REMARK       I    between atoms: C64_64  and  C65_65 
REMARK       I    between atoms: C64_64  and  O15_95 
REMARK       I    between atoms: C65_65  and  O16_96 
REMARK       I    between atoms: C66_66  and  C67_67 
REMARK       I    between atoms: C66_66  and  O16_96 
REMARK       I    between atoms: C67_67  and  O17_97 
REMARK       I    between atoms: C68_68  and  C69_69 
REMARK       I    between atoms: C68_68  and  O17_97 
REMARK       I    between atoms: C69_69  and  N11_109 
REMARK       I    between atoms: C70_70  and  C71_71 
REMARK       I    between atoms: C70_70  and  N11_109 
REMARK       I    between atoms: C77_77  and  C80_80 
REMARK       I    between atoms: C78_78  and  C79_79 
ROOT
HETATM    1  C1  UNL     1      -8.150   4.245   2.463  1.00  0.00     0.005 C 
HETATM    2  C2  UNL     1      -6.735   4.628   2.872  1.00  0.00     0.002 C 
HETATM    3  C3  UNL     1      -5.854   3.442   3.328  1.00  0.00     0.006 C 
HETATM    4  C4  UNL     1      -4.514   3.995   3.827  1.00  0.00     0.012 C 
HETATM    5  C5  UNL     1      -5.719   2.266   2.291  1.00  0.00     0.119 C 
HETATM    6  C6  UNL     1      -4.912   2.596   0.987  1.00  0.00     0.152 C 
HETATM    7  C7  UNL     1      -4.650   1.412   0.035  1.00  0.00     0.137 C 
HETATM    8  C8  UNL     1      -5.855   0.578  -0.381  1.00  0.00     0.222 C 
HETATM    9  C9  UNL     1      -4.306  -0.773  -1.863  1.00  0.00     0.126 C 
HETATM   10  C10 UNL     1      -4.379  -2.269  -2.126  1.00  0.00     0.022 C 
HETATM   11  C11 UNL     1      -5.842  -2.479  -2.483  1.00  0.00     0.029 C 
HETATM   12  C12 UNL     1      -6.570  -1.512  -1.535  1.00  0.00     0.117 C 
HETATM   13  C13 UNL     1      -8.018  -1.147  -1.966  1.00  0.00     0.156 C 
HETATM   14  C14 UNL     1      -8.224  -0.790  -3.449  1.00  0.00     0.105 C 
HETATM   15  C15 UNL     1      -9.681  -0.384  -3.722  1.00  0.00     0.022 C 
HETATM   16  C16 UNL     1      -7.313   0.310  -3.970  1.00  0.00     0.224 C 
HETATM   17  C17 UNL     1      -6.822   2.748  -3.838  1.00  0.00     0.113 C 
HETATM   18  C18 UNL     1      -5.290   2.745  -3.823  1.00  0.00     0.035 C 
HETATM   19  C19 UNL     1      -7.368   3.994  -3.083  1.00  0.00     0.173 C 
HETATM   20  C20 UNL     1      -8.883   4.027  -2.987  1.00  0.00    -0.028 A 
HETATM   21  C21 UNL     1      -9.508   3.953  -1.733  1.00  0.00     0.010 A 
HETATM   22  C22 UNL     1     -10.900   3.967  -1.633  1.00  0.00     0.001 A 
HETATM   23  C23 UNL     1     -11.681   4.057  -2.783  1.00  0.00     0.000 A 
HETATM   24  C24 UNL     1     -11.073   4.134  -4.034  1.00  0.00     0.001 A 
HETATM   25  C25 UNL     1      -9.681   4.121  -4.137  1.00  0.00     0.010 A 
HETATM   26  C26 UNL     1      -9.433  -2.268  -0.396  1.00  0.00     0.202 C 
HETATM   27  C27 UNL     1      -4.662   4.585  -0.310  1.00  0.00     0.202 C 
HETATM   28  C28 UNL     1      -6.475   0.192   3.424  1.00  0.00     0.153 C 
HETATM   29  C29 UNL     1      -4.008   0.636   3.165  1.00  0.00     0.243 C 
HETATM   30  C30 UNL     1      -3.583  -0.705   3.857  1.00  0.00     0.180 C 
HETATM   31  C31 UNL     1      -3.172  -0.501   5.342  1.00  0.00     0.009 C 
HETATM   32  C32 UNL     1      -4.309  -0.018   6.244  1.00  0.00     0.012 C 
HETATM   33  C33 UNL     1      -1.964   0.431   5.492  1.00  0.00     0.012 C 
HETATM   34  C34 UNL     1      -4.633  -2.482   2.502  1.00  0.00     0.241 C 
HETATM   35  C35 UNL     1      -5.468  -3.792   2.584  1.00  0.00     0.184 C 
HETATM   36  C36 UNL     1      -5.451  -4.626   1.274  1.00  0.00     0.010 C 
HETATM   37  C37 UNL     1      -4.102  -5.229   0.889  1.00  0.00     0.012 C 
HETATM   38  C38 UNL     1      -6.520  -5.721   1.268  1.00  0.00     0.012 C 
HETATM   39  C39 UNL     1      -6.463  -4.913   4.603  1.00  0.00     0.156 C 
HETATM   40  C40 UNL     1      -4.063  -5.096   4.240  1.00  0.00     0.363 C 
HETATM   41  C41 UNL     1      -1.729  -5.056   3.924  1.00  0.00     0.219 C 
HETATM   42  C42 UNL     1      -0.749  -4.169   3.204  1.00  0.00    -0.034 A 
HETATM   43  C43 UNL     1      -0.443  -4.404   1.858  1.00  0.00     0.011 A 
HETATM   44  C44 UNL     1       0.331  -3.495   1.131  1.00  0.00     0.030 A 
HETATM   45  C45 UNL     1       0.810  -2.335   1.738  1.00  0.00     0.034 A 
HETATM   46  C46 UNL     1       0.557  -2.128   3.099  1.00  0.00     0.030 A 
HETATM   47  C47 UNL     1      -0.221  -3.033   3.826  1.00  0.00     0.011 A 
HETATM   48  C48 UNL     1       1.694  -1.220  -0.324  1.00  0.00     0.245 C 
HETATM   49  C49 UNL     1       1.900   0.244  -0.790  1.00  0.00     0.177 C 
HETATM   50  C50 UNL     1       0.532   0.942  -0.761  1.00  0.00     0.036 C 
HETATM   51  C51 UNL     1       0.630   2.461  -0.922  1.00  0.00     0.022 C 
HETATM   52  C52 UNL     1      -0.717   3.142  -0.663  1.00  0.00     0.124 C 
HETATM   53  C53 UNL     1      -0.649   3.727   1.721  1.00  0.00     0.313 C 
HETATM   54  C54 UNL     1       3.834   0.077  -2.291  1.00  0.00     0.241 C 
HETATM   55  C55 UNL     1       4.234  -0.239  -3.751  1.00  0.00     0.180 C 
HETATM   56  C56 UNL     1       5.735  -0.003  -4.020  1.00  0.00     0.009 C 
HETATM   57  C57 UNL     1       6.099   1.479  -3.864  1.00  0.00     0.012 C 
HETATM   58  C58 UNL     1       6.132  -0.460  -5.428  1.00  0.00     0.012 C 
HETATM   59  C59 UNL     1       2.592  -1.978  -4.385  1.00  0.00     0.220 C 
HETATM   60  C60 UNL     1       2.271  -3.457  -4.473  1.00  0.00     0.129 C 
HETATM   61  C61 UNL     1       3.466  -4.336  -4.804  1.00  0.00     0.177 C 
HETATM   62  C62 UNL     1       5.384  -5.319  -3.770  1.00  0.00     0.193 C 
HETATM   63  C63 UNL     1       6.553  -4.347  -3.958  1.00  0.00     0.193 C 
HETATM   64  C64 UNL     1       6.749  -3.770  -1.639  1.00  0.00     0.193 C 
HETATM   65  C65 UNL     1       7.092  -2.608  -0.704  1.00  0.00     0.193 C 
HETATM   66  C66 UNL     1       8.925  -1.419  -1.714  1.00  0.00     0.193 C 
HETATM   67  C67 UNL     1       8.668   0.045  -1.332  1.00  0.00     0.193 C 
HETATM   68  C68 UNL     1       9.481   0.021   0.919  1.00  0.00     0.187 C 
HETATM   69  C69 UNL     1      10.301   0.871   1.889  1.00  0.00     0.149 C 
HETATM   70  C70 UNL     1      12.669   1.330   2.385  1.00  0.00     0.251 C 
HETATM   71  C71 UNL     1      14.039   1.498   1.828  1.00  0.00     0.034 A 
HETATM   72  C72 UNL     1      14.911   2.392   2.459  1.00  0.00     0.049 A 
HETATM   73  C73 UNL     1      16.204   2.590   1.991  1.00  0.00     0.060 A 
HETATM   74  C74 UNL     1      16.649   1.867   0.864  1.00  0.00     0.059 A 
HETATM   75  C75 UNL     1      15.785   0.969   0.250  1.00  0.00     0.033 A 
HETATM   76  C76 UNL     1      14.485   0.774   0.722  1.00  0.00     0.019 A 
HETATM   77  C77 UNL     1      18.712   2.914   1.011  1.00  0.00     0.043 A 
HETATM   78  C78 UNL     1      18.273   3.631   2.128  1.00  0.00     0.043 A 
HETATM   79  C79 UNL     1      19.118   4.632   2.855  1.00  0.00     0.144 C 
HETATM   80  C80 UNL     1      20.092   3.036   0.441  1.00  0.00     0.144 C 
HETATM   81  O1  UNL     1      -6.981   0.753   0.085  1.00  0.00    -0.273 OA
HETATM   82  O2  UNL     1      -6.641   0.147  -4.987  1.00  0.00    -0.273 OA
HETATM   83  O3  UNL     1      -6.916   5.201  -3.704  1.00  0.00    -0.389 OA
HETATM   84  O4  UNL     1      -8.859  -2.299  -1.698  1.00  0.00    -0.388 OA
HETATM   85  O5  UNL     1      -5.575   3.641   0.247  1.00  0.00    -0.388 OA
HETATM   86  O6  UNL     1      -3.100   1.417   2.840  1.00  0.00    -0.271 OA
HETATM   87  O7  UNL     1      -4.287  -1.957   1.448  1.00  0.00    -0.271 OA
HETATM   88  O8  UNL     1      -3.933  -5.907   5.146  1.00  0.00    -0.238 OA
HETATM   89  O9  UNL     1      -3.026  -4.580   3.545  1.00  0.00    -0.299 OA
HETATM   90  O10 UNL     1       1.656  -2.156  -1.120  1.00  0.00    -0.271 OA
HETATM   91  O11 UNL     1       0.074   4.702   1.592  1.00  0.00    -0.248 OA
HETATM   92  O12 UNL     1       4.627   0.095  -1.352  1.00  0.00    -0.271 OA
HETATM   93  O13 UNL     1       1.734  -1.124  -4.612  1.00  0.00    -0.274 OA
HETATM   94  O14 UNL     1       4.157  -4.615  -3.586  1.00  0.00    -0.389 OA
HETATM   95  O15 UNL     1       6.598  -3.297  -2.983  1.00  0.00    -0.387 OA
HETATM   96  O16 UNL     1       8.499  -2.336  -0.701  1.00  0.00    -0.387 OA
HETATM   97  O17 UNL     1       9.629   0.562  -0.401  1.00  0.00    -0.387 OA
HETATM   98  O18 UNL     1      12.448   1.596   3.560  1.00  0.00    -0.268 OA
HETATM   99  N1  UNL     1      -5.615  -0.421  -1.317  1.00  0.00    -0.345 N 
HETATM  100  N2  UNL     1      -7.364   1.501  -3.289  1.00  0.00    -0.354 N 
HETATM  101  N3  UNL     1      -5.340   1.000   2.997  1.00  0.00    -0.347 N 
HETATM  102  N4  UNL     1      -4.482  -1.850   3.727  1.00  0.00    -0.346 N 
HETATM  103  N5  UNL     1      -5.272  -4.532   3.859  1.00  0.00    -0.319 N 
HETATM  104  N6  UNL     1       1.462  -1.298   1.044  1.00  0.00    -0.325 N 
HETATM  105  N7  UNL     1      -1.158   2.973   0.707  1.00  0.00    -0.343 N 
HETATM  106  N8  UNL     1      -1.006   3.253   2.939  1.00  0.00    -0.352 N 
HETATM  107  N9  UNL     1       2.472   0.266  -2.125  1.00  0.00    -0.346 N 
HETATM  108  N10 UNL     1       3.859  -1.639  -3.977  1.00  0.00    -0.347 N 
HETATM  109  N11 UNL     1      11.703   0.897   1.506  1.00  0.00    -0.355 N 
HETATM  110  N12 UNL     1      17.892   2.029   0.379  1.00  0.00    -0.355 N 
ATOM    111  H12 UNL     1      18.211   1.506  -0.436  1.00  0.00     0.166 HD
HETATM  112  N13 UNL     1      17.012   3.465   2.615  1.00  0.00    -0.355 N 
ATOM    113  H13 UNL     1      16.690   3.989   3.429  1.00  0.00     0.166 HD
HETATM  114 BR1  UNL     1      19.031   6.350   1.943  1.00  0.00    -0.090 Br
HETATM  115 BR2  UNL     1      21.311   1.874   1.419  1.00  0.00    -0.090 Br
HETATM  116  HB2 UNL     1      -7.567   5.893  -3.491  1.00  0.00     0.210 HD
HETATM  117  HB3 UNL     1      -7.923   1.561  -2.446  1.00  0.00     0.163 HD
HETATM  118  HB4 UNL     1      -4.557  -2.478   4.519  1.00  0.00     0.163 HD
HETATM  119  HB5 UNL     1       1.682  -0.472   1.588  1.00  0.00     0.169 HD
HETATM  120  HB6 UNL     1      -1.589   2.101   0.985  1.00  0.00     0.164 HD
HETATM  121  HB7 UNL     1      -1.877   2.730   3.009  1.00  0.00     0.160 HD
HETATM  122  HB8 UNL     1      -0.795   3.872   3.709  1.00  0.00     0.160 HD
HETATM  123  HB9 UNL     1       1.898  -0.132  -2.872  1.00  0.00     0.163 HD
HETATM  124  HC0 UNL     1       4.381  -2.347  -3.460  1.00  0.00     0.163 HD
HETATM  125  HC1 UNL     1      11.864   0.994   0.510  1.00  0.00     0.162 HD
ENDROOT
TORSDOF 52
