REMARK  0 active torsions:
REMARK  status: ('A' for Active; 'I' for Inactive)
REMARK       I    between atoms: C2_2  and  C3_3 
REMARK       I    between atoms: C2_2  and  N12_94 
REMARK       I    between atoms: C3_3  and  N1_83 
REMARK       I    between atoms: C4_4  and  C5_5 
REMARK       I    between atoms: C4_4  and  C9_9 
REMARK       I    between atoms: C4_4  and  N1_83 
REMARK       I    between atoms: C5_5  and  C6_6 
REMARK       I    between atoms: C9_9  and  N2_84 
REMARK       I    between atoms: C10_10  and  C11_11 
REMARK       I    between atoms: C10_10  and  C15_15 
REMARK       I    between atoms: C10_10  and  N2_84 
REMARK       I    between atoms: C11_11  and  C12_12 
REMARK       I    between atoms: C15_15  and  N3_85 
REMARK       I    between atoms: C16_16  and  C17_17 
REMARK       I    between atoms: C16_16  and  N3_85 
REMARK       I    between atoms: C17_17  and  N4_86 
REMARK       I    between atoms: C18_18  and  N4_86 
REMARK       I    between atoms: C21_21  and  N5_87 
REMARK       I    between atoms: C24_24  and  C25_25 
REMARK       I    between atoms: C24_24  and  N5_87 
REMARK       I    between atoms: C25_25  and  N6_88 
REMARK       I    between atoms: C26_26  and  C27_27 
REMARK       I    between atoms: C26_26  and  N6_88 
REMARK       I    between atoms: C27_27  and  C28_28 
REMARK       I    between atoms: C27_27  and  N7_89 
REMARK       I    between atoms: C28_28  and  C29_29 
REMARK       I    between atoms: C32_32  and  C33_33 
REMARK       I    between atoms: C32_32  and  N7_89 
REMARK       I    between atoms: C33_33  and  C34_34 
REMARK       I    between atoms: C33_33  and  N8_90 
REMARK       I    between atoms: C34_34  and  C35_35 
REMARK       I    between atoms: C38_38  and  C39_39 
REMARK       I    between atoms: C38_38  and  N8_90 
REMARK       I    between atoms: C39_39  and  N9_91 
REMARK       I    between atoms: C41_41  and  C42_42 
REMARK       I    between atoms: C41_41  and  N9_91 
REMARK       I    between atoms: C42_42  and  C43_43 
REMARK       I    between atoms: C42_42  and  N10_92 
REMARK       I    between atoms: C43_43  and  O8_70 
REMARK       I    between atoms: C44_44  and  C45_45 
REMARK       I    between atoms: C44_44  and  N10_92 
REMARK       I    between atoms: C45_45  and  C46_46 
REMARK       I    between atoms: C45_45  and  N11_93 
REMARK       I    between atoms: C46_46  and  C47_47 
REMARK       I    between atoms: C47_47  and  O11_73 
REMARK       I    between atoms: C50_50  and  O15_77 
REMARK       I    between atoms: C53_53  and  O14_76 
REMARK       I    between atoms: C56_56  and  C57_57 
REMARK       I    between atoms: C56_56  and  N12_94 
REMARK       I    between atoms: C57_57  and  C58_58 
REMARK       I    between atoms: C57_57  and  N13_95 
REMARK       I    between atoms: C58_58  and  O17_79 
REMARK       I    between atoms: C59_59  and  C60_60 
REMARK       I    between atoms: C59_59  and  N13_95 
REMARK       I    between atoms: C60_60  and  C61_61 
REMARK       I    between atoms: C60_60  and  N14_96 
REMARK       I    between atoms: C61_61  and  C62_62 
REMARK       I    between atoms: C62_62  and  O20_82 
ROOT
HETATM    1  C1  UNL     1      -2.092   1.178   2.689  1.00  0.00     0.042 C 
HETATM    2  C2  UNL     1      -2.715   1.410   1.317  1.00  0.00     0.172 C 
HETATM    3  C3  UNL     1      -1.884   2.418   0.503  1.00  0.00     0.240 C 
HETATM    4  C4  UNL     1      -1.513   3.332  -1.799  1.00  0.00     0.177 C 
HETATM    5  C5  UNL     1      -1.288   2.663  -3.168  1.00  0.00     0.038 C 
HETATM    6  C6  UNL     1      -2.481   2.528  -4.142  1.00  0.00    -0.020 C 
HETATM    7  C7  UNL     1      -2.013   1.809  -5.414  1.00  0.00     0.009 C 
HETATM    8  C8  UNL     1      -3.690   1.799  -3.564  1.00  0.00     0.009 C 
HETATM    9  C9  UNL     1      -2.188   4.725  -1.883  1.00  0.00     0.241 C 
HETATM   10  C10 UNL     1      -3.378   6.473  -0.582  1.00  0.00     0.177 C 
HETATM   11  C11 UNL     1      -4.814   6.255  -1.106  1.00  0.00     0.038 C 
HETATM   12  C12 UNL     1      -5.537   4.974  -0.625  1.00  0.00    -0.020 C 
HETATM   13  C13 UNL     1      -5.686   4.889   0.893  1.00  0.00     0.009 C 
HETATM   14  C14 UNL     1      -6.918   4.889  -1.283  1.00  0.00     0.009 C 
HETATM   15  C15 UNL     1      -3.371   7.113   0.828  1.00  0.00     0.240 C 
HETATM   16  C16 UNL     1      -2.051   7.529   2.864  1.00  0.00     0.137 C 
HETATM   17  C17 UNL     1      -1.172   6.723   3.831  1.00  0.00     0.112 C 
HETATM   18  C18 UNL     1       0.788   5.349   3.455  1.00  0.00     0.023 A 
HETATM   19  C19 UNL     1       1.267   4.627   2.342  1.00  0.00     0.053 A 
HETATM   20  C20 UNL     1       1.798   3.338   2.516  1.00  0.00     0.057 A 
HETATM   21  C21 UNL     1       1.890   2.741   3.800  1.00  0.00     0.043 A 
HETATM   22  C22 UNL     1       1.465   3.502   4.895  1.00  0.00     0.032 A 
HETATM   23  C23 UNL     1       0.910   4.773   4.724  1.00  0.00     0.027 A 
HETATM   24  C24 UNL     1       2.155   0.636   5.112  1.00  0.00     0.139 C 
HETATM   25  C25 UNL     1       2.393  -0.850   4.771  1.00  0.00     0.142 C 
HETATM   26  C26 UNL     1       1.913  -1.468   2.404  1.00  0.00     0.240 C 
HETATM   27  C27 UNL     1       0.772  -1.724   1.401  1.00  0.00     0.177 C 
HETATM   28  C28 UNL     1       0.085  -3.080   1.625  1.00  0.00     0.038 C 
HETATM   29  C29 UNL     1       0.986  -4.332   1.620  1.00  0.00    -0.020 C 
HETATM   30  C30 UNL     1       1.587  -4.622   0.247  1.00  0.00     0.009 C 
HETATM   31  C31 UNL     1       0.166  -5.545   2.078  1.00  0.00     0.009 C 
HETATM   32  C32 UNL     1       0.399  -1.171  -0.986  1.00  0.00     0.241 C 
HETATM   33  C33 UNL     1       1.067  -0.911  -2.354  1.00  0.00     0.177 C 
HETATM   34  C34 UNL     1       0.197  -1.454  -3.504  1.00  0.00     0.038 C 
HETATM   35  C35 UNL     1      -0.142  -2.962  -3.465  1.00  0.00    -0.020 C 
HETATM   36  C36 UNL     1      -1.201  -3.269  -4.529  1.00  0.00     0.009 C 
HETATM   37  C37 UNL     1       1.075  -3.859  -3.690  1.00  0.00     0.009 C 
HETATM   38  C38 UNL     1       3.336  -0.744  -3.329  1.00  0.00     0.240 C 
HETATM   39  C39 UNL     1       4.800  -1.187  -3.144  1.00  0.00     0.172 C 
HETATM   40  C40 UNL     1       5.649  -0.839  -4.360  1.00  0.00     0.042 C 
HETATM   41  C41 UNL     1       5.850  -3.129  -2.027  1.00  0.00     0.243 C 
HETATM   42  C42 UNL     1       5.991  -4.667  -1.998  1.00  0.00     0.200 C 
HETATM   43  C43 UNL     1       4.685  -5.422  -2.279  1.00  0.00     0.199 C 
HETATM   44  C44 UNL     1       5.994  -5.260   0.434  1.00  0.00     0.252 C 
HETATM   45  C45 UNL     1       6.853  -5.228   1.719  1.00  0.00     0.318 C 
HETATM   46  C46 UNL     1       7.177  -3.797   2.121  1.00  0.00     0.155 C 
HETATM   47  C47 UNL     1       5.915  -3.098   2.542  1.00  0.00     0.141 C 
HETATM   48  C48 UNL     1       2.213   2.579   1.313  1.00  0.00     0.199 C 
HETATM   49  C49 UNL     1       2.378   3.258   0.023  1.00  0.00     0.065 A 
HETATM   50  C50 UNL     1       3.010   2.605  -1.047  1.00  0.00     0.081 A 
HETATM   51  C51 UNL     1       3.120   3.224  -2.288  1.00  0.00     0.040 A 
HETATM   52  C52 UNL     1       2.602   4.505  -2.466  1.00  0.00     0.040 A 
HETATM   53  C53 UNL     1       1.978   5.157  -1.404  1.00  0.00     0.081 A 
HETATM   54  C54 UNL     1       1.866   4.538  -0.150  1.00  0.00     0.065 A 
HETATM   55  C55 UNL     1       1.179   5.202   0.972  1.00  0.00     0.199 C 
HETATM   56  C56 UNL     1      -3.874  -0.723   0.853  1.00  0.00     0.243 C 
HETATM   57  C57 UNL     1      -3.747  -2.090   0.143  1.00  0.00     0.200 C 
HETATM   58  C58 UNL     1      -4.028  -1.968  -1.357  1.00  0.00     0.199 C 
HETATM   59  C59 UNL     1      -4.299  -3.593   1.999  1.00  0.00     0.252 C 
HETATM   60  C60 UNL     1      -5.473  -4.284   2.718  1.00  0.00     0.318 C 
HETATM   61  C61 UNL     1      -5.566  -5.729   2.247  1.00  0.00     0.155 C 
HETATM   62  C62 UNL     1      -4.408  -6.505   2.804  1.00  0.00     0.141 C 
HETATM   63  O1  UNL     1      -1.154   3.265   1.012  1.00  0.00    -0.271 OA
HETATM   64  O2  UNL     1      -2.280   5.366  -2.927  1.00  0.00    -0.271 OA
HETATM   65  O3  UNL     1      -4.255   7.874   1.217  1.00  0.00    -0.271 OA
HETATM   66  O4  UNL     1       3.091  -1.399   2.050  1.00  0.00    -0.271 OA
HETATM   67  O5  UNL     1      -0.811  -1.015  -0.807  1.00  0.00    -0.271 OA
HETATM   68  O6  UNL     1       2.989   0.138  -4.110  1.00  0.00    -0.271 OA
HETATM   69  O7  UNL     1       6.642  -2.410  -1.415  1.00  0.00    -0.271 OA
HETATM   70  O8  UNL     1       4.324  -5.284  -3.662  1.00  0.00    -0.398 OA
HETATM   71  O9  UNL     1       4.790  -5.495   0.474  1.00  0.00    -0.271 OA
HETATM   72  O10 UNL     1       5.379  -3.189   3.634  1.00  0.00    -0.650 OA
HETATM   73  O11 UNL     1       5.392  -2.362   1.547  1.00  0.00    -0.776 OA
HETATM   74  O12 UNL     1       2.418   1.368   1.352  1.00  0.00    -0.286 OA
HETATM   75  O13 UNL     1       0.541   6.231   0.741  1.00  0.00    -0.286 OA
HETATM   76  O14 UNL     1       1.483   6.404  -1.670  1.00  0.00    -0.360 OA
HETATM   77  O15 UNL     1       3.548   1.351  -0.937  1.00  0.00    -0.360 OA
HETATM   78  O16 UNL     1      -4.791  -0.442   1.625  1.00  0.00    -0.271 OA
HETATM   79  O17 UNL     1      -5.389  -1.612  -1.602  1.00  0.00    -0.398 OA
HETATM   80  O18 UNL     1      -3.159  -3.573   2.456  1.00  0.00    -0.271 OA
HETATM   81  O19 UNL     1      -4.161  -6.676   3.986  1.00  0.00    -0.650 OA
HETATM   82  O20 UNL     1      -3.620  -7.033   1.850  1.00  0.00    -0.776 OA
HETATM   83  N1  UNL     1      -2.151   2.417  -0.846  1.00  0.00    -0.346 N 
HETATM   84  N2  UNL     1      -2.574   5.258  -0.670  1.00  0.00    -0.346 N 
HETATM   85  N3  UNL     1      -2.246   6.850   1.587  1.00  0.00    -0.358 N 
HETATM   86  N4  UNL     1       0.212   6.634   3.334  1.00  0.00    -0.291 NA
HETATM   87  N5  UNL     1       2.511   1.497   3.983  1.00  0.00    -0.388 N 
HETATM   88  N6  UNL     1       1.502  -1.303   3.707  1.00  0.00    -0.358 N 
HETATM   89  N7  UNL     1       1.249  -1.527   0.035  1.00  0.00    -0.346 N 
HETATM   90  N8  UNL     1       2.459  -1.330  -2.433  1.00  0.00    -0.346 N 
HETATM   91  N9  UNL     1       4.874  -2.619  -2.852  1.00  0.00    -0.346 N 
HETATM   92  N10 UNL     1       6.678  -5.008  -0.741  1.00  0.00    -0.344 N 
HETATM   93  N11 UNL     1       8.095  -6.014   1.518  1.00  0.00     0.092 N 
HETATM   94  N12 UNL     1      -2.858   0.167   0.567  1.00  0.00    -0.346 N 
HETATM   95  N13 UNL     1      -4.641  -3.044   0.781  1.00  0.00    -0.344 N 
HETATM   96  N14 UNL     1      -6.733  -3.557   2.399  1.00  0.00     0.092 N 
HETATM   97  H73 UNL     1       3.627  -5.947  -3.827  1.00  0.00     0.209 HD
HETATM   98  H74 UNL     1       4.554  -1.962   1.901  1.00  0.00     0.167 HD
HETATM   99  H75 UNL     1       0.995   6.721  -0.879  1.00  0.00     0.217 HD
HETATM  100  H76 UNL     1       3.404   1.038  -0.016  1.00  0.00     0.217 HD
HETATM  101  H77 UNL     1      -5.535  -1.674  -2.562  1.00  0.00     0.209 HD
HETATM  102  H78 UNL     1      -2.896  -7.466   2.351  1.00  0.00     0.167 HD
HETATM  103  H79 UNL     1      -2.905   1.815  -1.156  1.00  0.00     0.163 HD
HETATM  104  H80 UNL     1      -2.389   4.734   0.179  1.00  0.00     0.163 HD
HETATM  105  H81 UNL     1      -1.418   6.523   1.089  1.00  0.00     0.162 HD
HETATM  106  H82 UNL     1       0.267   6.944   2.356  1.00  0.00     0.127 HD
HETATM  107  H83 UNL     1       2.591   0.979   3.098  1.00  0.00     0.159 HD
HETATM  108  H84 UNL     1       0.513  -1.361   3.922  1.00  0.00     0.162 HD
HETATM  109  H85 UNL     1       2.231  -1.279  -0.061  1.00  0.00     0.163 HD
HETATM  110  H86 UNL     1       2.798  -2.116  -1.889  1.00  0.00     0.163 HD
HETATM  111  H87 UNL     1       4.454  -3.263  -3.523  1.00  0.00     0.163 HD
HETATM  112  H88 UNL     1       7.533  -4.477  -0.619  1.00  0.00     0.163 HD
HETATM  113  H89 UNL     1       8.616  -5.658   0.720  1.00  0.00     0.313 HD
HETATM  114  H90 UNL     1       7.835  -6.972   1.277  1.00  0.00     0.313 HD
HETATM  115  H91 UNL     1      -2.032  -0.202   0.087  1.00  0.00     0.163 HD
HETATM  116  H92 UNL     1      -5.639  -2.859   0.681  1.00  0.00     0.163 HD
HETATM  117  H93 UNL     1      -6.625  -2.585   2.707  1.00  0.00     0.313 HD
HETATM  118  H94 UNL     1      -7.486  -3.939   2.972  1.00  0.00     0.313 HD
ENDROOT
TORSDOF 48
