REMARK  27 active torsions:
REMARK  status: ('A' for Active; 'I' for Inactive)
REMARK    1  A    between atoms: C2_2  and  C3_3 
REMARK    2  A    between atoms: C3_3  and  C5_5 
REMARK    3  A    between atoms: C5_5  and  C6_6 
REMARK    4  A    between atoms: C5_5  and  N7_63 
REMARK    5  A    between atoms: C6_6  and  C7_7 
REMARK    6  A    between atoms: C6_6  and  O7_54 
REMARK    7  A    between atoms: C7_7  and  C8_8 
REMARK       I    between atoms: C8_8  and  N1_57 
REMARK    8  A    between atoms: C12_12  and  C13_13 
REMARK    9  A    between atoms: C13_13  and  C14_14 
REMARK   10  A    between atoms: C13_13  and  O6_53 
REMARK   11  A    between atoms: C14_14  and  C16_16 
REMARK       I    between atoms: C16_16  and  N2_58 
REMARK   12  A    between atoms: C17_17  and  C18_18 
REMARK   13  A    between atoms: C17_17  and  C31_31 
REMARK   14  A    between atoms: C17_17  and  N2_58 
REMARK   15  A    between atoms: C18_18  and  C19_19 
REMARK   16  A    between atoms: C21_21  and  N3_59 
REMARK   17  A    between atoms: C25_25  and  C26_26 
REMARK       I    between atoms: C25_25  and  N3_59 
REMARK   18  A    between atoms: C26_26  and  C27_27 
REMARK   19  A    between atoms: C26_26  and  N6_62 
REMARK   20  A    between atoms: C27_27  and  C28_28 
REMARK   21  A    between atoms: C28_28  and  C29_29 
REMARK   22  A    between atoms: C29_29  and  N4_60 
REMARK       I    between atoms: C30_30  and  N4_60 
REMARK       I    between atoms: C30_30  and  N5_61 
REMARK   23  A    between atoms: C31_31  and  O5_52 
REMARK   24  A    between atoms: C35_35  and  C36_36 
REMARK       I    between atoms: C35_35  and  N7_63 
REMARK   25  A    between atoms: C36_36  and  C37_37 
REMARK   26  A    between atoms: C36_36  and  N8_64 
REMARK   27  A    between atoms: C40_40  and  C41_41 
REMARK       I    between atoms: C40_40  and  N8_64 
ROOT
HETATM    1  C13 UNL     1       0.532  -0.959  -2.406  1.00  0.00     0.156 C 
ENDROOT
BRANCH   1   2
HETATM    2  C12 UNL     1      -0.976  -0.692  -2.747  1.00  0.00     0.117 C 
HETATM    3  C11 UNL     1      -1.625  -1.803  -3.582  1.00  0.00     0.029 C 
HETATM    4  C10 UNL     1      -1.177  -1.476  -5.002  1.00  0.00     0.022 C 
HETATM    5  C9  UNL     1      -1.206   0.046  -5.036  1.00  0.00     0.126 C 
HETATM    6  N1  UNL     1      -1.153   0.466  -3.642  1.00  0.00    -0.345 N 
HETATM    7  C8  UNL     1      -1.319   1.796  -3.333  1.00  0.00     0.222 C 
HETATM    8  O1  UNL     1      -1.276   2.657  -4.216  1.00  0.00    -0.273 OA
BRANCH   7   9
HETATM    9  C7  UNL     1      -1.572   2.209  -1.898  1.00  0.00     0.137 C 
BRANCH   9  10
HETATM   10  C6  UNL     1      -2.957   1.834  -1.348  1.00  0.00     0.152 C 
BRANCH  10  11
HETATM   11  C5  UNL     1      -4.103   2.841  -1.734  1.00  0.00     0.119 C 
BRANCH  11  12
HETATM   12  C3  UNL     1      -4.403   3.026  -3.256  1.00  0.00     0.006 C 
HETATM   13  C4  UNL     1      -4.751   1.743  -4.012  1.00  0.00     0.012 C 
BRANCH  12  14
HETATM   14  C2  UNL     1      -5.478   4.116  -3.486  1.00  0.00     0.002 C 
HETATM   15  C1  UNL     1      -5.616   4.540  -4.943  1.00  0.00     0.005 C 
ENDBRANCH  12  14
ENDBRANCH  11  12
BRANCH  11  16
HETATM   16  N7  UNL     1      -5.349   2.641  -0.918  1.00  0.00    -0.347 N 
HETATM   17  C34 UNL     1      -5.592   3.679   0.080  1.00  0.00     0.153 C 
HETATM   18  C35 UNL     1      -5.954   1.388  -0.863  1.00  0.00     0.243 C 
HETATM   19  O8  UNL     1      -5.522   0.424  -1.511  1.00  0.00    -0.271 OA
BRANCH  18  20
HETATM   20  C36 UNL     1      -7.224   1.171   0.009  1.00  0.00     0.180 C 
BRANCH  20  21
HETATM   21  C37 UNL     1      -8.557   1.494  -0.713  1.00  0.00     0.009 C 
HETATM   22  C38 UNL     1      -8.667   0.844  -2.097  1.00  0.00     0.012 C 
HETATM   23  C39 UNL     1      -8.836   2.992  -0.823  1.00  0.00     0.012 C 
ENDBRANCH  20  21
BRANCH  20  24
HETATM   24  N8  UNL     1      -7.199  -0.245   0.395  1.00  0.00    -0.346 N 
HETATM   25  C40 UNL     1      -7.773  -0.722   1.551  1.00  0.00     0.252 C 
HETATM   26  O9  UNL     1      -8.382   0.002   2.334  1.00  0.00    -0.271 OA
HETATM   27  H79 UNL     1      -6.634  -0.864  -0.182  1.00  0.00     0.163 HD
BRANCH  25  28
HETATM   28  C41 UNL     1      -7.568  -2.234   1.758  1.00  0.00     0.318 C 
HETATM   29  C42 UNL     1      -8.551  -2.829   2.787  1.00  0.00     0.030 C 
HETATM   30  C43 UNL     1      -8.548  -4.360   2.624  1.00  0.00     0.009 C 
HETATM   31  C46 UNL     1      -7.782  -2.664   4.092  1.00  0.00     0.043 C 
HETATM   32  C44 UNL     1      -7.146  -4.741   3.123  1.00  0.00     0.036 C 
HETATM   33  C45 UNL     1      -6.553  -3.384   3.553  1.00  0.00     0.224 C 
HETATM   34  N9  UNL     1      -6.225  -2.635   2.310  1.00  0.00     0.102 N 
HETATM   35  C47 UNL     1      -5.302  -1.539   2.595  1.00  0.00     0.311 C 
ENDBRANCH  25  28
ENDBRANCH  20  24
ENDBRANCH  18  20
ENDBRANCH  11  16
ENDBRANCH  10  11
BRANCH  10  36
HETATM   36  O7  UNL     1      -2.865   1.871   0.102  1.00  0.00    -0.388 OA
HETATM   37  C33 UNL     1      -2.437   0.645   0.675  1.00  0.00     0.202 C 
ENDBRANCH  10  36
ENDBRANCH   9  10
ENDBRANCH   7   9
ENDBRANCH   1   2
BRANCH   1  38
HETATM   38  C14 UNL     1       0.737  -2.248  -1.576  1.00  0.00     0.105 C 
HETATM   39  C15 UNL     1       0.071  -2.227  -0.198  1.00  0.00     0.022 C 
BRANCH  38  40
HETATM   40  C16 UNL     1       2.222  -2.572  -1.450  1.00  0.00     0.224 C 
HETATM   41  O2  UNL     1       2.737  -3.484  -2.093  1.00  0.00    -0.273 OA
HETATM   42  N2  UNL     1       2.930  -1.777  -0.580  1.00  0.00    -0.354 N 
HETATM   43  H72 UNL     1       2.546  -0.848  -0.417  1.00  0.00     0.163 HD
BRANCH  42  44
HETATM   44  C17 UNL     1       4.373  -1.945  -0.378  1.00  0.00     0.112 C 
BRANCH  44  45
HETATM   45  C18 UNL     1       4.759  -1.389   1.007  1.00  0.00     0.065 C 
BRANCH  45  46
HETATM   46  C19 UNL     1       6.197  -1.643   1.391  1.00  0.00    -0.054 A 
HETATM   47  C20 UNL     1       7.128  -0.593   1.393  1.00  0.00     0.036 A 
HETATM   48  C21 UNL     1       8.471  -0.814   1.732  1.00  0.00     0.035 A 
HETATM   49  C22 UNL     1       8.874  -2.103   2.081  1.00  0.00     0.029 A 
HETATM   50  C23 UNL     1       7.954  -3.154   2.085  1.00  0.00     0.003 A 
HETATM   51  C24 UNL     1       6.623  -2.928   1.741  1.00  0.00     0.007 A 
BRANCH  48  52
HETATM   52  N3  UNL     1       9.329   0.305   1.721  1.00  0.00    -0.325 N 
HETATM   53  C25 UNL     1      10.699   0.312   1.918  1.00  0.00     0.255 C 
HETATM   54  O3  UNL     1      11.424  -0.680   2.000  1.00  0.00    -0.271 OA
HETATM   55  H73 UNL     1       8.887   1.193   1.520  1.00  0.00     0.169 HD
BRANCH  53  56
HETATM   56  C26 UNL     1      11.300   1.739   1.991  1.00  0.00     0.309 C 
BRANCH  56  57
HETATM   57  C27 UNL     1      10.750   2.582   3.151  1.00  0.00     0.047 C 
BRANCH  57  58
HETATM   58  C28 UNL     1      11.270   2.274   4.568  1.00  0.00     0.022 C 
BRANCH  58  59
HETATM   59  C29 UNL     1      10.828   0.940   5.164  1.00  0.00     0.124 C 
BRANCH  59  60
HETATM   60  N4  UNL     1      11.737  -0.146   4.870  1.00  0.00    -0.343 N 
HETATM   61  C30 UNL     1      11.628  -1.319   5.559  1.00  0.00     0.313 C 
HETATM   62  O4  UNL     1      10.905  -1.523   6.522  1.00  0.00    -0.248 OA
HETATM   63  N5  UNL     1      12.443  -2.281   5.060  1.00  0.00    -0.352 N 
HETATM   64  H75 UNL     1      13.311  -1.968   4.651  1.00  0.00     0.160 HD
HETATM   65  H76 UNL     1      12.502  -3.106   5.641  1.00  0.00     0.160 HD
HETATM   66  H74 UNL     1      12.010  -0.284   3.901  1.00  0.00     0.164 HD
ENDBRANCH  59  60
ENDBRANCH  58  59
ENDBRANCH  57  58
ENDBRANCH  56  57
BRANCH  56  67
HETATM   67  N6  UNL     1      12.770   1.678   2.048  1.00  0.00     0.092 N 
HETATM   68  H77 UNL     1      13.170   2.557   1.725  1.00  0.00     0.313 HD
HETATM   69  H78 UNL     1      13.094   0.948   1.410  1.00  0.00     0.313 HD
ENDBRANCH  56  67
ENDBRANCH  53  56
ENDBRANCH  48  52
ENDBRANCH  45  46
ENDBRANCH  44  45
BRANCH  44  70
HETATM   70  C31 UNL     1       5.168  -1.297  -1.529  1.00  0.00     0.189 C 
BRANCH  70  71
HETATM   71  O5  UNL     1       5.057   0.128  -1.494  1.00  0.00    -0.399 OA
HETATM   72  H71 UNL     1       5.576   0.457  -2.250  1.00  0.00     0.209 HD
ENDBRANCH  70  71
ENDBRANCH  44  70
ENDBRANCH  42  44
ENDBRANCH  38  40
ENDBRANCH   1  38
BRANCH   1  73
HETATM   73  O6  UNL     1       1.050   0.147  -1.635  1.00  0.00    -0.388 OA
HETATM   74  C32 UNL     1       1.916   0.988  -2.397  1.00  0.00     0.202 C 
ENDBRANCH   1  73
TORSDOF 27
