REMARK  18 active torsions:
REMARK  status: ('A' for Active; 'I' for Inactive)
REMARK    1  A    between atoms: C2_2  and  C3_3 
REMARK    2  A    between atoms: C2_2  and  N11_84 
REMARK       I    between atoms: C3_3  and  N1_73 
REMARK    3  A    between atoms: C4_4  and  C5_5 
REMARK    4  A    between atoms: C4_4  and  C60_60 
REMARK    5  A    between atoms: C4_4  and  N1_73 
REMARK       I    between atoms: C5_5  and  N2_74 
REMARK    6  A    between atoms: C10_10  and  C11_11 
REMARK       I    between atoms: C11_11  and  N3_75 
REMARK    7  A    between atoms: C12_12  and  N3_75 
REMARK    8  A    between atoms: C24_24  and  C26_26 
REMARK       I    between atoms: C26_26  and  N4_76 
REMARK    9  A    between atoms: C27_27  and  N4_76 
REMARK   10  A    between atoms: C32_32  and  C34_34 
REMARK       I    between atoms: C34_34  and  N6_79 
REMARK   11  A    between atoms: C35_35  and  N6_79 
REMARK   12  A    between atoms: C37_37  and  C49_49 
REMARK   13  A    between atoms: C39_39  and  C40_40 
REMARK       I    between atoms: C39_39  and  N7_80 
REMARK   14  A    between atoms: C40_40  and  C41_41 
REMARK   15  A    between atoms: C40_40  and  N8_81 
REMARK   16  A    between atoms: C45_45  and  C46_46 
REMARK       I    between atoms: C45_45  and  N8_81 
REMARK   17  A    between atoms: C46_46  and  N9_82 
REMARK       I    between atoms: C49_49  and  N10_83 
REMARK   18  A    between atoms: C50_50  and  N10_83 
ROOT
HETATM    1  C27 UNL     1      -0.496   2.127   1.651  1.00  0.00     0.152 A 
HETATM    2  C28 UNL     1       1.532   2.968   1.540  1.00  0.00     0.052 A 
HETATM    3  C29 UNL     1       1.856   1.685   1.988  1.00  0.00     0.035 A 
HETATM    4  C30 UNL     1       3.183   1.293   2.222  1.00  0.00     0.022 A 
HETATM    5  C31 UNL     1       4.200   2.230   1.998  1.00  0.00     0.018 A 
HETATM    6  C32 UNL     1       3.901   3.525   1.561  1.00  0.00     0.034 A 
HETATM    7  C33 UNL     1       2.569   3.894   1.319  1.00  0.00     0.048 A 
HETATM    8  N5  UNL     1       0.181   3.202   1.353  1.00  0.00    -0.335 N 
ATOM      9  H5  UNL     1      -0.224   4.081   1.031  1.00  0.00     0.168 HD
HETATM   10  S1  UNL     1       0.404   0.773   2.164  1.00  0.00    -0.052 SA
ENDROOT
BRANCH   1  11
HETATM   11  N4  UNL     1      -1.845   1.903   1.607  1.00  0.00    -0.303 N 
HETATM   12  C26 UNL     1      -2.749   2.889   1.283  1.00  0.00     0.257 C 
HETATM   13  O4  UNL     1      -2.510   4.068   1.056  1.00  0.00    -0.267 OA
HETATM   14  H76 UNL     1      -2.152   0.989   1.899  1.00  0.00     0.171 HD
BRANCH  12  15
HETATM   15  C24 UNL     1      -4.171   2.441   1.263  1.00  0.00     0.033 A 
HETATM   16  C23 UNL     1      -5.158   3.342   1.672  1.00  0.00     0.017 A 
HETATM   17  C22 UNL     1      -6.499   2.959   1.677  1.00  0.00     0.009 A 
HETATM   18  C8  UNL     1      -6.872   1.674   1.258  1.00  0.00    -0.048 A 
HETATM   19  C7  UNL     1      -5.887   0.760   0.842  1.00  0.00    -0.033 A 
HETATM   20  C9  UNL     1      -8.329   1.272   1.293  1.00  0.00     0.074 C 
HETATM   21  C6  UNL     1      -6.250  -0.625   0.358  1.00  0.00     0.166 C 
HETATM   22  C25 UNL     1      -4.539   1.159   0.832  1.00  0.00     0.026 A 
HETATM   23  N2  UNL     1      -7.611  -1.020   0.711  1.00  0.00    -0.332 N 
HETATM   24  C5  UNL     1      -7.858  -2.383   0.796  1.00  0.00     0.244 C 
HETATM   25  C10 UNL     1      -8.638   0.018   0.461  1.00  0.00     0.184 C 
HETATM   26  O2  UNL     1      -6.985  -3.206   0.491  1.00  0.00    -0.271 OA
BRANCH  24  27
HETATM   27  C4  UNL     1      -9.208  -2.878   1.384  1.00  0.00     0.184 C 
BRANCH  27  28
HETATM   28  C60 UNL     1      -9.148  -3.134   2.923  1.00  0.00    -0.022 C 
HETATM   29  C61 UNL     1      -8.074  -4.166   3.315  1.00  0.00     0.017 C 
HETATM   30  C62 UNL     1      -8.859  -1.820   3.676  1.00  0.00     0.017 C 
HETATM   31  C63 UNL     1     -10.520  -3.656   3.406  1.00  0.00     0.017 C 
ENDBRANCH  27  28
BRANCH  27  32
HETATM   32  N1  UNL     1      -9.562  -4.079   0.634  1.00  0.00    -0.345 N 
HETATM   33  C3  UNL     1     -10.195  -3.980  -0.586  1.00  0.00     0.251 C 
HETATM   34  O1  UNL     1     -10.659  -2.915  -0.990  1.00  0.00    -0.271 OA
HETATM   35  H74 UNL     1      -8.947  -4.890   0.695  1.00  0.00     0.163 HD
BRANCH  33  36
HETATM   36  C2  UNL     1     -10.199  -5.292  -1.409  1.00  0.00     0.307 C 
HETATM   37  C1  UNL     1     -11.550  -5.455  -2.101  1.00  0.00     0.053 C 
BRANCH  36  38
HETATM   38  N11 UNL     1      -9.873  -6.437  -0.520  1.00  0.00     0.092 N 
HETATM   39  C64 UNL     1      -9.469  -7.618  -1.271  1.00  0.00     0.307 C 
HETATM   40  H81 UNL     1     -10.691  -6.656   0.049  1.00  0.00     0.316 HD
ENDBRANCH  36  38
ENDBRANCH  33  36
ENDBRANCH  27  32
ENDBRANCH  24  27
BRANCH  25  41
HETATM   41  C11 UNL     1      -8.735   0.350  -1.053  1.00  0.00     0.241 C 
HETATM   42  O3  UNL     1      -8.527   1.473  -1.506  1.00  0.00    -0.271 OA
HETATM   43  N3  UNL     1      -9.086  -0.713  -1.857  1.00  0.00    -0.351 N 
HETATM   44  H75 UNL     1      -9.554  -1.522  -1.450  1.00  0.00     0.163 HD
BRANCH  43  45
HETATM   45  C12 UNL     1      -9.165  -0.582  -3.304  1.00  0.00     0.118 C 
HETATM   46  C13 UNL     1     -10.458   0.123  -3.745  1.00  0.00     0.030 C 
HETATM   47  C14 UNL     1     -11.647  -0.829  -3.733  1.00  0.00     0.007 C 
HETATM   48  C15 UNL     1     -11.419  -1.977  -4.713  1.00  0.00     0.039 C 
HETATM   49  C16 UNL     1     -10.056  -2.611  -4.584  1.00  0.00    -0.050 A 
HETATM   50  C17 UNL     1      -9.836  -3.868  -5.169  1.00  0.00     0.007 A 
HETATM   51  C21 UNL     1      -8.992  -1.949  -3.943  1.00  0.00    -0.029 A 
HETATM   52  C18 UNL     1      -8.585  -4.480  -5.093  1.00  0.00     0.001 A 
HETATM   53  C19 UNL     1      -7.538  -3.841  -4.437  1.00  0.00     0.001 A 
HETATM   54  C20 UNL     1      -7.739  -2.585  -3.866  1.00  0.00     0.010 A 
ENDBRANCH  43  45
ENDBRANCH  25  41
ENDBRANCH  12  15
ENDBRANCH   1  11
BRANCH   6  55
HETATM   55  C34 UNL     1       4.959   4.537   1.292  1.00  0.00     0.252 C 
HETATM   56  O5  UNL     1       4.775   5.424   0.465  1.00  0.00    -0.268 OA
HETATM   57  N6  UNL     1       6.133   4.422   2.002  1.00  0.00    -0.351 N 
HETATM   58  H77 UNL     1       6.273   3.646   2.649  1.00  0.00     0.163 HD
BRANCH  57  59
HETATM   59  C35 UNL     1       7.259   5.307   1.742  1.00  0.00     0.105 C 
HETATM   60  C36 UNL     1       8.388   5.099   2.751  1.00  0.00     0.061 C 
HETATM   61  C37 UNL     1       9.174   3.912   2.182  1.00  0.00     0.181 C 
HETATM   62  N7  UNL     1       8.974   4.002   0.733  1.00  0.00    -0.335 N 
HETATM   63  C38 UNL     1       7.953   4.994   0.408  1.00  0.00     0.152 C 
HETATM   64  C39 UNL     1       9.862   3.399  -0.140  1.00  0.00     0.244 C 
HETATM   65  O6  UNL     1      10.814   2.759   0.317  1.00  0.00    -0.271 OA
BRANCH  61  66
HETATM   66  C49 UNL     1       8.661   2.559   2.726  1.00  0.00     0.241 C 
HETATM   67  O8  UNL     1       7.571   2.434   3.286  1.00  0.00    -0.271 OA
HETATM   68  N10 UNL     1       9.525   1.508   2.516  1.00  0.00    -0.351 N 
HETATM   69  H80 UNL     1      10.283   1.656   1.847  1.00  0.00     0.163 HD
BRANCH  68  70
HETATM   70  C50 UNL     1       9.225   0.148   2.942  1.00  0.00     0.118 C 
HETATM   71  C51 UNL     1       9.348   0.060   4.475  1.00  0.00     0.030 C 
HETATM   72  C52 UNL     1       9.338  -1.384   4.953  1.00  0.00     0.007 C 
HETATM   73  C53 UNL     1      10.552  -2.120   4.399  1.00  0.00     0.039 C 
HETATM   74  C54 UNL     1      10.696  -1.951   2.908  1.00  0.00    -0.050 A 
HETATM   75  C55 UNL     1      11.483  -2.877   2.201  1.00  0.00     0.007 A 
HETATM   76  C59 UNL     1      10.094  -0.876   2.223  1.00  0.00    -0.029 A 
HETATM   77  C56 UNL     1      11.642  -2.769   0.821  1.00  0.00     0.001 A 
HETATM   78  C57 UNL     1      11.017  -1.737   0.133  1.00  0.00     0.001 A 
HETATM   79  C58 UNL     1      10.245  -0.805   0.826  1.00  0.00     0.010 A 
ENDBRANCH  68  70
ENDBRANCH  61  66
BRANCH  64  80
HETATM   80  C40 UNL     1       9.675   3.654  -1.675  1.00  0.00     0.184 C 
BRANCH  80  81
HETATM   81  C41 UNL     1      10.821   3.140  -2.618  1.00  0.00    -0.022 C 
HETATM   82  C42 UNL     1      10.513   3.554  -4.078  1.00  0.00     0.017 C 
HETATM   83  C43 UNL     1      12.160   3.814  -2.239  1.00  0.00     0.017 C 
HETATM   84  C44 UNL     1      11.016   1.615  -2.596  1.00  0.00     0.017 C 
ENDBRANCH  80  81
BRANCH  80  85
HETATM   85  N8  UNL     1       8.327   3.319  -2.152  1.00  0.00    -0.345 N 
HETATM   86  C45 UNL     1       7.754   2.076  -1.990  1.00  0.00     0.251 C 
HETATM   87  O7  UNL     1       8.235   1.206  -1.268  1.00  0.00    -0.271 OA
HETATM   88  H78 UNL     1       7.919   3.933  -2.846  1.00  0.00     0.163 HD
BRANCH  86  89
HETATM   89  C46 UNL     1       6.427   1.882  -2.758  1.00  0.00     0.307 C 
HETATM   90  C47 UNL     1       5.293   2.523  -1.965  1.00  0.00     0.053 C 
BRANCH  89  91
HETATM   91  N9  UNL     1       6.131   0.445  -2.939  1.00  0.00     0.092 N 
HETATM   92  C48 UNL     1       6.968  -0.157  -3.970  1.00  0.00     0.307 C 
HETATM   93  H79 UNL     1       6.336  -0.021  -2.049  1.00  0.00     0.316 HD
ENDBRANCH  89  91
ENDBRANCH  86  89
ENDBRANCH  80  85
ENDBRANCH  64  80
ENDBRANCH  57  59
ENDBRANCH   6  55
TORSDOF 18
