REMARK  0 active torsions:
REMARK  status: ('A' for Active; 'I' for Inactive)
REMARK       I    between atoms: C2_2  and  C4_4 
REMARK       I    between atoms: C4_4  and  C5_5 
REMARK       I    between atoms: C4_4  and  N15_93 
REMARK       I    between atoms: C5_5  and  C6_6 
REMARK       I    between atoms: C6_6  and  C7_7 
REMARK       I    between atoms: C7_7  and  C8_8 
REMARK       I    between atoms: C7_7  and  C12_12 
REMARK       I    between atoms: C8_8  and  C9_9 
REMARK       I    between atoms: C9_9  and  C10_10 
REMARK       I    between atoms: C10_10  and  N1_73 
REMARK       I    between atoms: C11_11  and  N1_73 
REMARK       I    between atoms: C11_11  and  N2_74 
REMARK       I    between atoms: C12_12  and  N3_75 
REMARK       I    between atoms: C13_13  and  N3_75 
REMARK       I    between atoms: C16_16  and  C19_19 
REMARK       I    between atoms: C19_19  and  O4_59 
REMARK       I    between atoms: C20_20  and  O4_59 
REMARK       I    between atoms: C20_20  and  N4_76 
REMARK       I    between atoms: C21_21  and  C22_22 
REMARK       I    between atoms: C21_21  and  N4_76 
REMARK       I    between atoms: C22_22  and  C23_23 
REMARK       I    between atoms: C23_23  and  N5_77 
REMARK       I    between atoms: C24_24  and  N5_77 
REMARK       I    between atoms: C29_29  and  N8_82 
REMARK       I    between atoms: C37_37  and  N10_85 
REMARK       I    between atoms: C41_41  and  N14_92 
REMARK       I    between atoms: C44_44  and  C45_45 
REMARK       I    between atoms: C44_44  and  N15_93 
REMARK       I    between atoms: C45_45  and  C46_46 
REMARK       I    between atoms: C46_46  and  C47_47 
REMARK       I    between atoms: C47_47  and  C48_48 
REMARK       I    between atoms: C48_48  and  C49_49 
REMARK       I    between atoms: C49_49  and  C50_50 
REMARK       I    between atoms: C50_50  and  C51_51 
REMARK       I    between atoms: C51_51  and  C52_52 
REMARK       I    between atoms: C52_52  and  C54_54 
REMARK       I    between atoms: C54_54  and  C55_55 
REMARK       I    between atoms: C55_55  and  O17_72 
REMARK       I    between atoms: O11_66  and  P2_95 
REMARK       I    between atoms: O13_68  and  P1_94 
ROOT
HETATM    1  C1  UNL     1      -5.967  -0.199  -3.870  1.00  0.00     0.012 C 
HETATM    2  C2  UNL     1      -6.874   0.085  -2.669  1.00  0.00     0.007 C 
HETATM    3  C3  UNL     1      -6.649  -0.967  -1.580  1.00  0.00     0.012 C 
HETATM    4  C4  UNL     1      -6.731   1.539  -2.159  1.00  0.00     0.157 C 
HETATM    5  C5  UNL     1      -5.419   1.791  -1.369  1.00  0.00     0.150 C 
HETATM    6  C6  UNL     1      -5.526   2.419   0.014  1.00  0.00     0.094 C 
HETATM    7  C7  UNL     1      -4.223   2.332   0.814  1.00  0.00     0.085 C 
HETATM    8  C8  UNL     1      -4.252   3.199   2.093  1.00  0.00     0.016 C 
HETATM    9  C9  UNL     1      -5.530   3.205   2.955  1.00  0.00     0.020 C 
HETATM   10  C10 UNL     1      -5.796   1.937   3.770  1.00  0.00     0.124 C 
HETATM   11  C11 UNL     1      -7.826   0.884   2.842  1.00  0.00     0.291 C 
HETATM   12  C12 UNL     1      -3.857   0.881   1.144  1.00  0.00     0.226 C 
HETATM   13  C13 UNL     1      -1.852  -0.449   1.852  1.00  0.00     0.034 A 
HETATM   14  C14 UNL     1      -2.484  -1.676   2.058  1.00  0.00     0.030 A 
HETATM   15  C15 UNL     1      -1.749  -2.795   2.468  1.00  0.00     0.011 A 
HETATM   16  C16 UNL     1      -0.370  -2.705   2.685  1.00  0.00    -0.034 A 
HETATM   17  C17 UNL     1       0.264  -1.476   2.472  1.00  0.00     0.011 A 
HETATM   18  C18 UNL     1      -0.471  -0.360   2.062  1.00  0.00     0.030 A 
HETATM   19  C19 UNL     1       0.429  -3.912   3.107  1.00  0.00     0.219 C 
HETATM   20  C20 UNL     1       1.988  -5.406   2.236  1.00  0.00     0.360 C 
HETATM   21  C21 UNL     1       3.478  -6.925   1.002  1.00  0.00     0.126 C 
HETATM   22  C22 UNL     1       4.444  -6.852  -0.173  1.00  0.00     0.034 C 
HETATM   23  C23 UNL     1       5.514  -5.779   0.037  1.00  0.00     0.095 C 
HETATM   24  C24 UNL     1       5.979  -4.729  -2.094  1.00  0.00     0.112 A 
HETATM   25  C25 UNL     1       6.929  -4.047  -2.880  1.00  0.00     0.116 A 
HETATM   26  C26 UNL     1       6.446  -3.142  -3.808  1.00  0.00     0.142 A 
HETATM   27  C27 UNL     1       4.341  -3.527  -3.249  1.00  0.00     0.183 A 
HETATM   28  C28 UNL     1       8.651  -3.230  -3.852  1.00  0.00     0.188 A 
HETATM   29  C29 UNL     1       7.535  -1.594  -5.438  1.00  0.00     0.267 C 
HETATM   30  C30 UNL     1       6.987  -0.255  -4.946  1.00  0.00     0.251 C 
HETATM   31  C31 UNL     1       8.252   0.426  -4.470  1.00  0.00     0.201 C 
HETATM   32  C32 UNL     1       9.205   0.040  -5.594  1.00  0.00     0.181 C 
HETATM   33  C33 UNL     1      10.692   0.195  -5.271  1.00  0.00     0.213 C 
HETATM   34  C34 UNL     1      11.339  -0.126  -1.191  1.00  0.00     0.201 C 
HETATM   35  C35 UNL     1      11.616   1.382  -1.103  1.00  0.00     0.181 C 
HETATM   36  C36 UNL     1      10.338   2.221  -1.177  1.00  0.00     0.213 C 
HETATM   37  C37 UNL     1      12.363   0.403   0.880  1.00  0.00     0.267 C 
HETATM   38  C38 UNL     1      11.359  -0.554   0.264  1.00  0.00     0.251 C 
HETATM   39  C39 UNL     1      13.031   0.529   3.290  1.00  0.00     0.188 A 
HETATM   40  C40 UNL     1      11.260   1.332   4.177  1.00  0.00     0.116 A 
HETATM   41  C41 UNL     1      10.232   1.843   4.988  1.00  0.00     0.109 A 
HETATM   42  C42 UNL     1       8.943   2.049   3.067  1.00  0.00     0.183 A 
HETATM   43  C43 UNL     1      10.989   1.229   2.822  1.00  0.00     0.142 A 
HETATM   44  C44 UNL     1      -8.389   3.211  -1.369  1.00  0.00     0.218 C 
HETATM   45  C45 UNL     1      -9.483   3.431  -0.344  1.00  0.00     0.103 C 
HETATM   46  C46 UNL     1     -10.226   4.752  -0.546  1.00  0.00     0.009 C 
HETATM   47  C47 UNL     1     -11.077   5.168   0.659  1.00  0.00     0.000 C 
HETATM   48  C48 UNL     1     -12.019   4.094   1.207  1.00  0.00     0.000 C 
HETATM   49  C49 UNL     1     -13.105   3.663   0.218  1.00  0.00     0.007 C 
HETATM   50  C50 UNL     1     -13.955   2.522   0.780  1.00  0.00     0.079 C 
HETATM   51  C51 UNL     1     -13.216   1.191   0.811  1.00  0.00     0.131 C 
HETATM   52  C52 UNL     1     -13.748   0.137   1.780  1.00  0.00     0.061 C 
HETATM   53  C53 UNL     1     -13.521  -1.272   1.235  1.00  0.00     0.018 C 
HETATM   54  C54 UNL     1     -13.154   0.335   3.175  1.00  0.00     0.121 C 
HETATM   55  C55 UNL     1     -11.649   0.433   3.180  1.00  0.00     0.140 C 
HETATM   56  O1  UNL     1      -4.314   1.534  -1.856  1.00  0.00    -0.296 OA
HETATM   57  O2  UNL     1      -8.634   1.666   3.326  1.00  0.00    -0.254 OA
HETATM   58  O3  UNL     1      -4.716   0.004   1.188  1.00  0.00    -0.273 OA
HETATM   59  O4  UNL     1       1.167  -4.365   1.970  1.00  0.00    -0.299 OA
HETATM   60  O5  UNL     1       2.110  -5.954   3.320  1.00  0.00    -0.239 OA
HETATM   61  O6  UNL     1       8.900  -1.345  -5.878  1.00  0.00    -0.353 OA
HETATM   62  O7  UNL     1      10.961  -0.213  -3.937  1.00  0.00    -0.311 OA
HETATM   63  O8  UNL     1      12.371  -0.800  -1.916  1.00  0.00    -0.303 OA
HETATM   64  O9  UNL     1       9.778   2.013  -2.461  1.00  0.00    -0.311 OA
HETATM   65  O10 UNL     1       8.119   1.827  -4.291  1.00  0.00    -0.303 OA
HETATM   66  O11 UNL     1       8.370   3.958  -3.058  1.00  0.00    -0.324 OA
HETATM   67  O12 UNL     1      12.316   1.631   0.127  1.00  0.00    -0.353 OA
HETATM   68  O13 UNL     1      12.446  -2.194  -3.957  1.00  0.00    -0.324 OA
HETATM   69  O14 UNL     1      -7.912   4.102  -2.063  1.00  0.00    -0.274 OA
HETATM   70  O15 UNL     1     -12.248   0.966   0.084  1.00  0.00    -0.298 OA
HETATM   71  O16 UNL     1     -10.873  -0.440   2.825  1.00  0.00    -0.650 OA
HETATM   72  O17 UNL     1     -11.227   1.630   3.630  1.00  0.00    -0.776 OA
HETATM   73  N1  UNL     1      -6.480   0.906   3.025  1.00  0.00    -0.348 N 
HETATM   74  N2  UNL     1      -8.217  -0.123   2.021  1.00  0.00    -0.254 NA
HETATM   75  N3  UNL     1      -2.516   0.726   1.445  1.00  0.00    -0.327 N 
HETATM   76  N4  UNL     1       2.652  -5.744   1.098  1.00  0.00    -0.337 N 
HETATM   77  N5  UNL     1       6.369  -5.674  -1.137  1.00  0.00    -0.277 NA
HETATM   78  N6  UNL     1       5.166  -2.825  -4.051  1.00  0.00    -0.336 N 
ATOM     79  H6  UNL     1       4.859  -2.146  -4.747  1.00  0.00     0.168 HD
HETATM   80  N7  UNL     1       4.666  -4.435  -2.302  1.00  0.00    -0.341 N 
ATOM     81  H7  UNL     1       3.939  -4.893  -1.752  1.00  0.00     0.167 HD
HETATM   82  N8  UNL     1       7.559  -2.620  -4.410  1.00  0.00    -0.297 N 
HETATM   83  N9  UNL     1       8.309  -4.079  -2.904  1.00  0.00    -0.346 N 
ATOM     84  H9  UNL     1       8.928  -4.637  -2.317  1.00  0.00     0.167 HD
HETATM   85  N10 UNL     1      12.130   0.707   2.274  1.00  0.00    -0.297 N 
HETATM   86  N11 UNL     1      12.540   0.897   4.455  1.00  0.00    -0.346 N 
ATOM     87  H11 UNL     1      13.004   0.867   5.363  1.00  0.00     0.167 HD
HETATM   88  N12 UNL     1       9.071   2.213   4.402  1.00  0.00    -0.341 N 
ATOM     89  H12 UNL     1       8.310   2.607   4.955  1.00  0.00     0.167 HD
HETATM   90  N13 UNL     1       9.850   1.563   2.193  1.00  0.00    -0.336 N 
ATOM     91  H13 UNL     1       9.692   1.463   1.190  1.00  0.00     0.168 HD
HETATM   92  N14 UNL     1      10.355   2.002   6.362  1.00  0.00    -0.287 NA
HETATM   93  N15 UNL     1      -7.919   1.914  -1.386  1.00  0.00    -0.349 N 
HETATM   94  P1  UNL     1      12.455  -0.650  -3.522  1.00  0.00     0.327 P 
HETATM   95  P2  UNL     1       8.248   2.386  -2.780  1.00  0.00     0.327 P 
HETATM   96  S1  UNL     1      13.948   0.359  -4.190  1.00  0.00    -0.007 SA
HETATM   97  S2  UNL     1       6.888   1.816  -1.543  1.00  0.00    -0.007 SA
HETATM   98  F1  UNL     1      11.761  -1.841   0.395  1.00  0.00    -0.242 F 
HETATM   99  F2  UNL     1       6.491   0.434  -6.018  1.00  0.00    -0.242 F 
HETATM  100  H64 UNL     1       9.009   4.170  -3.762  1.00  0.00     0.220 HD
HETATM  101  H65 UNL     1      13.318  -2.618  -3.842  1.00  0.00     0.220 HD
HETATM  102  H66 UNL     1     -10.233   1.635   3.569  1.00  0.00     0.167 HD
HETATM  103  H67 UNL     1      -5.930   0.321   2.399  1.00  0.00     0.163 HD
HETATM  104  H68 UNL     1      -7.673  -0.973   2.075  1.00  0.00     0.128 HD
HETATM  105  H69 UNL     1      -9.223  -0.303   2.056  1.00  0.00     0.128 HD
HETATM  106  H70 UNL     1      -1.924   1.536   1.304  1.00  0.00     0.169 HD
HETATM  107  H71 UNL     1       2.311  -5.297   0.256  1.00  0.00     0.164 HD
HETATM  108  H72 UNL     1       7.363  -5.560  -0.940  1.00  0.00     0.129 HD
HETATM  109  H73 UNL     1      11.317   2.035   6.681  1.00  0.00     0.125 HD
HETATM  110  H74 UNL     1       9.711   2.691   6.727  1.00  0.00     0.125 HD
HETATM  111  H75 UNL     1      -8.263   1.274  -0.676  1.00  0.00     0.163 HD
ENDROOT
TORSDOF 35
