REMARK  18 active torsions:
REMARK  status: ('A' for Active; 'I' for Inactive)
REMARK    1  A    between atoms: C2_2  and  N4_43 
REMARK    2  A    between atoms: C4_4  and  N1_40 
REMARK    3  A    between atoms: C5_5  and  C6_6 
REMARK       I    between atoms: C5_5  and  N1_40 
REMARK    4  A    between atoms: C9_9  and  C12_12 
REMARK    5  A    between atoms: C12_12  and  N2_41 
REMARK    6  A    between atoms: C13_13  and  C14_14 
REMARK    7  A    between atoms: C13_13  and  N2_41 
REMARK    8  A    between atoms: C14_14  and  C15_15 
REMARK    9  A    between atoms: C14_14  and  O4_47 
REMARK   10  A    between atoms: C21_21  and  O3_46 
REMARK   11  A    between atoms: C24_24  and  C25_25 
REMARK       I    between atoms: C24_24  and  N4_43 
REMARK   12  A    between atoms: C25_25  and  O6_49 
REMARK   13  A    between atoms: C26_26  and  O6_49 
REMARK   14  A    between atoms: C30_30  and  C32_32 
REMARK   15  A    between atoms: C32_32  and  C33_33 
REMARK   16  A    between atoms: C32_32  and  C39_39 
REMARK   17  A    between atoms: C32_32  and  O9_52 
REMARK   18  A    between atoms: C39_39  and  O8_51 
ROOT
HETATM    1  C5  UNL     1      -1.960  -0.929  -2.366  1.00  0.00     0.253 C 
HETATM    2  N1  UNL     1      -1.037   0.007  -1.949  1.00  0.00    -0.352 N 
HETATM    3  O1  UNL     1      -1.959  -1.428  -3.487  1.00  0.00    -0.268 OA
HETATM    4  H30 UNL     1      -1.157   0.406  -1.025  1.00  0.00     0.163 HD
ENDROOT
BRANCH   2   5
HETATM    5  C4  UNL     1      -0.038   0.587  -2.876  1.00  0.00     0.088 C 
HETATM    6  C1  UNL     1       0.975   1.530  -2.183  1.00  0.00     0.050 C 
HETATM    7  C2  UNL     1       1.936   0.328  -2.069  1.00  0.00     0.088 C 
HETATM    8  C3  UNL     1       1.149  -0.349  -3.209  1.00  0.00     0.050 C 
BRANCH   7   9
HETATM    9  N4  UNL     1       3.365   0.582  -2.303  1.00  0.00    -0.354 N 
HETATM   10  C24 UNL     1       3.913   1.246  -3.384  1.00  0.00     0.242 C 
HETATM   11  O5  UNL     1       3.259   1.744  -4.297  1.00  0.00    -0.271 OA
HETATM   12  H33 UNL     1       4.053   0.216  -1.650  1.00  0.00     0.162 HD
BRANCH  10  13
HETATM   13  C25 UNL     1       5.442   1.319  -3.364  1.00  0.00     0.278 C 
BRANCH  13  14
HETATM   14  O6  UNL     1       5.972   0.688  -2.200  1.00  0.00    -0.342 OA
BRANCH  14  15
HETATM   15  C26 UNL     1       7.335   0.688  -2.064  1.00  0.00     0.070 A 
HETATM   16  C27 UNL     1       8.245   1.246  -2.960  1.00  0.00     0.037 A 
HETATM   17  C28 UNL     1       9.612   1.180  -2.694  1.00  0.00     0.003 A 
HETATM   18  C29 UNL     1      10.072   0.555  -1.535  1.00  0.00     0.011 A 
HETATM   19  C30 UNL     1       9.177  -0.024  -0.614  1.00  0.00    -0.006 A 
HETATM   20  C31 UNL     1       7.803   0.061  -0.902  1.00  0.00     0.047 A 
BRANCH  19  21
HETATM   21  C32 UNL     1       9.731  -0.689   0.655  1.00  0.00     0.198 C 
BRANCH  21  22
HETATM   22  C33 UNL     1      10.375   0.311   1.630  1.00  0.00    -0.009 A 
HETATM   23  C34 UNL     1       9.737   1.524   1.953  1.00  0.00     0.011 A 
HETATM   24  C35 UNL     1      10.310   2.422   2.856  1.00  0.00     0.001 A 
HETATM   25  C36 UNL     1      11.528   2.124   3.459  1.00  0.00     0.000 A 
HETATM   26  C37 UNL     1      12.173   0.926   3.163  1.00  0.00     0.001 A 
HETATM   27  C38 UNL     1      11.601   0.026   2.261  1.00  0.00     0.011 A 
ENDBRANCH  21  22
BRANCH  21  28
HETATM   28  C39 UNL     1       8.710  -1.598   1.394  1.00  0.00     0.186 C 
HETATM   29  O7  UNL     1       8.652  -2.818   1.280  1.00  0.00    -0.647 OA
BRANCH  28  30
HETATM   30  O8  UNL     1       7.810  -0.966   2.177  1.00  0.00    -0.774 OA
HETATM   31  H36 UNL     1       7.297  -1.692   2.591  1.00  0.00     0.167 HD
ENDBRANCH  28  30
ENDBRANCH  21  28
BRANCH  21  32
HETATM   32  O9  UNL     1      10.764  -1.587   0.173  1.00  0.00    -0.370 OA
HETATM   33  H37 UNL     1      10.305  -2.416  -0.060  1.00  0.00     0.212 HD
ENDBRANCH  21  32
ENDBRANCH  19  21
ENDBRANCH  14  15
ENDBRANCH  13  14
ENDBRANCH  10  13
ENDBRANCH   7   9
ENDBRANCH   2   5
BRANCH   1  34
HETATM   34  C6  UNL     1      -2.949  -1.395  -1.359  1.00  0.00     0.049 A 
HETATM   35  C7  UNL     1      -3.618  -0.573  -0.443  1.00  0.00     0.027 A 
HETATM   36  C8  UNL     1      -4.528  -1.134   0.466  1.00  0.00     0.029 A 
HETATM   37 BR1  UNL     1      -3.426   1.317  -0.382  1.00  0.00    -0.050 Br
HETATM   38  C9  UNL     1      -4.794  -2.512   0.466  1.00  0.00    -0.029 A 
HETATM   39  C10 UNL     1      -4.136  -3.326  -0.463  1.00  0.00     0.010 A 
HETATM   40  C11 UNL     1      -3.227  -2.772  -1.367  1.00  0.00     0.019 A 
BRANCH  38  41
HETATM   41  C12 UNL     1      -5.798  -3.102   1.427  1.00  0.00     0.308 C 
BRANCH  41  42
HETATM   42  N2  UNL     1      -7.072  -3.469   0.801  1.00  0.00     0.090 N 
HETATM   43  H31 UNL     1      -6.874  -4.095   0.018  1.00  0.00     0.316 HD
BRANCH  42  44
HETATM   44  C13 UNL     1      -7.858  -2.325   0.288  1.00  0.00     0.306 C 
BRANCH  44  45
HETATM   45  C14 UNL     1      -8.450  -1.438   1.417  1.00  0.00     0.180 C 
BRANCH  45  46
HETATM   46  C15 UNL     1      -9.368  -0.295   1.008  1.00  0.00    -0.015 A 
HETATM   47  C16 UNL     1      -9.767   0.695   1.945  1.00  0.00     0.003 A 
HETATM   48  C17 UNL     1      -9.370   0.670   3.364  1.00  0.00     0.020 A 
HETATM   49  C20 UNL     1     -10.584   1.767   1.527  1.00  0.00     0.079 A 
HETATM   50  C18 UNL     1      -9.710   1.660   4.199  1.00  0.00     0.075 A 
HETATM   51  C19 UNL     1     -10.489   2.823   3.730  1.00  0.00     0.245 A 
HETATM   52  N3  UNL     1     -10.908   2.795   2.431  1.00  0.00    -0.321 N 
HETATM   53  O2  UNL     1     -10.745   3.757   4.481  1.00  0.00    -0.268 OA
HETATM   54  H32 UNL     1     -11.382   3.628   2.114  1.00  0.00     0.169 HD
HETATM   55  C21 UNL     1     -11.046   1.831   0.213  1.00  0.00     0.093 A 
HETATM   56  C22 UNL     1     -10.663   0.875  -0.713  1.00  0.00     0.039 A 
HETATM   57  C23 UNL     1      -9.833  -0.177  -0.319  1.00  0.00     0.013 A 
BRANCH  55  58
HETATM   58  O3  UNL     1     -11.905   2.806  -0.209  1.00  0.00    -0.358 OA
HETATM   59  H34 UNL     1     -12.510   2.987   0.530  1.00  0.00     0.217 HD
ENDBRANCH  55  58
ENDBRANCH  45  46
BRANCH  45  60
HETATM   60  O4  UNL     1      -9.161  -2.297   2.316  1.00  0.00    -0.389 OA
HETATM   61  H35 UNL     1      -8.684  -3.150   2.278  1.00  0.00     0.210 HD
ENDBRANCH  45  60
ENDBRANCH  44  45
ENDBRANCH  42  44
ENDBRANCH  41  42
ENDBRANCH  38  41
ENDBRANCH   1  34
TORSDOF 18
