REMARK  0 active torsions:
REMARK  status: ('A' for Active; 'I' for Inactive)
REMARK       I    between atoms: C9_9  and  C10_10 
REMARK       I    between atoms: C10_10  and  N2_55 
REMARK       I    between atoms: C11_11  and  C12_12 
REMARK       I    between atoms: C11_11  and  N2_55 
REMARK       I    between atoms: C12_12  and  C13_13 
REMARK       I    between atoms: C13_13  and  C14_14 
REMARK       I    between atoms: C14_14  and  C15_15 
REMARK       I    between atoms: C15_15  and  C16_16 
REMARK       I    between atoms: C15_15  and  N3_56 
REMARK       I    between atoms: C16_16  and  O2_65 
REMARK       I    between atoms: C17_17  and  N3_56 
REMARK       I    between atoms: C17_17  and  N4_57 
REMARK       I    between atoms: C18_18  and  C19_19 
REMARK       I    between atoms: C18_18  and  C22_22 
REMARK       I    between atoms: C18_18  and  N4_57 
REMARK       I    between atoms: C19_19  and  C20_20 
REMARK       I    between atoms: C20_20  and  C21_21 
REMARK       I    between atoms: C21_21  and  O5_68 
REMARK       I    between atoms: C22_22  and  O7_70 
REMARK       I    between atoms: C23_23  and  C24_24 
REMARK       I    between atoms: C23_23  and  N2_55 
REMARK       I    between atoms: C27_27  and  C30_30 
REMARK       I    between atoms: C30_30  and  N5_58 
REMARK       I    between atoms: C31_31  and  C32_32 
REMARK       I    between atoms: C31_31  and  N5_58 
REMARK       I    between atoms: C32_32  and  C33_33 
REMARK       I    between atoms: C33_33  and  C34_34 
REMARK       I    between atoms: C34_34  and  C35_35 
REMARK       I    between atoms: C35_35  and  N6_59 
REMARK       I    between atoms: C36_36  and  C37_37 
REMARK       I    between atoms: C36_36  and  N6_59 
REMARK       I    between atoms: C37_37  and  C38_38 
REMARK       I    between atoms: C38_38  and  C39_39 
REMARK       I    between atoms: C39_39  and  C40_40 
REMARK       I    between atoms: C39_39  and  N7_60 
REMARK       I    between atoms: C40_40  and  O12_75 
REMARK       I    between atoms: C41_41  and  C42_42 
REMARK       I    between atoms: C41_41  and  N7_60 
REMARK       I    between atoms: C42_42  and  N8_61 
REMARK       I    between atoms: C43_43  and  C44_44 
REMARK       I    between atoms: C43_43  and  N8_61 
REMARK       I    between atoms: C44_44  and  O14_77 
REMARK       I    between atoms: C45_45  and  C46_46 
REMARK       I    between atoms: C45_45  and  N7_60 
REMARK       I    between atoms: C46_46  and  N9_62 
REMARK       I    between atoms: C47_47  and  C48_48 
REMARK       I    between atoms: C47_47  and  N9_62 
REMARK       I    between atoms: C48_48  and  N10_63 
REMARK       I    between atoms: C49_49  and  C50_50 
REMARK       I    between atoms: C49_49  and  N10_63 
REMARK       I    between atoms: C50_50  and  O16_79 
REMARK       I    between atoms: C51_51  and  C52_52 
REMARK       I    between atoms: C51_51  and  N9_62 
REMARK       I    between atoms: C52_52  and  O18_81 
ROOT
HETATM    1  C1  UNL     1      10.302  -1.307   1.313  1.00  0.00     0.001 A 
HETATM    2  C2  UNL     1       9.538  -2.398   1.701  1.00  0.00     0.001 A 
HETATM    3  C3  UNL     1       8.413  -2.209   2.507  1.00  0.00     0.014 A 
HETATM    4  C4  UNL     1       8.018  -0.922   2.954  1.00  0.00    -0.002 A 
HETATM    5  C5  UNL     1       8.801   0.177   2.531  1.00  0.00    -0.023 A 
HETATM    6  C6  UNL     1       9.931  -0.027   1.721  1.00  0.00     0.012 A 
HETATM    7  C7  UNL     1       8.451   1.470   2.924  1.00  0.00     0.029 A 
HETATM    8  C8  UNL     1       7.364   1.641   3.756  1.00  0.00     0.089 A 
HETATM    9  C9  UNL     1       6.919  -0.638   3.807  1.00  0.00     0.038 A 
HETATM   10  C10 UNL     1       6.026  -1.719   4.386  1.00  0.00     0.183 C 
HETATM   11  C11 UNL     1       3.679  -0.894   4.042  1.00  0.00     0.126 C 
HETATM   12  C12 UNL     1       3.555   0.282   3.063  1.00  0.00     0.020 C 
HETATM   13  C13 UNL     1       2.885  -0.066   1.734  1.00  0.00     0.004 C 
HETATM   14  C14 UNL     1       2.370   1.170   0.985  1.00  0.00     0.036 C 
HETATM   15  C15 UNL     1       3.464   2.126   0.503  1.00  0.00     0.183 C 
HETATM   16  C16 UNL     1       2.798   3.391  -0.039  1.00  0.00     0.163 C 
HETATM   17  C17 UNL     1       5.509   1.976  -0.829  1.00  0.00     0.295 C 
HETATM   18  C18 UNL     1       7.422   1.600  -2.310  1.00  0.00     0.163 C 
HETATM   19  C19 UNL     1       7.597   1.368  -3.819  1.00  0.00     0.041 C 
HETATM   20  C20 UNL     1       8.952   1.801  -4.384  1.00  0.00     0.112 C 
HETATM   21  C21 UNL     1       9.150   3.292  -4.355  1.00  0.00     0.139 C 
HETATM   22  C22 UNL     1       8.304   0.626  -1.513  1.00  0.00     0.158 C 
HETATM   23  C23 UNL     1       4.559  -2.998   2.904  1.00  0.00     0.254 C 
HETATM   24  C24 UNL     1       3.209  -3.404   2.462  1.00  0.00     0.032 A 
HETATM   25  C25 UNL     1       2.252  -3.816   3.393  1.00  0.00     0.017 A 
HETATM   26  C26 UNL     1       0.995  -4.237   2.954  1.00  0.00     0.010 A 
HETATM   27  C27 UNL     1       0.696  -4.272   1.583  1.00  0.00    -0.040 A 
HETATM   28  C28 UNL     1       1.675  -3.880   0.657  1.00  0.00     0.010 A 
HETATM   29  C29 UNL     1       2.935  -3.468   1.093  1.00  0.00     0.017 A 
HETATM   30  C30 UNL     1      -0.671  -4.704   1.115  1.00  0.00     0.161 C 
HETATM   31  C31 UNL     1      -2.451  -3.417   2.229  1.00  0.00     0.217 C 
HETATM   32  C32 UNL     1      -3.316  -2.181   2.105  1.00  0.00     0.103 C 
HETATM   33  C33 UNL     1      -3.298  -1.287   3.341  1.00  0.00     0.011 C 
HETATM   34  C34 UNL     1      -1.932  -0.939   3.949  1.00  0.00     0.020 C 
HETATM   35  C35 UNL     1      -0.806  -0.568   2.989  1.00  0.00     0.122 C 
HETATM   36  C36 UNL     1      -1.128   0.222   0.670  1.00  0.00     0.217 C 
HETATM   37  C37 UNL     1      -1.507   1.439  -0.150  1.00  0.00     0.105 C 
HETATM   38  C38 UNL     1      -1.682   1.114  -1.637  1.00  0.00     0.056 C 
HETATM   39  C39 UNL     1      -2.853   0.140  -1.952  1.00  0.00     0.320 C 
HETATM   40  C40 UNL     1      -2.322  -0.815  -3.037  1.00  0.00     0.174 C 
HETATM   41  C41 UNL     1      -4.628   1.809  -1.451  1.00  0.00     0.303 C 
HETATM   42  C42 UNL     1      -5.233   1.279  -0.124  1.00  0.00     0.300 C 
HETATM   43  C43 UNL     1      -6.343   1.914   1.951  1.00  0.00     0.378 C 
HETATM   44  C44 UNL     1      -7.815   1.709   1.600  1.00  0.00     0.168 C 
HETATM   45  C45 UNL     1      -5.151  -0.220  -2.757  1.00  0.00     0.303 C 
HETATM   46  C46 UNL     1      -6.503   0.319  -3.302  1.00  0.00     0.303 C 
HETATM   47  C47 UNL     1      -8.908  -0.225  -3.234  1.00  0.00     0.303 C 
HETATM   48  C48 UNL     1      -9.221   0.315  -1.814  1.00  0.00     0.300 C 
HETATM   49  C49 UNL     1     -11.260   1.611  -2.330  1.00  0.00     0.378 C 
HETATM   50  C50 UNL     1     -10.700   2.999  -2.057  1.00  0.00     0.168 C 
HETATM   51  C51 UNL     1      -7.372  -1.658  -4.495  1.00  0.00     0.381 C 
HETATM   52  C52 UNL     1      -7.585  -1.006  -5.853  1.00  0.00     0.169 C 
HETATM   53  N1  UNL     1       6.611   0.627   4.220  1.00  0.00    -0.367 N 
ATOM     54  H1  UNL     1       5.835   0.798   4.860  1.00  0.00     0.165 HD
HETATM   55  N2  UNL     1       4.717  -1.888   3.732  1.00  0.00    -0.342 N 
HETATM   56  N3  UNL     1       4.240   1.523  -0.578  1.00  0.00    -0.333 N 
HETATM   57  N4  UNL     1       6.015   1.376  -1.955  1.00  0.00    -0.230 NA
HETATM   58  N5  UNL     1      -1.610  -3.608   1.157  1.00  0.00    -0.357 N 
HETATM   59  N6  UNL     1      -1.181   0.446   2.028  1.00  0.00    -0.361 N 
HETATM   60  N7  UNL     1      -4.125   0.800  -2.408  1.00  0.00     0.106 N 
HETATM   61  N8  UNL     1      -5.550   2.387   0.790  1.00  0.00     0.095 N 
HETATM   62  N9  UNL     1      -7.531  -0.741  -3.342  1.00  0.00     0.101 N 
HETATM   63  N10 UNL     1     -10.639   0.555  -1.512  1.00  0.00     0.095 N 
HETATM   64  O1  UNL     1       2.425   3.577  -1.188  1.00  0.00    -0.648 OA
HETATM   65  O2  UNL     1       2.572   4.322   0.910  1.00  0.00    -0.775 OA
HETATM   66  O3  UNL     1       6.105   2.793  -0.143  1.00  0.00    -0.254 OA
HETATM   67  O4  UNL     1       8.329   4.141  -4.055  1.00  0.00    -0.650 OA
HETATM   68  O5  UNL     1      10.393   3.643  -4.736  1.00  0.00    -0.776 OA
HETATM   69  O6  UNL     1       9.522   0.673  -1.428  1.00  0.00    -0.649 OA
HETATM   70  O7  UNL     1       7.612  -0.394  -0.954  1.00  0.00    -0.775 OA
HETATM   71  O8  UNL     1       5.491  -3.710   2.536  1.00  0.00    -0.267 OA
HETATM   72  O9  UNL     1      -2.524  -4.175   3.191  1.00  0.00    -0.274 OA
HETATM   73  O10 UNL     1      -0.821  -0.857   0.170  1.00  0.00    -0.274 OA
HETATM   74  O11 UNL     1      -1.816  -0.519  -4.108  1.00  0.00    -0.648 OA
HETATM   75  O12 UNL     1      -2.485  -2.118  -2.709  1.00  0.00    -0.775 OA
HETATM   76  O13 UNL     1      -8.576   0.925   2.142  1.00  0.00    -0.649 OA
HETATM   77  O14 UNL     1      -8.242   2.541   0.622  1.00  0.00    -0.775 OA
HETATM   78  O15 UNL     1     -10.524   3.869  -2.896  1.00  0.00    -0.649 OA
HETATM   79  O16 UNL     1     -10.442   3.257  -0.755  1.00  0.00    -0.775 OA
HETATM   80  O17 UNL     1      -6.724  -0.513  -6.564  1.00  0.00    -0.649 OA
HETATM   81  O18 UNL     1      -8.878  -0.982  -6.238  1.00  0.00    -0.775 OA
HETATM   82  H60 UNL     1       3.722   1.353  -1.431  1.00  0.00     0.164 HD
HETATM   83  H61 UNL     1       5.735   0.404  -2.003  1.00  0.00     0.133 HD
HETATM   84  H62 UNL     1      -1.397  -2.802   0.569  1.00  0.00     0.162 HD
HETATM   85  H63 UNL     1      -1.391   1.377   2.369  1.00  0.00     0.162 HD
HETATM   86  H64 UNL     1      -6.141   3.065   0.296  1.00  0.00     0.316 HD
HETATM   87  H65 UNL     1     -11.156  -0.315  -1.649  1.00  0.00     0.316 HD
HETATM   88  H66 UNL     1       2.204   5.082   0.410  1.00  0.00     0.167 HD
HETATM   89  H67 UNL     1      10.395   4.621  -4.674  1.00  0.00     0.167 HD
HETATM   90  H68 UNL     1       8.261  -0.871  -0.392  1.00  0.00     0.167 HD
HETATM   91  H69 UNL     1      -2.113  -2.589  -3.484  1.00  0.00     0.167 HD
HETATM   92  H70 UNL     1      -9.191   2.304   0.465  1.00  0.00     0.167 HD
HETATM   93  H71 UNL     1     -10.145   4.193  -0.771  1.00  0.00     0.167 HD
HETATM   94  H72 UNL     1      -8.851  -0.525  -7.105  1.00  0.00     0.167 HD
ENDROOT
TORSDOF 49
