REMARK  0 active torsions:
REMARK  status: ('A' for Active; 'I' for Inactive)
REMARK       I    between atoms: C3_3  and  O29_81 
REMARK       I    between atoms: C4_4  and  N8_90 
REMARK       I    between atoms: C5_5  and  N7_89 
REMARK       I    between atoms: C6_6  and  O16_68 
REMARK       I    between atoms: C7_7  and  O1_53 
REMARK       I    between atoms: C8_8  and  C9_9 
REMARK       I    between atoms: C8_8  and  O1_53 
REMARK       I    between atoms: C13_13  and  O3_55 
REMARK       I    between atoms: C15_15  and  N1_82 
REMARK       I    between atoms: C16_16  and  O15_67 
REMARK       I    between atoms: C17_17  and  N6_88 
REMARK       I    between atoms: C18_18  and  N2_83 
REMARK       I    between atoms: C19_19  and  O5_57 
REMARK       I    between atoms: C20_20  and  O4_56 
REMARK       I    between atoms: C25_25  and  O7_59 
REMARK       I    between atoms: C25_25  and  O8_60 
REMARK       I    between atoms: C26_26  and  C34_34 
REMARK       I    between atoms: C27_27  and  N4_86 
REMARK       I    between atoms: C28_28  and  O13_65 
REMARK       I    between atoms: C29_29  and  O12_64 
REMARK       I    between atoms: C30_30  and  O11_63 
REMARK       I    between atoms: C31_31  and  O10_62 
REMARK       I    between atoms: C32_32  and  O9_61 
REMARK       I    between atoms: C34_34  and  N5_87 
REMARK       I    between atoms: C38_38  and  O26_78 
REMARK       I    between atoms: C38_38  and  O27_79 
REMARK       I    between atoms: C40_40  and  N9_91 
REMARK       I    between atoms: C41_41  and  O25_77 
REMARK       I    between atoms: C42_42  and  N11_93 
REMARK       I    between atoms: C43_43  and  N10_92 
REMARK       I    between atoms: C44_44  and  O19_71 
REMARK       I    between atoms: C45_45  and  O18_70 
REMARK       I    between atoms: C47_47  and  O23_75 
REMARK       I    between atoms: C47_47  and  O24_76 
REMARK       I    between atoms: C50_50  and  O21_73 
REMARK       I    between atoms: C50_50  and  O22_74 
REMARK       I    between atoms: C51_51  and  C52_52 
REMARK       I    between atoms: C52_52  and  N13_96 
ROOT
HETATM    1  C1  UNL     1      -1.571   0.856  -1.122  1.00  0.00     0.054 C 
HETATM    2  C2  UNL     1      -2.276   0.456  -2.395  1.00  0.00     0.010 A 
HETATM    3  C3  UNL     1      -3.318  -0.498  -2.371  1.00  0.00     0.105 A 
HETATM    4  C4  UNL     1      -3.985  -0.913  -3.535  1.00  0.00     0.114 A 
HETATM    5  C5  UNL     1      -3.506  -0.429  -4.770  1.00  0.00     0.074 A 
HETATM    6  C6  UNL     1      -2.480   0.540  -4.792  1.00  0.00     0.123 A 
HETATM    7  C7  UNL     1      -1.841   0.971  -3.629  1.00  0.00     0.112 A 
HETATM    8  C8  UNL     1       0.056   1.965  -4.675  1.00  0.00     0.185 C 
HETATM    9  C9  UNL     1       1.410   2.583  -4.273  1.00  0.00     0.066 C 
HETATM   10  C10 UNL     1       1.206   4.018  -3.780  1.00  0.00     0.021 C 
HETATM   11  C11 UNL     1       2.548   4.696  -3.619  1.00  0.00     0.104 C 
HETATM   12  C12 UNL     1       3.614   3.886  -2.909  1.00  0.00     0.227 C 
HETATM   13  C13 UNL     1       2.231   1.810  -3.199  1.00  0.00     0.142 C 
HETATM   14  C14 UNL     1       2.380   0.337  -3.632  1.00  0.00     0.072 C 
HETATM   15  C15 UNL     1       4.673   1.768  -2.537  1.00  0.00     0.111 A 
HETATM   16  C16 UNL     1       4.701   1.000  -1.375  1.00  0.00     0.119 A 
HETATM   17  C17 UNL     1       5.865   0.318  -0.945  1.00  0.00     0.072 A 
HETATM   18  C18 UNL     1       7.093   0.466  -1.642  1.00  0.00     0.102 A 
HETATM   19  C19 UNL     1       7.035   1.207  -2.838  1.00  0.00     0.130 A 
HETATM   20  C20 UNL     1       5.860   1.852  -3.265  1.00  0.00     0.131 A 
HETATM   21  C21 UNL     1       8.619   0.096   0.268  1.00  0.00     0.282 C 
HETATM   22  C22 UNL     1       9.721  -0.682   0.785  1.00  0.00     0.134 C 
HETATM   23  C23 UNL     1      10.564  -1.469   0.032  1.00  0.00     0.017 C 
HETATM   24  C24 UNL     1      10.289  -1.709  -1.398  1.00  0.00     0.138 C 
HETATM   25  C25 UNL     1       9.416  -0.557  -1.976  1.00  0.00     0.257 C 
HETATM   26  C26 UNL     1      11.652  -1.798   0.878  1.00  0.00     0.125 C 
HETATM   27  C27 UNL     1       9.558  -0.497   3.314  1.00  0.00     0.129 A 
HETATM   28  C28 UNL     1      10.320  -0.074   4.414  1.00  0.00     0.134 A 
HETATM   29  C29 UNL     1       9.712   0.250   5.643  1.00  0.00     0.138 A 
HETATM   30  C30 UNL     1       8.336   0.116   5.813  1.00  0.00     0.140 A 
HETATM   31  C31 UNL     1       7.602  -0.382   4.731  1.00  0.00     0.138 A 
HETATM   32  C32 UNL     1       8.194  -0.700   3.504  1.00  0.00     0.134 A 
HETATM   33  C33 UNL     1       8.221   0.994   8.028  1.00  0.00     0.210 C 
HETATM   34  C34 UNL     1      12.868  -2.570   0.577  1.00  0.00     0.268 C 
HETATM   35  C35 UNL     1      -6.035  -2.112  -2.541  1.00  0.00     0.134 C 
HETATM   36  C36 UNL     1      -6.666  -3.275  -2.945  1.00  0.00     0.017 C 
HETATM   37  C37 UNL     1      -7.669  -3.941  -2.078  1.00  0.00     0.138 C 
HETATM   38  C38 UNL     1      -7.510  -3.465  -0.611  1.00  0.00     0.257 C 
HETATM   39  C39 UNL     1      -6.415  -1.364  -1.361  1.00  0.00     0.282 C 
HETATM   40  C40 UNL     1      -7.880  -1.275   0.585  1.00  0.00     0.114 A 
HETATM   41  C41 UNL     1      -7.772  -1.681   1.916  1.00  0.00     0.119 A 
HETATM   42  C42 UNL     1      -8.251  -0.900   2.990  1.00  0.00     0.072 A 
HETATM   43  C43 UNL     1      -8.949   0.298   2.738  1.00  0.00     0.102 A 
HETATM   44  C44 UNL     1      -9.052   0.711   1.398  1.00  0.00     0.130 A 
HETATM   45  C45 UNL     1      -8.545  -0.068   0.347  1.00  0.00     0.131 A 
HETATM   46  C46 UNL     1     -10.445   0.361   4.693  1.00  0.00     0.291 C 
HETATM   47  C47 UNL     1     -11.067   1.259   5.816  1.00  0.00     0.244 C 
HETATM   48  C48 UNL     1     -11.561   2.547   5.178  1.00  0.00     0.086 C 
HETATM   49  C49 UNL     1     -10.446   3.279   4.431  1.00  0.00     0.100 C 
HETATM   50  C50 UNL     1      -9.237   2.390   4.098  1.00  0.00     0.253 C 
HETATM   51  C51 UNL     1      -6.182  -3.561  -4.241  1.00  0.00     0.125 C 
HETATM   52  C52 UNL     1      -6.539  -4.648  -5.171  1.00  0.00     0.268 C 
HETATM   53  O1  UNL     1      -0.829   1.891  -3.563  1.00  0.00    -0.347 OA
HETATM   54  O2  UNL     1       4.559   4.488  -2.386  1.00  0.00    -0.273 OA
HETATM   55  O3  UNL     1       1.540   1.841  -1.959  1.00  0.00    -0.370 OA
HETATM   56  O4  UNL     1       5.893   2.542  -4.455  1.00  0.00    -0.356 OA
HETATM   57  O5  UNL     1       8.117   1.387  -3.666  1.00  0.00    -0.356 OA
HETATM   58  O6  UNL     1       8.009   0.907   0.961  1.00  0.00    -0.265 OA
HETATM   59  O7  UNL     1      10.248   0.551  -2.243  1.00  0.00    -0.348 OA
HETATM   60  O8  UNL     1       8.910  -0.989  -3.237  1.00  0.00    -0.348 OA
HETATM   61  O9  UNL     1       7.401  -1.310   2.565  1.00  0.00    -0.356 OA
HETATM   62  O10 UNL     1       6.249  -0.607   4.853  1.00  0.00    -0.356 OA
HETATM   63  O11 UNL     1       7.575   0.375   6.923  1.00  0.00    -0.350 OA
HETATM   64  O12 UNL     1      10.543   0.678   6.646  1.00  0.00    -0.356 OA
HETATM   65  O13 UNL     1      11.690   0.070   4.382  1.00  0.00    -0.356 OA
HETATM   66  O14 UNL     1      13.947  -2.410   1.139  1.00  0.00    -0.266 OA
HETATM   67  O15 UNL     1       3.588   0.875  -0.573  1.00  0.00    -0.357 OA
HETATM   68  O16 UNL     1      -2.154   1.029  -6.036  1.00  0.00    -0.356 OA
HETATM   69  O17 UNL     1      -5.974  -0.239  -1.118  1.00  0.00    -0.265 OA
HETATM   70  O18 UNL     1      -8.786   0.350  -0.941  1.00  0.00    -0.356 OA
HETATM   71  O19 UNL     1      -9.697   1.867   1.025  1.00  0.00    -0.356 OA
HETATM   72  O20 UNL     1     -10.730  -0.841   4.661  1.00  0.00    -0.267 OA
HETATM   73  O21 UNL     1      -8.565   3.014   3.025  1.00  0.00    -0.348 OA
HETATM   74  O22 UNL     1      -8.284   2.349   5.134  1.00  0.00    -0.348 OA
HETATM   75  O23 UNL     1     -10.118   1.585   6.813  1.00  0.00    -0.358 OA
HETATM   76  O24 UNL     1     -12.142   0.627   6.472  1.00  0.00    -0.358 OA
HETATM   77  O25 UNL     1      -7.135  -2.858   2.247  1.00  0.00    -0.357 OA
HETATM   78  O26 UNL     1      -6.405  -4.124  -0.029  1.00  0.00    -0.348 OA
HETATM   79  O27 UNL     1      -8.675  -3.904   0.066  1.00  0.00    -0.348 OA
HETATM   80  O28 UNL     1      -5.848  -4.997  -6.125  1.00  0.00    -0.266 OA
HETATM   81  O29 UNL     1      -3.610  -1.058  -1.156  1.00  0.00    -0.358 OA
HETATM   82  N1  UNL     1       3.521   2.494  -2.979  1.00  0.00    -0.279 N 
HETATM   83  N2  UNL     1       8.319  -0.120  -1.109  1.00  0.00    -0.251 N 
HETATM   84  N3  UNL     1      11.470  -1.240   2.090  1.00  0.00    -0.287 N 
ATOM     85  H3  UNL     1      12.145  -1.178   2.852  1.00  0.00     0.188 HD
HETATM   86  N4  UNL     1      10.185  -0.774   2.078  1.00  0.00    -0.244 N 
HETATM   87  N5  UNL     1      12.730  -3.555  -0.368  1.00  0.00    -0.365 N 
HETATM   88  N6  UNL     1       5.743  -0.354   0.317  1.00  0.00    -0.298 NA
HETATM   89  N7  UNL     1      -4.151  -0.668  -6.031  1.00  0.00    -0.298 NA
HETATM   90  N8  UNL     1      -5.076  -1.840  -3.504  1.00  0.00    -0.245 N 
HETATM   91  N9  UNL     1      -7.322  -2.024  -0.499  1.00  0.00    -0.250 N 
HETATM   92  N10 UNL     1      -9.604   1.025   3.789  1.00  0.00    -0.252 N 
HETATM   93  N11 UNL     1      -8.111  -1.469   4.295  1.00  0.00    -0.298 NA
HETATM   94  N12 UNL     1      -5.294  -2.623  -4.606  1.00  0.00    -0.287 N 
ATOM     95  H12 UNL     1      -4.865  -2.515  -5.525  1.00  0.00     0.188 HD
HETATM   96  N13 UNL     1      -7.748  -5.262  -4.965  1.00  0.00    -0.365 N 
HETATM   97  H25 UNL     1       2.203   1.559  -1.298  1.00  0.00     0.212 HD
HETATM   98  H26 UNL     1       6.842   2.634  -4.666  1.00  0.00     0.218 HD
HETATM   99  H27 UNL     1       8.416   0.473  -3.872  1.00  0.00     0.218 HD
HETATM  100  H28 UNL     1       9.649   1.322  -2.246  1.00  0.00     0.215 HD
HETATM  101  H29 UNL     1       9.638  -1.475  -3.664  1.00  0.00     0.215 HD
HETATM  102  H30 UNL     1       6.511  -1.332   2.983  1.00  0.00     0.218 HD
HETATM  103  H31 UNL     1       6.034  -0.307   5.761  1.00  0.00     0.218 HD
HETATM  104  H32 UNL     1      11.438   0.673   6.245  1.00  0.00     0.218 HD
HETATM  105  H33 UNL     1      12.016  -0.390   3.572  1.00  0.00     0.218 HD
HETATM  106  H34 UNL     1       3.910   0.298   0.157  1.00  0.00     0.218 HD
HETATM  107  H35 UNL     1      -2.711   0.485  -6.636  1.00  0.00     0.218 HD
HETATM  108  H36 UNL     1      -9.261   1.200  -0.848  1.00  0.00     0.218 HD
HETATM  109  H37 UNL     1      -9.387   2.555   1.654  1.00  0.00     0.218 HD
HETATM  110  H38 UNL     1      -7.631   2.867   3.269  1.00  0.00     0.215 HD
HETATM  111  H39 UNL     1      -8.756   2.527   5.973  1.00  0.00     0.215 HD
HETATM  112  H40 UNL     1     -10.174   0.838   7.438  1.00  0.00     0.213 HD
HETATM  113  H41 UNL     1     -12.127  -0.309   6.188  1.00  0.00     0.213 HD
HETATM  114  H42 UNL     1      -7.134  -2.836   3.234  1.00  0.00     0.218 HD
HETATM  115  H43 UNL     1      -6.187  -3.571   0.745  1.00  0.00     0.215 HD
HETATM  116  H44 UNL     1      -8.431  -3.834   1.004  1.00  0.00     0.215 HD
HETATM  117  H45 UNL     1      -4.241  -0.421  -0.752  1.00  0.00     0.217 HD
HETATM  118  H46 UNL     1      13.526  -4.180  -0.420  1.00  0.00     0.159 HD
HETATM  119  H47 UNL     1      11.823  -3.970  -0.524  1.00  0.00     0.159 HD
HETATM  120  H48 UNL     1       6.365  -1.163   0.342  1.00  0.00     0.124 HD
HETATM  121  H49 UNL     1       6.153   0.294   1.013  1.00  0.00     0.124 HD
HETATM  122  H50 UNL     1      -4.944  -0.031  -6.117  1.00  0.00     0.124 HD
HETATM  123  H51 UNL     1      -4.563  -1.617  -5.980  1.00  0.00     0.124 HD
HETATM  124  H52 UNL     1      -9.041  -1.839   4.547  1.00  0.00     0.124 HD
HETATM  125  H53 UNL     1      -7.934  -0.715   4.962  1.00  0.00     0.124 HD
HETATM  126  H54 UNL     1      -8.480  -4.804  -4.444  1.00  0.00     0.159 HD
HETATM  127  H55 UNL     1      -8.031  -5.890  -5.706  1.00  0.00     0.159 HD
ENDROOT
TORSDOF 36
