REMARK  0 active torsions:
REMARK  status: ('A' for Active; 'I' for Inactive)
REMARK       I    between atoms: C2_2  and  C3_3 
REMARK       I    between atoms: C3_3  and  C5_5 
REMARK       I    between atoms: C3_3  and  N10_97 
REMARK       I    between atoms: C5_5  and  N1_88 
REMARK       I    between atoms: C6_6  and  C7_7 
REMARK       I    between atoms: C6_6  and  C10_10 
REMARK       I    between atoms: C6_6  and  N1_88 
REMARK       I    between atoms: C10_10  and  N2_89 
REMARK       I    between atoms: C11_11  and  C14_14 
REMARK       I    between atoms: C11_11  and  N2_89 
REMARK       I    between atoms: C14_14  and  N3_90 
REMARK       I    between atoms: C15_15  and  C17_17 
REMARK       I    between atoms: C15_15  and  N3_90 
REMARK       I    between atoms: C17_17  and  N4_91 
REMARK       I    between atoms: C18_18  and  C21_21 
REMARK       I    between atoms: C18_18  and  N4_91 
REMARK       I    between atoms: C21_21  and  N5_92 
REMARK       I    between atoms: C22_22  and  C25_25 
REMARK       I    between atoms: C22_22  and  N5_92 
REMARK       I    between atoms: C25_25  and  N6_93 
REMARK       I    between atoms: C26_26  and  C29_29 
REMARK       I    between atoms: C26_26  and  N6_93 
REMARK       I    between atoms: C29_29  and  N7_94 
REMARK       I    between atoms: C30_30  and  C31_31 
REMARK       I    between atoms: C30_30  and  C34_34 
REMARK       I    between atoms: C30_30  and  N7_94 
REMARK       I    between atoms: C31_31  and  C32_32 
REMARK       I    between atoms: C32_32  and  C33_33 
REMARK       I    between atoms: C33_33  and  N8_95 
REMARK       I    between atoms: C34_34  and  N9_96 
REMARK       I    between atoms: C35_35  and  C36_36 
REMARK       I    between atoms: C35_35  and  C43_43 
REMARK       I    between atoms: C35_35  and  N9_96 
REMARK       I    between atoms: C36_36  and  C37_37 
REMARK       I    between atoms: C43_43  and  O10_79 
REMARK       I    between atoms: C44_44  and  C45_45 
REMARK       I    between atoms: C44_44  and  N10_97 
REMARK       I    between atoms: C45_45  and  C46_46 
REMARK       I    between atoms: C45_45  and  N12_99 
REMARK       I    between atoms: C46_46  and  C47_47 
REMARK       I    between atoms: C47_47  and  C48_48 
REMARK       I    between atoms: C48_48  and  N11_98 
REMARK       I    between atoms: C49_49  and  C50_50 
REMARK       I    between atoms: C49_49  and  N12_99 
REMARK       I    between atoms: C50_50  and  N13_100 
REMARK       I    between atoms: C53_53  and  C54_54 
REMARK       I    between atoms: C53_53  and  N13_100 
REMARK       I    between atoms: C54_54  and  C55_55 
REMARK       I    between atoms: C54_54  and  N14_101 
REMARK       I    between atoms: C55_55  and  C56_56 
REMARK       I    between atoms: C59_59  and  C60_60 
REMARK       I    between atoms: C59_59  and  N14_101 
REMARK       I    between atoms: C60_60  and  N15_102 
REMARK       I    between atoms: C62_62  and  C63_63 
REMARK       I    between atoms: C62_62  and  N15_102 
REMARK       I    between atoms: C63_63  and  N16_103 
REMARK       I    between atoms: C64_64  and  C65_65 
REMARK       I    between atoms: C64_64  and  N16_103 
REMARK       I    between atoms: C65_65  and  N17_104 
REMARK       I    between atoms: C68_68  and  N17_104 
ROOT
HETATM    1  C1  UNL     1      -0.664   1.382   6.551  1.00  0.00     0.008 C 
HETATM    2  C2  UNL     1       0.543   1.319   7.484  1.00  0.00     0.036 C 
HETATM    3  C3  UNL     1       1.773   2.163   7.037  1.00  0.00     0.110 C 
HETATM    4  C4  UNL     1       2.885   1.969   8.084  1.00  0.00     0.049 C 
HETATM    5  C5  UNL     1       1.331   3.661   7.037  1.00  0.00     0.246 C 
HETATM    6  C6  UNL     1       0.330   5.464   5.630  1.00  0.00     0.180 C 
HETATM    7  C7  UNL     1       1.357   6.572   5.297  1.00  0.00     0.009 C 
HETATM    8  C8  UNL     1       2.277   6.879   6.481  1.00  0.00     0.012 C 
HETATM    9  C9  UNL     1       2.200   6.261   4.055  1.00  0.00     0.012 C 
HETATM   10  C10 UNL     1      -0.714   5.347   4.497  1.00  0.00     0.241 C 
HETATM   11  C11 UNL     1      -2.880   6.263   3.626  1.00  0.00     0.106 C 
HETATM   12  C12 UNL     1      -2.468   6.165   2.151  1.00  0.00     0.048 C 
HETATM   13  C13 UNL     1      -3.675   7.568   3.811  1.00  0.00     0.048 C 
HETATM   14  C14 UNL     1      -3.799   5.105   4.131  1.00  0.00     0.246 C 
HETATM   15  C15 UNL     1      -5.553   3.448   3.625  1.00  0.00     0.172 C 
HETATM   16  C16 UNL     1      -6.792   3.902   4.387  1.00  0.00     0.042 C 
HETATM   17  C17 UNL     1      -5.923   2.666   2.352  1.00  0.00     0.241 C 
HETATM   18  C18 UNL     1      -6.587   3.077  -0.016  1.00  0.00     0.106 C 
HETATM   19  C19 UNL     1      -7.545   4.012  -0.770  1.00  0.00     0.048 C 
HETATM   20  C20 UNL     1      -6.981   1.628  -0.320  1.00  0.00     0.048 C 
HETATM   21  C21 UNL     1      -5.133   3.464  -0.432  1.00  0.00     0.246 C 
HETATM   22  C22 UNL     1      -3.290   3.194  -2.150  1.00  0.00     0.106 C 
HETATM   23  C23 UNL     1      -3.292   2.755  -3.626  1.00  0.00     0.048 C 
HETATM   24  C24 UNL     1      -2.866   4.670  -2.098  1.00  0.00     0.048 C 
HETATM   25  C25 UNL     1      -2.262   2.324  -1.362  1.00  0.00     0.246 C 
HETATM   26  C26 UNL     1      -1.480   1.683   0.943  1.00  0.00     0.106 C 
HETATM   27  C27 UNL     1      -0.047   2.201   0.840  1.00  0.00     0.048 C 
HETATM   28  C28 UNL     1      -2.003   1.885   2.375  1.00  0.00     0.048 C 
HETATM   29  C29 UNL     1      -1.584   0.161   0.627  1.00  0.00     0.246 C 
HETATM   30  C30 UNL     1      -3.233  -1.482  -0.252  1.00  0.00     0.177 C 
HETATM   31  C31 UNL     1      -4.157  -2.352   0.614  1.00  0.00     0.044 C 
HETATM   32  C32 UNL     1      -3.401  -3.510   1.265  1.00  0.00     0.105 C 
HETATM   33  C33 UNL     1      -2.991  -4.540   0.236  1.00  0.00     0.215 C 
HETATM   34  C34 UNL     1      -3.945  -1.091  -1.570  1.00  0.00     0.240 C 
HETATM   35  C35 UNL     1      -4.698  -1.939  -3.776  1.00  0.00     0.112 C 
HETATM   36  C36 UNL     1      -4.045  -2.708  -4.945  1.00  0.00     0.065 C 
HETATM   37  C37 UNL     1      -4.030  -4.213  -4.826  1.00  0.00    -0.056 A 
HETATM   38  C38 UNL     1      -2.945  -4.871  -4.235  1.00  0.00     0.007 A 
HETATM   39  C39 UNL     1      -2.930  -6.263  -4.129  1.00  0.00     0.001 A 
HETATM   40  C40 UNL     1      -3.999  -7.011  -4.616  1.00  0.00     0.000 A 
HETATM   41  C41 UNL     1      -5.083  -6.369  -5.210  1.00  0.00     0.001 A 
HETATM   42  C42 UNL     1      -5.098  -4.977  -5.317  1.00  0.00     0.007 A 
HETATM   43  C43 UNL     1      -6.194  -2.249  -3.582  1.00  0.00     0.189 C 
HETATM   44  C44 UNL     1       3.302   2.176   5.040  1.00  0.00     0.241 C 
HETATM   45  C45 UNL     1       3.785   1.349   3.803  1.00  0.00     0.177 C 
HETATM   46  C46 UNL     1       4.239   2.357   2.724  1.00  0.00     0.044 C 
HETATM   47  C47 UNL     1       5.040   1.749   1.572  1.00  0.00     0.105 C 
HETATM   48  C48 UNL     1       4.158   1.196   0.479  1.00  0.00     0.215 C 
HETATM   49  C49 UNL     1       2.604  -0.839   3.904  1.00  0.00     0.246 C 
HETATM   50  C50 UNL     1       1.605  -1.807   3.203  1.00  0.00     0.106 C 
HETATM   51  C51 UNL     1       0.200  -1.353   3.635  1.00  0.00     0.048 C 
HETATM   52  C52 UNL     1       1.809  -3.242   3.714  1.00  0.00     0.048 C 
HETATM   53  C53 UNL     1       2.754  -2.183   1.003  1.00  0.00     0.241 C 
HETATM   54  C54 UNL     1       2.603  -2.118  -0.534  1.00  0.00     0.177 C 
HETATM   55  C55 UNL     1       1.420  -2.913  -1.112  1.00  0.00     0.038 C 
HETATM   56  C56 UNL     1       1.564  -4.451  -1.151  1.00  0.00    -0.020 C 
HETATM   57  C57 UNL     1       1.526  -5.088   0.237  1.00  0.00     0.009 C 
HETATM   58  C58 UNL     1       0.446  -5.044  -2.014  1.00  0.00     0.009 C 
HETATM   59  C59 UNL     1       4.468  -1.945  -2.187  1.00  0.00     0.240 C 
HETATM   60  C60 UNL     1       5.832  -2.535  -2.593  1.00  0.00     0.172 C 
HETATM   61  C61 UNL     1       6.893  -2.211  -1.549  1.00  0.00     0.042 C 
HETATM   62  C62 UNL     1       7.059  -2.623  -4.742  1.00  0.00     0.236 C 
HETATM   63  C63 UNL     1       7.228  -1.951  -6.107  1.00  0.00     0.225 C 
HETATM   64  C64 UNL     1       6.795  -3.638  -7.836  1.00  0.00     0.245 C 
HETATM   65  C65 UNL     1       7.363  -4.848  -8.643  1.00  0.00     0.106 C 
HETATM   66  C66 UNL     1       7.856  -5.919  -7.663  1.00  0.00     0.048 C 
HETATM   67  C67 UNL     1       8.495  -4.363  -9.557  1.00  0.00     0.048 C 
HETATM   68  C68 UNL     1       6.247  -6.400 -10.300  1.00  0.00     0.214 C 
HETATM   69  C69 UNL     1       4.921  -6.699 -10.948  1.00  0.00     0.117 C 
HETATM   70  O1  UNL     1       1.211   4.314   8.073  1.00  0.00    -0.271 OA
HETATM   71  O2  UNL     1      -0.624   4.489   3.620  1.00  0.00    -0.271 OA
HETATM   72  O3  UNL     1      -3.793   4.757   5.314  1.00  0.00    -0.271 OA
HETATM   73  O4  UNL     1      -5.520   1.525   2.149  1.00  0.00    -0.271 OA
HETATM   74  O5  UNL     1      -4.469   4.247   0.261  1.00  0.00    -0.271 OA
HETATM   75  O6  UNL     1      -1.385   1.667  -1.916  1.00  0.00    -0.271 OA
HETATM   76  O7  UNL     1      -0.635  -0.620   0.665  1.00  0.00    -0.271 OA
HETATM   77  O8  UNL     1      -3.186  -4.413  -0.968  1.00  0.00    -0.274 OA
HETATM   78  O9  UNL     1      -4.490   0.004  -1.735  1.00  0.00    -0.271 OA
HETATM   79  O10 UNL     1      -6.949  -1.959  -4.756  1.00  0.00    -0.399 OA
HETATM   80  O11 UNL     1       3.888   3.189   5.417  1.00  0.00    -0.271 OA
HETATM   81  O12 UNL     1       2.973   0.923   0.636  1.00  0.00    -0.274 OA
HETATM   82  O13 UNL     1       3.016  -1.032   5.050  1.00  0.00    -0.271 OA
HETATM   83  O14 UNL     1       3.787  -2.609   1.525  1.00  0.00    -0.271 OA
HETATM   84  O15 UNL     1       3.973  -0.987  -2.782  1.00  0.00    -0.271 OA
HETATM   85  O16 UNL     1       7.700  -3.621  -4.416  1.00  0.00    -0.272 OA
HETATM   86  O17 UNL     1       5.600  -3.333  -7.886  1.00  0.00    -0.271 OA
HETATM   87  O18 UNL     1       7.246  -7.070 -10.539  1.00  0.00    -0.274 OA
HETATM   88  N1  UNL     1       0.915   4.146   5.819  1.00  0.00    -0.345 N 
HETATM   89  N2  UNL     1      -1.707   6.311   4.527  1.00  0.00    -0.342 N 
HETATM   90  N3  UNL     1      -4.710   4.586   3.231  1.00  0.00    -0.346 N 
HETATM   91  N4  UNL     1      -6.654   3.401   1.426  1.00  0.00    -0.342 N 
HETATM   92  N5  UNL     1      -4.659   2.955  -1.618  1.00  0.00    -0.342 N 
HETATM   93  N6  UNL     1      -2.386   2.387   0.015  1.00  0.00    -0.342 N 
HETATM   94  N7  UNL     1      -2.893  -0.257   0.451  1.00  0.00    -0.346 N 
HETATM   95  N8  UNL     1      -2.367  -5.636   0.746  1.00  0.00    -0.370 N 
HETATM   96  N9  UNL     1      -3.961  -2.087  -2.524  1.00  0.00    -0.352 N 
HETATM   97  N10 UNL     1       2.213   1.667   5.715  1.00  0.00    -0.342 N 
HETATM   98  N11 UNL     1       4.790   0.967  -0.704  1.00  0.00    -0.370 N 
HETATM   99  N12 UNL     1       2.794   0.388   3.297  1.00  0.00    -0.346 N 
HETATM  100  N13 UNL     1       1.683  -1.732   1.735  1.00  0.00    -0.342 N 
HETATM  101  N14 UNL     1       3.873  -2.558  -1.116  1.00  0.00    -0.346 N 
HETATM  102  N15 UNL     1       6.187  -1.981  -3.896  1.00  0.00    -0.347 N 
HETATM  103  N16 UNL     1       7.697  -2.936  -7.066  1.00  0.00    -0.350 N 
HETATM  104  N17 UNL     1       6.219  -5.341  -9.431  1.00  0.00    -0.344 N 
HETATM  105  H96 UNL     1      -6.925  -0.994  -4.882  1.00  0.00     0.209 HD
HETATM  106  H97 UNL     1       1.017   3.548   5.004  1.00  0.00     0.163 HD
HETATM  107  H98 UNL     1      -1.920   6.638   5.464  1.00  0.00     0.163 HD
HETATM  108  H99 UNL     1      -4.475   4.657   2.241  1.00  0.00     0.163 HD
HETATM  109  HA0 UNL     1      -6.668   4.395   1.627  1.00  0.00     0.163 HD
HETATM  110  HA1 UNL     1      -4.993   2.015  -1.838  1.00  0.00     0.163 HD
HETATM  111  HA2 UNL     1      -2.880   3.200   0.376  1.00  0.00     0.163 HD
HETATM  112  HA3 UNL     1      -3.572   0.495   0.357  1.00  0.00     0.163 HD
HETATM  113  HA4 UNL     1      -2.054  -6.350   0.101  1.00  0.00     0.159 HD
HETATM  114  HA5 UNL     1      -2.145  -5.740   1.726  1.00  0.00     0.159 HD
HETATM  115  HA6 UNL     1      -3.691  -3.032  -2.233  1.00  0.00     0.163 HD
HETATM  116  HA7 UNL     1       2.146   0.659   5.605  1.00  0.00     0.163 HD
HETATM  117  HA8 UNL     1       5.708   1.332  -0.913  1.00  0.00     0.159 HD
HETATM  118  HA9 UNL     1       4.233   0.624  -1.486  1.00  0.00     0.159 HD
HETATM  119  HB0 UNL     1       2.554   0.432   2.304  1.00  0.00     0.163 HD
HETATM  120  HB1 UNL     1       0.913  -1.274   1.236  1.00  0.00     0.163 HD
HETATM  121  HB2 UNL     1       4.418  -3.185  -0.531  1.00  0.00     0.163 HD
HETATM  122  HB3 UNL     1       5.538  -1.294  -4.275  1.00  0.00     0.163 HD
HETATM  123  HB4 UNL     1       8.556  -3.407  -6.807  1.00  0.00     0.163 HD
HETATM  124  HB5 UNL     1       5.339  -4.861  -9.257  1.00  0.00     0.163 HD
ENDROOT
TORSDOF 43
