REMARK  0 active torsions:
REMARK  status: ('A' for Active; 'I' for Inactive)
REMARK       I    between atoms: C4_4  and  C5_5 
REMARK       I    between atoms: C5_5  and  N3_81 
REMARK       I    between atoms: C6_6  and  N3_81 
REMARK       I    between atoms: C8_8  and  C9_9 
REMARK       I    between atoms: C9_9  and  N6_85 
REMARK       I    between atoms: C10_10  and  N6_85 
REMARK       I    between atoms: C12_12  and  C14_14 
REMARK       I    between atoms: C14_14  and  N8_87 
REMARK       I    between atoms: C15_15  and  N8_87 
REMARK       I    between atoms: C17_17  and  C19_19 
REMARK       I    between atoms: C19_19  and  N10_89 
REMARK       I    between atoms: C20_20  and  C21_21 
REMARK       I    between atoms: C20_20  and  N10_89 
REMARK       I    between atoms: C21_21  and  C22_22 
REMARK       I    between atoms: C22_22  and  C23_23 
REMARK       I    between atoms: C22_22  and  N24_104 
REMARK       I    between atoms: C23_23  and  N11_90 
REMARK       I    between atoms: C24_24  and  N11_90 
REMARK       I    between atoms: C26_26  and  C27_27 
REMARK       I    between atoms: C27_27  and  N14_94 
REMARK       I    between atoms: C28_28  and  N14_94 
REMARK       I    between atoms: C30_30  and  C32_32 
REMARK       I    between atoms: C32_32  and  N16_96 
REMARK       I    between atoms: C33_33  and  N16_96 
REMARK       I    between atoms: C35_35  and  C37_37 
REMARK       I    between atoms: C37_37  and  N18_98 
REMARK       I    between atoms: C38_38  and  N18_98 
REMARK       I    between atoms: C40_40  and  C42_42 
REMARK       I    between atoms: C42_42  and  N20_100 
REMARK       I    between atoms: C43_43  and  C44_44 
REMARK       I    between atoms: C43_43  and  N20_100 
REMARK       I    between atoms: C44_44  and  C45_45 
REMARK       I    between atoms: C45_45  and  N21_101 
REMARK       I    between atoms: C47_47  and  C48_48 
REMARK       I    between atoms: C47_47  and  N21_101 
REMARK       I    between atoms: C48_48  and  C49_49 
REMARK       I    between atoms: C49_49  and  N22_102 
REMARK       I    between atoms: C50_50  and  N22_102 
REMARK       I    between atoms: C50_50  and  N23_103 
REMARK       I    between atoms: C51_51  and  N23_103 
REMARK       I    between atoms: C53_53  and  C70_70 
REMARK       I    between atoms: C54_54  and  C57_57 
REMARK       I    between atoms: C68_68  and  O12_116 
REMARK       I    between atoms: C70_70  and  O14_118 
ROOT
HETATM    1  C1  UNL     1      25.456   3.224  -0.737  1.00  0.00     0.157 C 
HETATM    2  C2  UNL     1      27.774   2.720   0.056  1.00  0.00     0.109 A 
HETATM    3  C3  UNL     1      28.373   1.584   0.543  1.00  0.00     0.107 A 
HETATM    4  C4  UNL     1      26.335   1.031   0.124  1.00  0.00     0.176 A 
HETATM    5  C5  UNL     1      25.123   0.225   0.009  1.00  0.00     0.291 C 
HETATM    6  C6  UNL     1      24.423  -2.067   0.463  1.00  0.00     0.125 A 
HETATM    7  C7  UNL     1      24.662  -3.350   0.894  1.00  0.00     0.140 A 
HETATM    8  C8  UNL     1      22.559  -3.108   0.236  1.00  0.00     0.178 A 
HETATM    9  C9  UNL     1      21.159  -3.353  -0.086  1.00  0.00     0.290 C 
HETATM   10  C10 UNL     1      19.249  -2.068  -0.979  1.00  0.00     0.053 A 
HETATM   11  C11 UNL     1      18.257  -3.014  -0.988  1.00  0.00     0.120 A 
HETATM   12  C12 UNL     1      17.338  -1.103  -1.786  1.00  0.00     0.105 A 
HETATM   13  C13 UNL     1      18.675  -0.871  -1.473  1.00  0.00     0.066 A 
HETATM   14  C14 UNL     1      16.323  -0.197  -2.321  1.00  0.00     0.273 C 
HETATM   15  C15 UNL     1      16.082   2.024  -3.344  1.00  0.00     0.053 A 
HETATM   16  C16 UNL     1      16.649   3.176  -3.832  1.00  0.00     0.120 A 
HETATM   17  C17 UNL     1      14.412   3.383  -4.112  1.00  0.00     0.104 A 
HETATM   18  C18 UNL     1      14.684   2.154  -3.516  1.00  0.00     0.066 A 
HETATM   19  C19 UNL     1      13.139   3.980  -4.486  1.00  0.00     0.268 C 
HETATM   20  C20 UNL     1      10.699   3.602  -4.658  1.00  0.00     0.125 C 
HETATM   21  C21 UNL     1      10.083   4.463  -3.550  1.00  0.00     0.065 C 
HETATM   22  C22 UNL     1      10.128   3.813  -2.162  1.00  0.00     0.310 C 
HETATM   23  C23 UNL     1       9.416   2.444  -2.175  1.00  0.00     0.256 C 
HETATM   24  C24 UNL     1       7.162   1.538  -1.895  1.00  0.00     0.125 A 
HETATM   25  C25 UNL     1       7.332   0.205  -2.169  1.00  0.00     0.140 A 
HETATM   26  C26 UNL     1       5.225   0.645  -1.635  1.00  0.00     0.178 A 
HETATM   27  C27 UNL     1       3.802   0.505  -1.352  1.00  0.00     0.290 C 
HETATM   28  C28 UNL     1       1.909   1.931  -0.697  1.00  0.00     0.053 A 
HETATM   29  C29 UNL     1       1.410   3.167  -0.371  1.00  0.00     0.120 A 
HETATM   30  C30 UNL     1      -0.324   1.714  -0.257  1.00  0.00     0.105 A 
HETATM   31  C31 UNL     1       0.827   1.023  -0.629  1.00  0.00     0.066 A 
HETATM   32  C32 UNL     1      -1.690   1.229  -0.051  1.00  0.00     0.273 C 
HETATM   33  C33 UNL     1      -3.013  -0.841  -0.009  1.00  0.00     0.053 A 
HETATM   34  C34 UNL     1      -3.088  -2.208  -0.125  1.00  0.00     0.120 A 
HETATM   35  C35 UNL     1      -5.185  -1.476   0.321  1.00  0.00     0.105 A 
HETATM   36  C36 UNL     1      -4.321  -0.385   0.272  1.00  0.00     0.066 A 
HETATM   37  C37 UNL     1      -6.625  -1.526   0.577  1.00  0.00     0.273 C 
HETATM   38  C38 UNL     1      -8.578  -0.065   0.875  1.00  0.00     0.053 A 
HETATM   39  C39 UNL     1      -9.125   1.195   0.924  1.00  0.00     0.120 A 
HETATM   40  C40 UNL     1     -10.815  -0.265   1.289  1.00  0.00     0.104 A 
HETATM   41  C41 UNL     1      -9.634  -0.977   1.100  1.00  0.00     0.066 A 
HETATM   42  C42 UNL     1     -12.160  -0.746   1.546  1.00  0.00     0.268 C 
HETATM   43  C43 UNL     1     -13.527  -2.665   2.259  1.00  0.00     0.125 C 
HETATM   44  C44 UNL     1     -14.313  -3.085   1.017  1.00  0.00     0.050 C 
HETATM   45  C45 UNL     1     -15.770  -3.384   1.386  1.00  0.00     0.273 C 
HETATM   46  C46 UNL     1     -16.709  -2.982  -0.827  1.00  0.00     0.309 C 
HETATM   47  C47 UNL     1     -16.259  -5.264  -0.105  1.00  0.00     0.273 C 
HETATM   48  C48 UNL     1     -17.415  -6.048  -0.756  1.00  0.00     0.050 C 
HETATM   49  C49 UNL     1     -18.629  -6.201   0.167  1.00  0.00     0.123 C 
HETATM   50  C50 UNL     1     -20.397  -4.451  -0.302  1.00  0.00     0.172 C 
HETATM   51  C51 UNL     1     -20.275  -2.151   0.775  1.00  0.00     0.035 A 
HETATM   52  C52 UNL     1     -20.516  -0.816   0.434  1.00  0.00     0.048 A 
HETATM   53  C53 UNL     1     -20.100   0.230   1.274  1.00  0.00     0.051 A 
HETATM   54  C54 UNL     1     -19.418  -0.049   2.470  1.00  0.00    -0.007 A 
HETATM   55  C55 UNL     1     -19.221  -1.393   2.827  1.00  0.00     0.015 A 
HETATM   56  C56 UNL     1     -19.660  -2.430   1.995  1.00  0.00     0.030 A 
HETATM   57  C57 UNL     1     -18.865   0.997   3.376  1.00  0.00     0.001 A 
HETATM   58  C58 UNL     1     -17.671   1.589   3.095  1.00  0.00     0.010 A 
HETATM   59  C59 UNL     1     -16.869   1.224   1.918  1.00  0.00     0.019 A 
HETATM   60  C60 UNL     1     -15.734   1.866   1.610  1.00  0.00     0.056 A 
HETATM   61  C61 UNL     1     -15.229   2.963   2.462  1.00  0.00     0.174 A 
HETATM   62  C62 UNL     1     -15.988   3.274   3.690  1.00  0.00     0.092 A 
HETATM   63  C63 UNL     1     -17.125   2.630   3.985  1.00  0.00     0.091 A 
HETATM   64  C64 UNL     1     -18.988   2.384   5.442  1.00  0.00     0.089 A 
HETATM   65  C65 UNL     1     -19.571   1.426   4.612  1.00  0.00     0.010 A 
HETATM   66  C66 UNL     1     -20.821   0.902   4.984  1.00  0.00     0.018 A 
HETATM   67  C67 UNL     1     -21.459   1.319   6.157  1.00  0.00     0.037 A 
HETATM   68  C68 UNL     1     -20.847   2.268   6.966  1.00  0.00     0.068 A 
HETATM   69  C69 UNL     1     -19.616   2.805   6.617  1.00  0.00     0.074 A 
HETATM   70  C70 UNL     1     -20.377   1.600   0.795  1.00  0.00     0.177 C 
HETATM   71  C71 UNL     1     -11.374   2.196   1.318  1.00  0.00     0.156 C 
HETATM   72  C72 UNL     1      -4.847  -3.961   0.027  1.00  0.00     0.156 C 
HETATM   73  C73 UNL     1      -0.787   4.141   0.271  1.00  0.00     0.156 C 
HETATM   74  C74 UNL     1       5.778  -1.750  -2.177  1.00  0.00     0.157 C 
HETATM   75  C75 UNL     1      15.869   5.291  -4.888  1.00  0.00     0.156 C 
HETATM   76  C76 UNL     1      15.852  -3.139  -1.610  1.00  0.00     0.156 C 
HETATM   77  C77 UNL     1      23.216  -5.387   1.067  1.00  0.00     0.157 C 
HETATM   78  N1  UNL     1      26.481   2.358  -0.207  1.00  0.00    -0.342 N 
HETATM   79  N2  UNL     1      27.482   0.543   0.584  1.00  0.00    -0.346 N 
ATOM     80  H2  UNL     1      27.662  -0.409   0.902  1.00  0.00     0.167 HD
HETATM   81  N3  UNL     1      25.350  -1.065   0.439  1.00  0.00    -0.305 N 
HETATM   82  N4  UNL     1      23.468  -4.003   0.745  1.00  0.00    -0.339 N 
HETATM   83  N5  UNL     1      23.130  -1.925   0.061  1.00  0.00    -0.323 N 
ATOM     84  H5  UNL     1      22.690  -1.079  -0.301  1.00  0.00     0.169 HD
HETATM   85  N6  UNL     1      20.558  -2.208  -0.574  1.00  0.00    -0.319 N 
HETATM   86  N7  UNL     1      17.109  -2.432  -1.463  1.00  0.00    -0.354 N 
HETATM   87  N8  UNL     1      16.830   0.996  -2.803  1.00  0.00    -0.320 N 
HETATM   88  N9  UNL     1      15.644   3.990  -4.292  1.00  0.00    -0.354 N 
HETATM   89  N10 UNL     1      12.041   3.160  -4.353  1.00  0.00    -0.356 N 
HETATM   90  N11 UNL     1       8.070   2.556  -1.912  1.00  0.00    -0.310 N 
HETATM   91  N12 UNL     1       6.097  -0.355  -2.000  1.00  0.00    -0.339 N 
HETATM   92  N13 UNL     1       5.863   1.808  -1.567  1.00  0.00    -0.323 N 
ATOM     93  H13 UNL     1       5.466   2.715  -1.321  1.00  0.00     0.169 HD
HETATM   94  N14 UNL     1       3.231   1.717  -1.018  1.00  0.00    -0.319 N 
HETATM   95  N15 UNL     1       0.069   3.035  -0.110  1.00  0.00    -0.354 N 
HETATM   96  N16 UNL     1      -1.830  -0.143  -0.158  1.00  0.00    -0.320 N 
HETATM   97  N17 UNL     1      -4.392  -2.586   0.078  1.00  0.00    -0.354 N 
HETATM   98  N18 UNL     1      -7.235  -0.286   0.641  1.00  0.00    -0.320 N 
HETATM   99  N19 UNL     1     -10.470   1.071   1.171  1.00  0.00    -0.354 N 
HETATM  100  N20 UNL     1     -12.253  -2.071   1.919  1.00  0.00    -0.356 N 
HETATM  101  N21 UNL     1     -16.635  -3.902   0.313  1.00  0.00     0.084 N 
HETATM  102  N22 UNL     1     -19.307  -4.924   0.363  1.00  0.00    -0.367 N 
HETATM  103  N23 UNL     1     -20.713  -3.131  -0.138  1.00  0.00    -0.333 N 
HETATM  104  N24 UNL     1       9.469   4.715  -1.178  1.00  0.00     0.092 N 
HETATM  105  O1  UNL     1      24.064   0.676  -0.419  1.00  0.00    -0.264 OA
HETATM  106  O2  UNL     1      20.619  -4.444   0.068  1.00  0.00    -0.264 OA
HETATM  107  O3  UNL     1      15.132  -0.495  -2.344  1.00  0.00    -0.266 OA
HETATM  108  O4  UNL     1      13.027   5.135  -4.888  1.00  0.00    -0.266 OA
HETATM  109  O5  UNL     1      10.024   1.414  -2.458  1.00  0.00    -0.271 OA
HETATM  110  O6  UNL     1       3.208  -0.569  -1.410  1.00  0.00    -0.264 OA
HETATM  111  O7  UNL     1      -2.619   1.993   0.198  1.00  0.00    -0.266 OA
HETATM  112  O8  UNL     1      -7.222  -2.591   0.714  1.00  0.00    -0.266 OA
HETATM  113  O9  UNL     1     -13.162  -0.041   1.457  1.00  0.00    -0.266 OA
HETATM  114  O10 UNL     1     -14.219   3.592   2.167  1.00  0.00    -0.288 OA
HETATM  115  O11 UNL     1     -17.784   2.969   5.157  1.00  0.00    -0.309 OA
HETATM  116  O12 UNL     1     -21.430   2.704   8.118  1.00  0.00    -0.361 OA
HETATM  117  O13 UNL     1     -20.268   1.976  -0.356  1.00  0.00    -0.646 OA
HETATM  118  O14 UNL     1     -20.870   2.391   1.760  1.00  0.00    -0.773 OA
HETATM  119  S1  UNL     1     -21.360  -5.333  -1.348  1.00  0.00    -0.041 SA
HETATM  120  H68 UNL     1      26.291  -1.264   0.761  1.00  0.00     0.170 HD
HETATM  121  H69 UNL     1      21.169  -1.395  -0.629  1.00  0.00     0.169 HD
HETATM  122  H70 UNL     1      17.828   1.133  -2.799  1.00  0.00     0.169 HD
HETATM  123  H71 UNL     1      12.157   2.214  -4.010  1.00  0.00     0.162 HD
HETATM  124  H72 UNL     1       7.731   3.474  -1.640  1.00  0.00     0.170 HD
HETATM  125  H73 UNL     1       3.862   2.513  -1.014  1.00  0.00     0.169 HD
HETATM  126  H74 UNL     1      -1.012  -0.701  -0.350  1.00  0.00     0.169 HD
HETATM  127  H75 UNL     1      -6.673   0.539   0.495  1.00  0.00     0.169 HD
HETATM  128  H76 UNL     1     -11.409  -2.616   2.025  1.00  0.00     0.162 HD
HETATM  129  H77 UNL     1     -18.637  -4.201   0.616  1.00  0.00     0.161 HD
HETATM  130  H78 UNL     1     -21.385  -2.819  -0.833  1.00  0.00     0.168 HD
HETATM  131  H79 UNL     1       9.644   4.342  -0.242  1.00  0.00     0.313 HD
HETATM  132  H80 UNL     1       9.953   5.615  -1.199  1.00  0.00     0.313 HD
HETATM  133  H81 UNL     1     -22.283   2.253   8.228  1.00  0.00     0.217 HD
HETATM  134  H82 UNL     1     -21.027   3.252   1.321  1.00  0.00     0.167 HD
ENDROOT
TORSDOF 35
