REMARK  19 active torsions:
REMARK  status: ('A' for Active; 'I' for Inactive)
REMARK    1  A    between atoms: C7_7  and  N7_58 
REMARK    2  A    between atoms: C16_16  and  C17_17 
REMARK    3  A    between atoms: C16_16  and  N7_58 
REMARK    4  A    between atoms: C20_20  and  C23_23 
REMARK       I    between atoms: C23_23  and  N8_59 
REMARK    5  A    between atoms: C24_24  and  C25_25 
REMARK    6  A    between atoms: C24_24  and  N8_59 
REMARK    7  A    between atoms: C25_25  and  C26_26 
REMARK    8  A    between atoms: C26_26  and  C27_27 
REMARK    9  A    between atoms: C27_27  and  C28_28 
REMARK   10  A    between atoms: C30_30  and  C45_45 
REMARK   11  A    between atoms: C32_32  and  C43_43 
REMARK   12  A    between atoms: C37_37  and  C39_39 
REMARK   13  A    between atoms: C39_39  and  C40_40 
REMARK   14  A    between atoms: C40_40  and  C41_41 
REMARK   15  A    between atoms: C41_41  and  N13_64 
REMARK       I    between atoms: C42_42  and  N14_66 
REMARK       I    between atoms: C42_42  and  N15_67 
REMARK   16  A    between atoms: C43_43  and  O7_74 
REMARK   17  A    between atoms: C44_44  and  O7_74 
REMARK   18  A    between atoms: C45_45  and  C46_46 
REMARK   19  A    between atoms: C49_49  and  O9_76 
ROOT
HETATM    1  C28 UNL     1      -4.832   0.067   0.879  1.00  0.00     0.176 C 
HETATM    2  C29 UNL     1      -5.953   1.078   1.211  1.00  0.00     0.241 C 
HETATM    3  C30 UNL     1      -6.863   3.331   0.662  1.00  0.00     0.180 C 
HETATM    4  C31 UNL     1      -8.091   2.990  -0.212  1.00  0.00     0.241 C 
HETATM    5  C32 UNL     1     -10.024   1.442  -0.439  1.00  0.00     0.178 C 
HETATM    6  C33 UNL     1      -9.435   0.278  -1.243  1.00  0.00     0.152 C 
HETATM    7  C34 UNL     1      -9.786   0.152  -2.712  1.00  0.00     0.090 C 
HETATM    8  C35 UNL     1      -8.833   0.946  -3.591  1.00  0.00     0.110 C 
HETATM    9  C36 UNL     1      -7.494   0.294  -3.894  1.00  0.00     0.218 C 
HETATM   10  C37 UNL     1      -5.403  -0.567  -2.874  1.00  0.00     0.176 C 
HETATM   11  C38 UNL     1      -4.816   0.083  -1.602  1.00  0.00     0.241 C 
HETATM   12  N9  UNL     1      -5.873   2.260   0.506  1.00  0.00    -0.346 N 
HETATM   13  N10 UNL     1      -8.912   2.017   0.326  1.00  0.00    -0.346 N 
HETATM   14  N11 UNL     1      -6.822  -0.232  -2.820  1.00  0.00    -0.348 N 
HETATM   15  N12 UNL     1      -5.142  -0.539  -0.412  1.00  0.00    -0.346 N 
HETATM   16  O2  UNL     1      -6.882   0.844   1.983  1.00  0.00    -0.271 OA
HETATM   17  O3  UNL     1      -8.306   3.480  -1.317  1.00  0.00    -0.271 OA
HETATM   18  O4  UNL     1      -8.624  -0.513  -0.741  1.00  0.00    -0.296 OA
HETATM   19  O5  UNL     1      -7.020   0.316  -5.027  1.00  0.00    -0.274 OA
HETATM   20  O6  UNL     1      -4.231   1.167  -1.614  1.00  0.00    -0.271 OA
HETATM   21  H73 UNL     1      -5.277   2.262  -0.326  1.00  0.00     0.163 HD
HETATM   22  H74 UNL     1      -8.479   1.431   1.046  1.00  0.00     0.163 HD
HETATM   23  H75 UNL     1      -7.256  -0.237  -1.903  1.00  0.00     0.163 HD
HETATM   24  H76 UNL     1      -5.830  -1.293  -0.422  1.00  0.00     0.163 HD
ENDROOT
BRANCH   1  25
HETATM   25  C27 UNL     1      -4.717  -0.992   1.983  1.00  0.00     0.035 C 
BRANCH  25  26
HETATM   26  C26 UNL     1      -3.567  -1.973   1.740  1.00  0.00     0.004 C 
BRANCH  26  27
HETATM   27  C25 UNL     1      -3.428  -2.960   2.905  1.00  0.00     0.020 C 
BRANCH  27  28
HETATM   28  C24 UNL     1      -2.355  -4.014   2.648  1.00  0.00     0.123 C 
BRANCH  28  29
HETATM   29  N8  UNL     1      -1.030  -3.437   2.570  1.00  0.00    -0.357 N 
HETATM   30  C23 UNL     1      -0.002  -4.131   1.959  1.00  0.00     0.251 C 
HETATM   31  O1  UNL     1      -0.160  -5.202   1.385  1.00  0.00    -0.268 OA
HETATM   32  H72 UNL     1      -0.774  -2.757   3.274  1.00  0.00     0.162 HD
BRANCH  30  33
HETATM   33  C20 UNL     1       1.355  -3.527   2.065  1.00  0.00     0.032 A 
HETATM   34  C19 UNL     1       1.544  -2.148   2.215  1.00  0.00     0.017 A 
HETATM   35  C18 UNL     1       2.837  -1.627   2.308  1.00  0.00     0.010 A 
HETATM   36  C17 UNL     1       3.957  -2.471   2.246  1.00  0.00    -0.030 A 
HETATM   37  C22 UNL     1       3.761  -3.847   2.073  1.00  0.00     0.010 A 
HETATM   38  C21 UNL     1       2.469  -4.372   1.981  1.00  0.00     0.017 A 
BRANCH  36  39
HETATM   39  C16 UNL     1       5.353  -1.892   2.333  1.00  0.00     0.309 C 
BRANCH  39  40
HETATM   40  N7  UNL     1       5.644  -1.102   1.141  1.00  0.00     0.102 N 
HETATM   41  H71 UNL     1       5.464  -1.676   0.317  1.00  0.00     0.317 HD
BRANCH  40  42
HETATM   42  C7  UNL     1       7.052  -0.577   1.030  1.00  0.00     0.235 C 
HETATM   43  C6  UNL     1       7.433   0.279   2.312  1.00  0.00     0.314 C 
HETATM   44  N2  UNL     1       8.632   1.131   2.321  1.00  0.00     0.087 N 
HETATM   45  C5  UNL     1       9.841   0.469   2.827  1.00  0.00     0.299 C 
HETATM   46  H66 UNL     1       8.868   1.440   1.372  1.00  0.00     0.316 HD
HETATM   47  C4  UNL     1      11.103   0.981   2.080  1.00  0.00     0.299 C 
HETATM   48  N1  UNL     1      10.878   1.036   0.629  1.00  0.00     0.086 N 
HETATM   49  C3  UNL     1      12.080   1.327  -0.138  1.00  0.00     0.282 C 
HETATM   50  H65 UNL     1      10.459   0.152   0.314  1.00  0.00     0.315 HD
HETATM   51  C2  UNL     1      12.032   1.077  -1.687  1.00  0.00     0.034 C 
HETATM   52  C1  UNL     1      13.223   1.899  -2.266  1.00  0.00     0.020 C 
HETATM   53  C11 UNL     1      10.741   1.643  -2.367  1.00  0.00     0.282 C 
HETATM   54  C15 UNL     1      12.318  -0.411  -2.099  1.00  0.00     0.282 C 
HETATM   55  N4  UNL     1       9.526   0.860  -2.158  1.00  0.00     0.086 N 
HETATM   56  C10 UNL     1       8.333   1.465  -2.742  1.00  0.00     0.299 C 
HETATM   57  H68 UNL     1       9.665  -0.102  -2.471  1.00  0.00     0.315 HD
HETATM   58  C9  UNL     1       7.053   0.579  -2.667  1.00  0.00     0.299 C 
HETATM   59  N3  UNL     1       6.869  -0.319  -1.513  1.00  0.00     0.087 N 
HETATM   60  C8  UNL     1       7.021   0.381  -0.222  1.00  0.00     0.314 C 
HETATM   61  H67 UNL     1       5.928  -0.707  -1.554  1.00  0.00     0.316 HD
HETATM   62  N6  UNL     1      11.290  -1.413  -1.813  1.00  0.00     0.086 N 
HETATM   63  C14 UNL     1      11.536  -2.160  -0.569  1.00  0.00     0.299 C 
HETATM   64  H70 UNL     1      11.245  -2.087  -2.577  1.00  0.00     0.315 HD
HETATM   65  C13 UNL     1      10.199  -2.626   0.048  1.00  0.00     0.299 C 
HETATM   66  N5  UNL     1       9.344  -1.459   0.276  1.00  0.00     0.087 N 
HETATM   67  C12 UNL     1       8.028  -1.796   0.808  1.00  0.00     0.314 C 
HETATM   68  H69 UNL     1       9.212  -0.988  -0.633  1.00  0.00     0.316 HD
ENDBRANCH  40  42
ENDBRANCH  39  40
ENDBRANCH  36  39
ENDBRANCH  30  33
ENDBRANCH  28  29
ENDBRANCH  27  28
ENDBRANCH  26  27
ENDBRANCH  25  26
ENDBRANCH   1  25
BRANCH   3  69
HETATM   69  C45 UNL     1      -6.248   4.685   0.281  1.00  0.00     0.073 C 
BRANCH  69  70
HETATM   70  C46 UNL     1      -7.047   5.854   0.811  1.00  0.00    -0.056 A 
HETATM   71  C47 UNL     1      -7.990   6.499   0.001  1.00  0.00     0.010 A 
HETATM   72  C48 UNL     1      -8.741   7.564   0.501  1.00  0.00     0.037 A 
HETATM   73  C49 UNL     1      -8.551   7.986   1.810  1.00  0.00     0.065 A 
HETATM   74  C50 UNL     1      -7.621   7.360   2.633  1.00  0.00     0.037 A 
HETATM   75  C51 UNL     1      -6.870   6.293   2.132  1.00  0.00     0.010 A 
BRANCH  73  76
HETATM   76  O9  UNL     1      -9.306   9.030   2.258  1.00  0.00    -0.361 OA
HETATM   77  H81 UNL     1      -9.043   9.232   3.170  1.00  0.00     0.217 HD
ENDBRANCH  73  76
ENDBRANCH  69  70
ENDBRANCH   3  69
BRANCH  10  78
HETATM   78  C39 UNL     1      -5.072  -2.064  -2.984  1.00  0.00     0.036 C 
BRANCH  78  79
HETATM   79  C40 UNL     1      -6.083  -2.938  -3.736  1.00  0.00     0.022 C 
BRANCH  79  80
HETATM   80  C41 UNL     1      -7.284  -3.382  -2.895  1.00  0.00     0.121 C 
BRANCH  80  81
HETATM   81  N13 UNL     1      -6.839  -4.277  -1.834  1.00  0.00    -0.372 N 
HETATM   82  C42 UNL     1      -6.827  -3.913  -0.613  1.00  0.00     0.121 C 
HETATM   83  N14 UNL     1      -6.361  -4.768   0.323  1.00  0.00    -0.279 NA
HETATM   84  N15 UNL     1      -7.176  -2.746  -0.025  1.00  0.00    -0.279 NA
HETATM   85  H77 UNL     1      -5.658  -4.348   0.917  1.00  0.00     0.126 HD
HETATM   86  H78 UNL     1      -5.975  -5.587  -0.141  1.00  0.00     0.126 HD
HETATM   87  H79 UNL     1      -7.859  -2.192  -0.547  1.00  0.00     0.126 HD
HETATM   88  H80 UNL     1      -7.568  -2.912   0.898  1.00  0.00     0.126 HD
ATOM     89  H13 UNL     1      -6.529  -5.218  -2.075  1.00  0.00     0.161 HD
ENDBRANCH  80  81
ENDBRANCH  79  80
ENDBRANCH  78  79
ENDBRANCH  10  78
BRANCH   5  90
HETATM   90  C43 UNL     1     -11.124   0.935   0.501  1.00  0.00     0.211 C 
BRANCH  90  91
HETATM   91  O7  UNL     1     -12.438   1.121  -0.063  1.00  0.00    -0.326 OA
BRANCH  91  92
HETATM   92  C44 UNL     1     -12.904   0.101  -0.821  1.00  0.00     0.398 C 
HETATM   93  O8  UNL     1     -12.280  -0.901  -1.129  1.00  0.00    -0.276 OA
ENDBRANCH  91  92
ENDBRANCH  90  91
ENDBRANCH   5  90
TORSDOF 19
