REMARK  28 active torsions:
REMARK  status: ('A' for Active; 'I' for Inactive)
REMARK    1  A    between atoms: C3_3  and  N4_57 
REMARK    2  A    between atoms: C5_5  and  C6_6 
REMARK       I    between atoms: C6_6  and  N2_55 
REMARK    3  A    between atoms: C7_7  and  N2_55 
REMARK    4  A    between atoms: C11_11  and  C13_13 
REMARK    5  A    between atoms: C13_13  and  C14_14 
REMARK       I    between atoms: C14_14  and  N3_56 
REMARK    6  A    between atoms: C15_15  and  C16_16 
REMARK    7  A    between atoms: C15_15  and  C19_19 
REMARK    8  A    between atoms: C15_15  and  N3_56 
REMARK    9  A    between atoms: C16_16  and  C17_17 
REMARK   10  A    between atoms: C17_17  and  C18_18 
REMARK   11  A    between atoms: C18_18  and  O4_67 
REMARK   12  A    between atoms: C19_19  and  O6_69 
REMARK   13  A    between atoms: C20_20  and  C21_21 
REMARK       I    between atoms: C20_20  and  N4_57 
REMARK   14  A    between atoms: C23_23  and  N5_58 
REMARK       I    between atoms: C27_27  and  N5_58 
REMARK       I    between atoms: C27_27  and  N6_59 
REMARK   15  A    between atoms: C28_28  and  N6_59 
REMARK   16  A    between atoms: C32_32  and  C34_34 
REMARK       I    between atoms: C34_34  and  N7_60 
REMARK   17  A    between atoms: C35_35  and  N7_60 
REMARK   18  A    between atoms: C37_37  and  C39_39 
REMARK       I    between atoms: C39_39  and  N9_62 
REMARK   19  A    between atoms: C40_40  and  N9_62 
REMARK   20  A    between atoms: C44_44  and  C46_46 
REMARK   21  A    between atoms: C46_46  and  C47_47 
REMARK       I    between atoms: C47_47  and  N10_63 
REMARK   22  A    between atoms: C48_48  and  C49_49 
REMARK   23  A    between atoms: C48_48  and  C52_52 
REMARK   24  A    between atoms: C48_48  and  N10_63 
REMARK   25  A    between atoms: C49_49  and  C50_50 
REMARK   26  A    between atoms: C50_50  and  C51_51 
REMARK   27  A    between atoms: C51_51  and  O13_76 
REMARK   28  A    between atoms: C52_52  and  O15_78 
ROOT
HETATM    1  C27 UNL     1      -0.075  -2.643  -2.152  1.00  0.00     0.325 C 
HETATM    2  N5  UNL     1      -0.379  -2.669  -3.508  1.00  0.00    -0.309 N 
HETATM    3  N6  UNL     1       1.276  -2.895  -1.962  1.00  0.00    -0.309 N 
HETATM    4  O8  UNL     1      -0.890  -2.434  -1.263  1.00  0.00    -0.247 OA
HETATM    5  H44 UNL     1       0.269  -3.176  -4.093  1.00  0.00     0.170 HD
HETATM    6  H45 UNL     1       1.854  -2.791  -2.782  1.00  0.00     0.170 HD
ENDROOT
BRANCH   2   7
HETATM    7  C23 UNL     1      -1.613  -2.327  -4.100  1.00  0.00     0.037 A 
HETATM    8  C22 UNL     1      -2.613  -1.613  -3.434  1.00  0.00     0.046 A 
HETATM    9  C21 UNL     1      -3.826  -1.321  -4.074  1.00  0.00     0.034 A 
HETATM   10  C26 UNL     1      -4.016  -1.706  -5.406  1.00  0.00     0.017 A 
HETATM   11  C25 UNL     1      -3.013  -2.395  -6.085  1.00  0.00     0.003 A 
HETATM   12  C24 UNL     1      -1.818  -2.705  -5.433  1.00  0.00     0.029 A 
BRANCH   9  13
HETATM   13  C20 UNL     1      -4.923  -0.581  -3.386  1.00  0.00     0.256 C 
HETATM   14  N4  UNL     1      -5.000  -0.770  -2.018  1.00  0.00    -0.322 N 
HETATM   15  H43 UNL     1      -4.369  -1.419  -1.566  1.00  0.00     0.169 HD
HETATM   16  O7  UNL     1      -5.679   0.106  -4.067  1.00  0.00    -0.267 OA
BRANCH  14  17
HETATM   17  C3  UNL     1      -5.929  -0.166  -1.192  1.00  0.00     0.053 A 
HETATM   18  C2  UNL     1      -5.982  -0.391   0.161  1.00  0.00     0.120 A 
HETATM   19  N1  UNL     1      -7.010   0.356   0.681  1.00  0.00    -0.354 N 
HETATM   20  C1  UNL     1      -7.357   0.377   2.088  1.00  0.00     0.156 C 
HETATM   21  C5  UNL     1      -7.633   1.084  -0.321  1.00  0.00     0.105 A 
HETATM   22  C4  UNL     1      -6.962   0.750  -1.494  1.00  0.00     0.066 A 
BRANCH  21  23
HETATM   23  C6  UNL     1      -8.768   1.982  -0.109  1.00  0.00     0.273 C 
HETATM   24  N2  UNL     1      -9.062   2.786  -1.196  1.00  0.00    -0.322 N 
HETATM   25  H41 UNL     1      -8.463   2.686  -2.002  1.00  0.00     0.169 HD
HETATM   26  O1  UNL     1      -9.383   2.003   0.953  1.00  0.00    -0.266 OA
BRANCH  24  27
HETATM   27  C7  UNL     1     -10.087   3.748  -1.321  1.00  0.00     0.035 A 
HETATM   28  C8  UNL     1     -10.186   4.413  -2.550  1.00  0.00     0.029 A 
HETATM   29  C9  UNL     1     -11.177   5.371  -2.765  1.00  0.00     0.003 A 
HETATM   30  C10 UNL     1     -12.082   5.678  -1.753  1.00  0.00     0.007 A 
HETATM   31  C11 UNL     1     -11.998   5.030  -0.515  1.00  0.00    -0.047 A 
HETATM   32  C12 UNL     1     -10.995   4.067  -0.308  1.00  0.00     0.037 A 
BRANCH  31  33
HETATM   33  C13 UNL     1     -12.991   5.348   0.579  1.00  0.00     0.141 C 
BRANCH  33  34
HETATM   34  C14 UNL     1     -14.396   4.819   0.332  1.00  0.00     0.222 C 
HETATM   35  N3  UNL     1     -14.465   3.549  -0.200  1.00  0.00    -0.346 N 
HETATM   36  H42 UNL     1     -13.636   2.975  -0.093  1.00  0.00     0.163 HD
HETATM   37  O2  UNL     1     -15.393   5.465   0.647  1.00  0.00    -0.273 OA
BRANCH  35  38
HETATM   38  C15 UNL     1     -15.745   2.842  -0.289  1.00  0.00     0.182 C 
BRANCH  38  39
HETATM   39  C16 UNL     1     -15.683   1.841  -1.454  1.00  0.00     0.046 C 
BRANCH  39  40
HETATM   40  C17 UNL     1     -17.045   1.306  -1.901  1.00  0.00     0.112 C 
BRANCH  40  41
HETATM   41  C18 UNL     1     -17.889   2.354  -2.573  1.00  0.00     0.139 C 
HETATM   42  O3  UNL     1     -17.541   3.467  -2.926  1.00  0.00    -0.650 OA
BRANCH  41  43
HETATM   43  O4  UNL     1     -19.147   1.926  -2.792  1.00  0.00    -0.776 OA
HETATM   44  H49 UNL     1     -19.588   2.689  -3.221  1.00  0.00     0.167 HD
ENDBRANCH  41  43
ENDBRANCH  40  41
ENDBRANCH  39  40
ENDBRANCH  38  39
BRANCH  38  45
HETATM   45  C19 UNL     1     -16.033   2.106   1.029  1.00  0.00     0.163 C 
HETATM   46  O5  UNL     1     -17.073   1.536   1.322  1.00  0.00    -0.648 OA
BRANCH  45  47
HETATM   47  O6  UNL     1     -14.980   2.046   1.876  1.00  0.00    -0.775 OA
HETATM   48  H50 UNL     1     -15.331   1.566   2.654  1.00  0.00     0.167 HD
ENDBRANCH  45  47
ENDBRANCH  38  45
ENDBRANCH  35  38
ENDBRANCH  33  34
ENDBRANCH  31  33
ENDBRANCH  24  27
ENDBRANCH  21  23
ENDBRANCH  14  17
ENDBRANCH   9  13
ENDBRANCH   2   7
BRANCH   3  49
HETATM   49  C28 UNL     1       1.955  -3.048  -0.733  1.00  0.00     0.037 A 
HETATM   50  C29 UNL     1       1.314  -3.137   0.505  1.00  0.00     0.029 A 
HETATM   51  C30 UNL     1       2.054  -3.270   1.684  1.00  0.00     0.003 A 
HETATM   52  C31 UNL     1       3.445  -3.331   1.636  1.00  0.00     0.017 A 
HETATM   53  C32 UNL     1       4.096  -3.278   0.402  1.00  0.00     0.034 A 
HETATM   54  C33 UNL     1       3.354  -3.125  -0.780  1.00  0.00     0.046 A 
BRANCH  53  55
HETATM   55  C34 UNL     1       5.581  -3.354   0.378  1.00  0.00     0.256 C 
HETATM   56  N7  UNL     1       6.103  -4.110  -0.654  1.00  0.00    -0.322 N 
HETATM   57  H46 UNL     1       5.477  -4.642  -1.243  1.00  0.00     0.169 HD
HETATM   58  O9  UNL     1       6.212  -2.787   1.263  1.00  0.00    -0.267 OA
BRANCH  56  59
HETATM   59  C35 UNL     1       7.453  -4.287  -0.890  1.00  0.00     0.053 A 
HETATM   60  C36 UNL     1       7.940  -5.104  -1.880  1.00  0.00     0.120 A 
HETATM   61  N8  UNL     1       9.312  -5.049  -1.845  1.00  0.00    -0.354 N 
HETATM   62  C37 UNL     1       9.736  -4.205  -0.831  1.00  0.00     0.105 A 
HETATM   63  C53 UNL     1      10.172  -5.797  -2.740  1.00  0.00     0.156 C 
HETATM   64  C38 UNL     1       8.572  -3.717  -0.242  1.00  0.00     0.066 A 
BRANCH  62  65
HETATM   65  C39 UNL     1      11.136  -3.921  -0.519  1.00  0.00     0.273 C 
HETATM   66  N9  UNL     1      11.326  -3.292   0.699  1.00  0.00    -0.322 N 
HETATM   67  H47 UNL     1      10.499  -3.145   1.260  1.00  0.00     0.169 HD
HETATM   68  O10 UNL     1      12.040  -4.237  -1.286  1.00  0.00    -0.266 OA
BRANCH  66  69
HETATM   69  C40 UNL     1      12.538  -2.870   1.283  1.00  0.00     0.035 A 
HETATM   70  C41 UNL     1      13.789  -2.999   0.678  1.00  0.00     0.029 A 
HETATM   71  C42 UNL     1      14.941  -2.550   1.330  1.00  0.00     0.003 A 
HETATM   72  C43 UNL     1      14.856  -1.961   2.590  1.00  0.00     0.007 A 
HETATM   73  C44 UNL     1      13.612  -1.814   3.211  1.00  0.00    -0.047 A 
HETATM   74  C45 UNL     1      12.460  -2.277   2.551  1.00  0.00     0.037 A 
BRANCH  73  75
HETATM   75  C46 UNL     1      13.502  -1.156   4.567  1.00  0.00     0.141 C 
BRANCH  75  76
HETATM   76  C47 UNL     1      12.707   0.139   4.550  1.00  0.00     0.222 C 
HETATM   77  N10 UNL     1      13.174   1.093   3.675  1.00  0.00    -0.346 N 
HETATM   78  H48 UNL     1      13.772   0.779   2.913  1.00  0.00     0.163 HD
HETATM   79  O11 UNL     1      11.755   0.331   5.301  1.00  0.00    -0.273 OA
BRANCH  77  80
HETATM   80  C48 UNL     1      12.425   2.322   3.402  1.00  0.00     0.182 C 
BRANCH  80  81
HETATM   81  C49 UNL     1      13.055   3.523   4.112  1.00  0.00     0.046 C 
BRANCH  81  82
HETATM   82  C50 UNL     1      12.916   3.450   5.633  1.00  0.00     0.112 C 
BRANCH  82  83
HETATM   83  C51 UNL     1      13.478   4.680   6.291  1.00  0.00     0.139 C 
HETATM   84  O12 UNL     1      14.118   5.573   5.763  1.00  0.00    -0.650 OA
BRANCH  83  85
HETATM   85  O13 UNL     1      13.215   4.713   7.611  1.00  0.00    -0.776 OA
HETATM   86  H51 UNL     1      13.629   5.547   7.918  1.00  0.00     0.167 HD
ENDBRANCH  83  85
ENDBRANCH  82  83
ENDBRANCH  81  82
ENDBRANCH  80  81
BRANCH  80  87
HETATM   87  C52 UNL     1      12.396   2.584   1.890  1.00  0.00     0.163 C 
HETATM   88  O14 UNL     1      11.804   3.487   1.321  1.00  0.00    -0.648 OA
BRANCH  87  89
HETATM   89  O15 UNL     1      13.144   1.709   1.177  1.00  0.00    -0.775 OA
HETATM   90  H52 UNL     1      13.015   1.991   0.246  1.00  0.00     0.167 HD
ENDBRANCH  87  89
ENDBRANCH  80  87
ENDBRANCH  77  80
ENDBRANCH  75  76
ENDBRANCH  73  75
ENDBRANCH  66  69
ENDBRANCH  62  65
ENDBRANCH  56  59
ENDBRANCH  53  55
ENDBRANCH   3  49
TORSDOF 28
