REMARK  19 active torsions:
REMARK  status: ('A' for Active; 'I' for Inactive)
REMARK    1  A    between atoms: C2_2  and  C3_3 
REMARK    2  A    between atoms: C2_2  and  N10_81 
REMARK       I    between atoms: C3_3  and  N1_72 
REMARK    3  A    between atoms: C4_4  and  C5_5 
REMARK    4  A    between atoms: C4_4  and  C59_59 
REMARK    5  A    between atoms: C4_4  and  N1_72 
REMARK       I    between atoms: C5_5  and  N2_73 
REMARK    6  A    between atoms: C7_7  and  N4_75 
REMARK    7  A    between atoms: C9_9  and  C10_10 
REMARK       I    between atoms: C10_10  and  N3_74 
REMARK    8  A    between atoms: C11_11  and  N3_74 
REMARK    9  A    between atoms: C21_21  and  C22_22 
REMARK       I    between atoms: C21_21  and  N4_75 
REMARK   10  A    between atoms: C25_25  and  C28_28 
REMARK       I    between atoms: C28_28  and  N5_76 
REMARK   11  A    between atoms: C29_29  and  N5_76 
REMARK   12  A    between atoms: C34_34  and  C46_46 
REMARK   13  A    between atoms: C36_36  and  C37_37 
REMARK       I    between atoms: C36_36  and  N6_77 
REMARK   14  A    between atoms: C37_37  and  C38_38 
REMARK   15  A    between atoms: C37_37  and  N7_78 
REMARK   16  A    between atoms: C38_38  and  S1_82 
REMARK   17  A    between atoms: C42_42  and  C43_43 
REMARK       I    between atoms: C42_42  and  N7_78 
REMARK   18  A    between atoms: C43_43  and  N8_79 
REMARK       I    between atoms: C46_46  and  N9_80 
REMARK   19  A    between atoms: C47_47  and  N9_80 
ROOT
HETATM    1  C22 UNL     1      -2.030   1.543  -3.244  1.00  0.00     0.032 A 
HETATM    2  C23 UNL     1      -0.924   2.016  -3.964  1.00  0.00     0.018 A 
HETATM    3  C24 UNL     1       0.343   2.045  -3.374  1.00  0.00     0.018 A 
HETATM    4  C25 UNL     1       0.509   1.622  -2.051  1.00  0.00     0.032 A 
HETATM    5  C26 UNL     1      -0.592   1.146  -1.326  1.00  0.00     0.018 A 
HETATM    6  C27 UNL     1      -1.860   1.113  -1.920  1.00  0.00     0.018 A 
ENDROOT
BRANCH   4   7
HETATM    7  C28 UNL     1       1.873   1.660  -1.457  1.00  0.00     0.256 C 
HETATM    8  O5  UNL     1       2.820   1.354  -2.171  1.00  0.00    -0.267 OA
HETATM    9  N5  UNL     1       1.916   2.060  -0.134  1.00  0.00    -0.323 N 
HETATM   10  H78 UNL     1       1.047   2.367   0.284  1.00  0.00     0.169 HD
BRANCH   9  11
HETATM   11  C29 UNL     1       3.050   2.136   0.702  1.00  0.00     0.035 A 
HETATM   12  C30 UNL     1       4.343   1.807   0.293  1.00  0.00     0.039 A 
HETATM   13  C31 UNL     1       5.416   1.856   1.197  1.00  0.00    -0.032 A 
HETATM   14  C32 UNL     1       5.189   2.252   2.521  1.00  0.00    -0.048 A 
HETATM   15  C35 UNL     1       6.815   1.535   0.735  1.00  0.00     0.166 C 
HETATM   16  C33 UNL     1       6.355   2.248   3.473  1.00  0.00     0.074 C 
HETATM   17  C57 UNL     1       3.905   2.617   2.928  1.00  0.00     0.010 A 
HETATM   18  C34 UNL     1       7.254   1.036   3.182  1.00  0.00     0.184 C 
HETATM   19  N6  UNL     1       7.713   1.005   1.769  1.00  0.00    -0.332 N 
HETATM   20  C36 UNL     1       9.025   0.627   1.515  1.00  0.00     0.245 C 
HETATM   21  O6  UNL     1       9.795   0.332   2.439  1.00  0.00    -0.271 OA
HETATM   22  C58 UNL     1       2.843   2.554   2.023  1.00  0.00     0.030 A 
BRANCH  18  23
HETATM   23  C46 UNL     1       6.519  -0.258   3.617  1.00  0.00     0.241 C 
HETATM   24  O8  UNL     1       6.072  -0.401   4.755  1.00  0.00    -0.271 OA
HETATM   25  N9  UNL     1       6.361  -1.207   2.636  1.00  0.00    -0.351 N 
HETATM   26  H81 UNL     1       6.820  -1.068   1.744  1.00  0.00     0.163 HD
BRANCH  25  27
HETATM   27  C47 UNL     1       5.538  -2.390   2.807  1.00  0.00     0.118 C 
HETATM   28  C48 UNL     1       6.324  -3.525   3.479  1.00  0.00     0.030 C 
HETATM   29  C49 UNL     1       7.261  -4.210   2.491  1.00  0.00     0.007 C 
HETATM   30  C50 UNL     1       6.467  -4.836   1.346  1.00  0.00     0.039 C 
HETATM   31  C51 UNL     1       5.434  -3.909   0.755  1.00  0.00    -0.050 A 
HETATM   32  C52 UNL     1       4.900  -4.201  -0.510  1.00  0.00     0.007 A 
HETATM   33  C56 UNL     1       4.968  -2.782   1.457  1.00  0.00    -0.029 A 
HETATM   34  C53 UNL     1       3.941  -3.370  -1.088  1.00  0.00     0.001 A 
HETATM   35  C54 UNL     1       3.493  -2.244  -0.405  1.00  0.00     0.001 A 
HETATM   36  C55 UNL     1       3.998  -1.956   0.861  1.00  0.00     0.010 A 
ENDBRANCH  25  27
ENDBRANCH  18  23
BRANCH  20  37
HETATM   37  C37 UNL     1       9.566   0.629   0.058  1.00  0.00     0.194 C 
BRANCH  37  38
HETATM   38  C38 UNL     1       9.833  -0.799  -0.517  1.00  0.00     0.029 C 
HETATM   39  C39 UNL     1      10.743  -1.658   0.385  1.00  0.00     0.029 C 
HETATM   40  C40 UNL     1      10.518  -0.695  -1.896  1.00  0.00     0.029 C 
BRANCH  38  41
HETATM   41  S1  UNL     1       8.250  -1.767  -0.666  1.00  0.00    -0.162 SA
HETATM   42  C41 UNL     1       7.509  -1.075  -2.171  1.00  0.00     0.090 C 
ENDBRANCH  38  41
ENDBRANCH  37  38
BRANCH  37  43
HETATM   43  N7  UNL     1      10.802   1.426   0.152  1.00  0.00    -0.344 N 
HETATM   44  C42 UNL     1      10.759   2.796  -0.051  1.00  0.00     0.251 C 
HETATM   45  O7  UNL     1       9.762   3.353  -0.504  1.00  0.00    -0.271 OA
HETATM   46  H79 UNL     1      11.461   1.104   0.855  1.00  0.00     0.163 HD
BRANCH  44  47
HETATM   47  C43 UNL     1      12.063   3.519   0.365  1.00  0.00     0.307 C 
HETATM   48  C44 UNL     1      12.007   3.793   1.867  1.00  0.00     0.053 C 
BRANCH  47  49
HETATM   49  N8  UNL     1      12.255   4.791  -0.357  1.00  0.00     0.092 N 
HETATM   50  C45 UNL     1      12.513   4.585  -1.777  1.00  0.00     0.307 C 
HETATM   51  H80 UNL     1      13.035   5.302   0.053  1.00  0.00     0.316 HD
ENDBRANCH  47  49
ENDBRANCH  44  47
ENDBRANCH  37  43
ENDBRANCH  20  37
ENDBRANCH   9  11
ENDBRANCH   4   7
BRANCH   1  52
HETATM   52  C21 UNL     1      -3.358   1.534  -3.923  1.00  0.00     0.252 C 
HETATM   53  O4  UNL     1      -3.571   2.271  -4.879  1.00  0.00    -0.268 OA
HETATM   54  N4  UNL     1      -4.296   0.655  -3.431  1.00  0.00    -0.351 N 
HETATM   55  H77 UNL     1      -4.016  -0.061  -2.766  1.00  0.00     0.163 HD
BRANCH  54  56
HETATM   56  C7  UNL     1      -5.610   0.498  -4.053  1.00  0.00     0.105 C 
HETATM   57  C6  UNL     1      -6.361  -0.679  -3.435  1.00  0.00     0.152 C 
HETATM   58  N2  UNL     1      -6.800  -0.155  -2.147  1.00  0.00    -0.335 N 
HETATM   59  C5  UNL     1      -6.120  -0.575  -0.999  1.00  0.00     0.244 C 
HETATM   60  C9  UNL     1      -7.113   1.278  -2.316  1.00  0.00     0.181 C 
HETATM   61  O2  UNL     1      -5.104  -1.273  -1.069  1.00  0.00    -0.271 OA
HETATM   62  C8  UNL     1      -6.552   1.653  -3.703  1.00  0.00     0.061 C 
BRANCH  59  63
HETATM   63  C4  UNL     1      -6.807  -0.275   0.362  1.00  0.00     0.184 C 
BRANCH  63  64
HETATM   64  C59 UNL     1      -5.900   0.440   1.417  1.00  0.00    -0.022 C 
HETATM   65  C60 UNL     1      -5.450   1.818   0.897  1.00  0.00     0.017 C 
HETATM   66  C61 UNL     1      -4.637  -0.358   1.801  1.00  0.00     0.017 C 
HETATM   67  C62 UNL     1      -6.722   0.676   2.705  1.00  0.00     0.017 C 
ENDBRANCH  63  64
BRANCH  63  68
HETATM   68  N1  UNL     1      -7.267  -1.583   0.848  1.00  0.00    -0.345 N 
HETATM   69  C3  UNL     1      -8.363  -2.209   0.289  1.00  0.00     0.251 C 
HETATM   70  O1  UNL     1      -9.031  -1.699  -0.607  1.00  0.00    -0.271 OA
HETATM   71  H75 UNL     1      -6.564  -2.200   1.231  1.00  0.00     0.163 HD
BRANCH  69  72
HETATM   72  C2  UNL     1      -8.646  -3.629   0.817  1.00  0.00     0.307 C 
HETATM   73  C1  UNL     1      -8.796  -3.627   2.337  1.00  0.00     0.053 C 
BRANCH  72  74
HETATM   74  N10 UNL     1      -7.576  -4.572   0.429  1.00  0.00     0.092 N 
HETATM   75  C63 UNL     1      -7.513  -4.768  -1.014  1.00  0.00     0.307 C 
HETATM   76  H82 UNL     1      -6.670  -4.264   0.772  1.00  0.00     0.316 HD
ENDBRANCH  72  74
ENDBRANCH  69  72
ENDBRANCH  63  68
ENDBRANCH  59  63
BRANCH  60  77
HETATM   77  C10 UNL     1      -8.599   1.670  -2.230  1.00  0.00     0.241 C 
HETATM   78  O3  UNL     1      -8.958   2.836  -2.385  1.00  0.00    -0.271 OA
HETATM   79  N3  UNL     1      -9.469   0.646  -1.965  1.00  0.00    -0.351 N 
HETATM   80  H76 UNL     1      -9.088  -0.250  -1.652  1.00  0.00     0.163 HD
BRANCH  79  81
HETATM   81  C11 UNL     1     -10.894   0.839  -1.722  1.00  0.00     0.118 C 
HETATM   82  C12 UNL     1     -11.656  -0.224  -2.530  1.00  0.00     0.030 C 
HETATM   83  C13 UNL     1     -13.083  -0.397  -2.034  1.00  0.00     0.007 C 
HETATM   84  C14 UNL     1     -13.065  -0.886  -0.590  1.00  0.00     0.039 C 
HETATM   85  C15 UNL     1     -12.229   0.001   0.298  1.00  0.00    -0.050 A 
HETATM   86  C16 UNL     1     -12.469  -0.010   1.682  1.00  0.00     0.007 A 
HETATM   87  C20 UNL     1     -11.205   0.813  -0.229  1.00  0.00    -0.029 A 
HETATM   88  C17 UNL     1     -11.737   0.811   2.538  1.00  0.00     0.001 A 
HETATM   89  C18 UNL     1     -10.761   1.654   2.019  1.00  0.00     0.001 A 
HETATM   90  C19 UNL     1     -10.502   1.659   0.648  1.00  0.00     0.010 A 
ENDBRANCH  79  81
ENDBRANCH  60  77
ENDBRANCH  54  56
ENDBRANCH   1  52
TORSDOF 19
