REMARK  0 active torsions:
REMARK  status: ('A' for Active; 'I' for Inactive)
REMARK       I    between atoms: C2_2  and  C3_3 
REMARK       I    between atoms: C3_3  and  C5_5 
REMARK       I    between atoms: C5_5  and  C6_6 
REMARK       I    between atoms: C5_5  and  N8_94 
REMARK       I    between atoms: C6_6  and  N1_87 
REMARK       I    between atoms: C7_7  and  C10_10 
REMARK       I    between atoms: C7_7  and  N1_87 
REMARK       I    between atoms: C10_10  and  N2_88 
REMARK       I    between atoms: C14_14  and  C15_15 
REMARK       I    between atoms: C15_15  and  N3_89 
REMARK       I    between atoms: C16_16  and  C18_18 
REMARK       I    between atoms: C16_16  and  C20_20 
REMARK       I    between atoms: C16_16  and  N3_89 
REMARK       I    between atoms: C20_20  and  N4_90 
REMARK       I    between atoms: C21_21  and  C22_22 
REMARK       I    between atoms: C21_21  and  C26_26 
REMARK       I    between atoms: C21_21  and  N4_90 
REMARK       I    between atoms: C22_22  and  C23_23 
REMARK       I    between atoms: C26_26  and  N5_91 
REMARK       I    between atoms: C27_27  and  C30_30 
REMARK       I    between atoms: C27_27  and  N5_91 
REMARK       I    between atoms: C30_30  and  N6_92 
REMARK       I    between atoms: C34_34  and  C35_35 
REMARK       I    between atoms: C35_35  and  N7_93 
REMARK       I    between atoms: C36_36  and  C37_37 
REMARK       I    between atoms: C36_36  and  C41_41 
REMARK       I    between atoms: C36_36  and  N7_93 
REMARK       I    between atoms: C37_37  and  C38_38 
REMARK       I    between atoms: C41_41  and  O8_78 
REMARK       I    between atoms: C42_42  and  C43_43 
REMARK       I    between atoms: C42_42  and  N8_94 
REMARK       I    between atoms: C43_43  and  N9_95 
REMARK       I    between atoms: C45_45  and  C46_46 
REMARK       I    between atoms: C45_45  and  N9_95 
REMARK       I    between atoms: C50_50  and  C51_51 
REMARK       I    between atoms: C50_50  and  N10_96 
REMARK       I    between atoms: C51_51  and  N11_97 
REMARK       I    between atoms: C54_54  and  C55_55 
REMARK       I    between atoms: C54_54  and  N11_97 
REMARK       I    between atoms: C55_55  and  C56_56 
REMARK       I    between atoms: C55_55  and  N12_98 
REMARK       I    between atoms: C56_56  and  C57_57 
REMARK       I    between atoms: C60_60  and  C61_61 
REMARK       I    between atoms: C60_60  and  N12_98 
REMARK       I    between atoms: C61_61  and  C62_62 
REMARK       I    between atoms: C61_61  and  N14_100 
REMARK       I    between atoms: C62_62  and  C63_63 
REMARK       I    between atoms: C63_63  and  C64_64 
REMARK       I    between atoms: C64_64  and  N13_99 
REMARK       I    between atoms: C65_65  and  C66_66 
REMARK       I    between atoms: C65_65  and  N14_100 
REMARK       I    between atoms: C66_66  and  N15_101 
REMARK       I    between atoms: C69_69  and  N15_101 
ROOT
HETATM    1  C1  UNL     1       1.219   5.343  -4.923  1.00  0.00     0.005 C 
HETATM    2  C2  UNL     1       2.016   5.539  -3.644  1.00  0.00     0.002 C 
HETATM    3  C3  UNL     1       1.167   5.645  -2.360  1.00  0.00     0.013 C 
HETATM    4  C4  UNL     1       2.107   5.914  -1.175  1.00  0.00     0.012 C 
HETATM    5  C5  UNL     1       0.267   4.422  -2.058  1.00  0.00     0.180 C 
HETATM    6  C6  UNL     1      -1.052   4.434  -2.873  1.00  0.00     0.241 C 
HETATM    7  C7  UNL     1      -2.715   2.923  -4.030  1.00  0.00     0.106 C 
HETATM    8  C8  UNL     1      -2.635   1.495  -4.602  1.00  0.00     0.048 C 
HETATM    9  C9  UNL     1      -2.833   3.867  -5.249  1.00  0.00     0.048 C 
HETATM   10  C10 UNL     1      -4.041   3.008  -3.187  1.00  0.00     0.248 C 
HETATM   11  C11 UNL     1      -5.347   2.807  -1.127  1.00  0.00     0.127 C 
HETATM   12  C12 UNL     1      -4.890   3.166   0.275  1.00  0.00     0.022 C 
HETATM   13  C13 UNL     1      -3.664   2.291   0.462  1.00  0.00     0.037 C 
HETATM   14  C14 UNL     1      -3.011   2.283  -0.932  1.00  0.00     0.179 C 
HETATM   15  C15 UNL     1      -2.366   0.911  -1.197  1.00  0.00     0.241 C 
HETATM   16  C16 UNL     1      -2.918  -1.576  -1.372  1.00  0.00     0.110 C 
HETATM   17  C17 UNL     1      -2.075  -1.977  -0.151  1.00  0.00     0.049 C 
HETATM   18  C18 UNL     1      -2.234  -1.884  -2.722  1.00  0.00     0.036 C 
HETATM   19  C19 UNL     1      -1.678  -3.290  -2.903  1.00  0.00     0.008 C 
HETATM   20  C20 UNL     1      -4.328  -2.253  -1.301  1.00  0.00     0.246 C 
HETATM   21  C21 UNL     1      -5.635  -4.317  -0.807  1.00  0.00     0.177 C 
HETATM   22  C22 UNL     1      -5.891  -5.427  -1.840  1.00  0.00     0.038 C 
HETATM   23  C23 UNL     1      -4.748  -6.435  -2.090  1.00  0.00    -0.020 C 
HETATM   24  C24 UNL     1      -4.345  -7.228  -0.848  1.00  0.00     0.009 C 
HETATM   25  C25 UNL     1      -5.162  -7.406  -3.202  1.00  0.00     0.009 C 
HETATM   26  C26 UNL     1      -5.754  -4.815   0.656  1.00  0.00     0.241 C 
HETATM   27  C27 UNL     1      -4.823  -4.434   2.986  1.00  0.00     0.101 C 
HETATM   28  C28 UNL     1      -3.403  -4.088   3.471  1.00  0.00     0.048 C 
HETATM   29  C29 UNL     1      -5.173  -5.858   3.432  1.00  0.00     0.048 C 
HETATM   30  C30 UNL     1      -5.803  -3.313   3.467  1.00  0.00     0.228 C 
HETATM   31  C31 UNL     1      -6.089  -3.808   5.804  1.00  0.00     0.099 C 
HETATM   32  C32 UNL     1      -6.276  -2.471   6.536  1.00  0.00     0.017 C 
HETATM   33  C33 UNL     1      -7.299  -1.687   5.706  1.00  0.00     0.031 C 
HETATM   34  C34 UNL     1      -7.855  -2.737   4.755  1.00  0.00     0.158 C 
HETATM   35  C35 UNL     1      -8.813  -2.173   3.680  1.00  0.00     0.236 C 
HETATM   36  C36 UNL     1      -9.022  -0.896   1.553  1.00  0.00     0.108 C 
HETATM   37  C37 UNL     1      -9.465   0.521   1.983  1.00  0.00     0.031 C 
HETATM   38  C38 UNL     1      -8.411   1.645   2.051  1.00  0.00    -0.021 C 
HETATM   39  C39 UNL     1      -7.345   1.411   3.120  1.00  0.00     0.009 C 
HETATM   40  C40 UNL     1      -9.114   2.980   2.330  1.00  0.00     0.009 C 
HETATM   41  C41 UNL     1      -8.292  -0.949   0.201  1.00  0.00     0.189 C 
HETATM   42  C42 UNL     1       1.391   2.412  -1.095  1.00  0.00     0.240 C 
HETATM   43  C43 UNL     1       2.042   1.064  -1.476  1.00  0.00     0.172 C 
HETATM   44  C44 UNL     1       2.227   0.180  -0.251  1.00  0.00     0.042 C 
HETATM   45  C45 UNL     1       3.432   1.668  -3.449  1.00  0.00     0.241 C 
HETATM   46  C46 UNL     1       4.863   2.027  -3.914  1.00  0.00     0.179 C 
HETATM   47  C47 UNL     1       4.796   2.894  -5.183  1.00  0.00     0.037 C 
HETATM   48  C48 UNL     1       4.836   1.872  -6.306  1.00  0.00     0.022 C 
HETATM   49  C49 UNL     1       5.833   0.861  -5.775  1.00  0.00     0.127 C 
HETATM   50  C50 UNL     1       6.618   0.153  -3.596  1.00  0.00     0.243 C 
HETATM   51  C51 UNL     1       6.511  -0.055  -2.041  1.00  0.00     0.092 C 
HETATM   52  C52 UNL     1       5.488  -1.204  -1.892  1.00  0.00     0.042 C 
HETATM   53  C53 UNL     1       7.867  -0.575  -1.507  1.00  0.00     0.042 C 
HETATM   54  C54 UNL     1       6.843   2.235  -1.141  1.00  0.00     0.221 C 
HETATM   55  C55 UNL     1       6.467   3.185   0.026  1.00  0.00     0.171 C 
HETATM   56  C56 UNL     1       7.387   4.417   0.138  1.00  0.00     0.038 C 
HETATM   57  C57 UNL     1       6.831   5.722  -0.477  1.00  0.00    -0.020 C 
HETATM   58  C58 UNL     1       5.668   6.282   0.345  1.00  0.00     0.009 C 
HETATM   59  C59 UNL     1       6.433   5.582  -1.945  1.00  0.00     0.009 C 
HETATM   60  C60 UNL     1       7.444   1.957   1.968  1.00  0.00     0.241 C 
HETATM   61  C61 UNL     1       7.072   1.181   3.253  1.00  0.00     0.177 C 
HETATM   62  C62 UNL     1       8.104   1.424   4.374  1.00  0.00     0.044 C 
HETATM   63  C63 UNL     1       9.472   0.743   4.218  1.00  0.00     0.105 C 
HETATM   64  C64 UNL     1       9.479  -0.742   4.530  1.00  0.00     0.215 C 
HETATM   65  C65 UNL     1       5.838  -0.742   2.261  1.00  0.00     0.246 C 
HETATM   66  C66 UNL     1       5.623  -2.276   2.466  1.00  0.00     0.106 C 
HETATM   67  C67 UNL     1       6.681  -3.015   1.628  1.00  0.00     0.048 C 
HETATM   68  C68 UNL     1       4.230  -2.702   1.989  1.00  0.00     0.048 C 
HETATM   69  C69 UNL     1       5.045  -2.219   4.913  1.00  0.00     0.214 C 
HETATM   70  C70 UNL     1       5.531  -2.625   6.278  1.00  0.00     0.117 C 
HETATM   71  O1  UNL     1      -1.710   5.455  -3.042  1.00  0.00    -0.271 OA
HETATM   72  O2  UNL     1      -5.098   3.295  -3.770  1.00  0.00    -0.271 OA
HETATM   73  O3  UNL     1      -1.147   0.770  -1.263  1.00  0.00    -0.271 OA
HETATM   74  O4  UNL     1      -5.359  -1.593  -1.466  1.00  0.00    -0.271 OA
HETATM   75  O5  UNL     1      -6.643  -5.578   1.015  1.00  0.00    -0.271 OA
HETATM   76  O6  UNL     1      -5.760  -2.199   2.933  1.00  0.00    -0.277 OA
HETATM   77  O7  UNL     1     -10.029  -2.145   3.883  1.00  0.00    -0.272 OA
HETATM   78  O8  UNL     1      -6.968  -0.430   0.294  1.00  0.00    -0.399 OA
HETATM   79  O9  UNL     1       1.275   2.808   0.062  1.00  0.00    -0.271 OA
HETATM   80  O10 UNL     1       2.440   1.705  -4.177  1.00  0.00    -0.271 OA
HETATM   81  O11 UNL     1       7.442  -0.538  -4.220  1.00  0.00    -0.271 OA
HETATM   82  O12 UNL     1       7.591   2.547  -2.062  1.00  0.00    -0.278 OA
HETATM   83  O13 UNL     1       8.595   2.087   1.563  1.00  0.00    -0.271 OA
HETATM   84  O14 UNL     1       8.484  -1.408   4.808  1.00  0.00    -0.274 OA
HETATM   85  O15 UNL     1       5.256  -0.067   1.412  1.00  0.00    -0.271 OA
HETATM   86  O16 UNL     1       4.031  -1.549   4.755  1.00  0.00    -0.274 OA
HETATM   87  N1  UNL     1      -1.470   3.185  -3.291  1.00  0.00    -0.342 N 
HETATM   88  N2  UNL     1      -4.108   2.586  -1.865  1.00  0.00    -0.337 N 
HETATM   89  N3  UNL     1      -3.251  -0.134  -1.284  1.00  0.00    -0.342 N 
HETATM   90  N4  UNL     1      -4.375  -3.606  -1.060  1.00  0.00    -0.346 N 
HETATM   91  N5  UNL     1      -4.798  -4.287   1.507  1.00  0.00    -0.342 N 
HETATM   92  N6  UNL     1      -6.695  -3.610   4.494  1.00  0.00    -0.238 NA
HETATM   93  N7  UNL     1      -8.252  -1.586   2.580  1.00  0.00    -0.353 N 
HETATM   94  N8  UNL     1       0.972   3.149  -2.185  1.00  0.00    -0.346 N 
HETATM   95  N9  UNL     1       3.328   1.323  -2.122  1.00  0.00    -0.346 N 
HETATM   96  N10 UNL     1       5.680   0.873  -4.323  1.00  0.00    -0.337 N 
HETATM   97  N11 UNL     1       6.077   1.068  -1.183  1.00  0.00    -0.244 NA
HETATM   98  N12 UNL     1       6.347   2.441   1.280  1.00  0.00    -0.347 N 
HETATM   99  N13 UNL     1      10.712  -1.319   4.464  1.00  0.00    -0.370 N 
HETATM  100  N14 UNL     1       6.888  -0.239   3.002  1.00  0.00    -0.346 N 
HETATM  101  N15 UNL     1       5.866  -2.626   3.885  1.00  0.00    -0.344 N 
HETATM  102  HA8 UNL     1      -6.489  -0.777  -0.490  1.00  0.00     0.209 HD
HETATM  103  HA9 UNL     1      -0.943   2.393  -2.932  1.00  0.00     0.163 HD
HETATM  104  HB0 UNL     1      -4.239   0.103  -1.380  1.00  0.00     0.163 HD
HETATM  105  HB1 UNL     1      -3.525  -4.121  -0.869  1.00  0.00     0.163 HD
HETATM  106  HB2 UNL     1      -4.497  -3.365   1.209  1.00  0.00     0.163 HD
HETATM  107  HB3 UNL     1      -7.235  -1.515   2.524  1.00  0.00     0.163 HD
HETATM  108  HB4 UNL     1       1.196   2.796  -3.117  1.00  0.00     0.163 HD
HETATM  109  HB5 UNL     1       4.152   1.419  -1.539  1.00  0.00     0.163 HD
HETATM  110  HB6 UNL     1       5.790   0.770  -0.247  1.00  0.00     0.131 HD
HETATM  111  HB7 UNL     1       5.458   1.988   1.486  1.00  0.00     0.163 HD
HETATM  112  HB8 UNL     1      11.517  -0.828   4.096  1.00  0.00     0.159 HD
HETATM  113  HB9 UNL     1      10.790  -2.317   4.609  1.00  0.00     0.159 HD
HETATM  114  HC0 UNL     1       7.145  -0.842   3.782  1.00  0.00     0.163 HD
HETATM  115  HC1 UNL     1       6.815  -2.880   4.148  1.00  0.00     0.163 HD
ENDROOT
TORSDOF 38
