REMARK  0 active torsions:
REMARK  status: ('A' for Active; 'I' for Inactive)
REMARK       I    between atoms: C2_2  and  C3_3 
REMARK       I    between atoms: C3_3  and  C5_5 
REMARK       I    between atoms: C5_5  and  C6_6 
REMARK       I    between atoms: C5_5  and  N3_98 
REMARK       I    between atoms: C6_6  and  C7_7 
REMARK       I    between atoms: C6_6  and  O5_79 
REMARK       I    between atoms: C7_7  and  C8_8 
REMARK       I    between atoms: C8_8  and  N1_96 
REMARK       I    between atoms: C12_12  and  C13_13 
REMARK       I    between atoms: C13_13  and  C14_14 
REMARK       I    between atoms: C13_13  and  O4_78 
REMARK       I    between atoms: C14_14  and  C16_16 
REMARK       I    between atoms: C16_16  and  N2_97 
REMARK       I    between atoms: C17_17  and  C19_19 
REMARK       I    between atoms: C17_17  and  N2_97 
REMARK       I    between atoms: C19_19  and  C20_20 
REMARK       I    between atoms: C19_19  and  O3_77 
REMARK       I    between atoms: C29_29  and  C30_30 
REMARK       I    between atoms: C29_29  and  N3_98 
REMARK       I    between atoms: C30_30  and  N4_99 
REMARK       I    between atoms: C31_31  and  C32_32 
REMARK       I    between atoms: C31_31  and  N4_99 
REMARK       I    between atoms: C32_32  and  C33_33 
REMARK       I    between atoms: C32_32  and  N5_100 
REMARK       I    between atoms: C37_37  and  O9_83 
REMARK       I    between atoms: C37_37  and  N5_100 
REMARK       I    between atoms: C38_38  and  C39_39 
REMARK       I    between atoms: C38_38  and  O9_83 
REMARK       I    between atoms: C42_42  and  N6_101 
REMARK       I    between atoms: C45_45  and  C46_46 
REMARK       I    between atoms: C45_45  and  N6_101 
REMARK       I    between atoms: C46_46  and  N7_102 
REMARK       I    between atoms: C47_47  and  C48_48 
REMARK       I    between atoms: C47_47  and  N7_102 
REMARK       I    between atoms: C48_48  and  C49_49 
REMARK       I    between atoms: C48_48  and  N8_103 
REMARK       I    between atoms: C52_52  and  C53_53 
REMARK       I    between atoms: C52_52  and  N8_103 
REMARK       I    between atoms: C53_53  and  C54_54 
REMARK       I    between atoms: C54_54  and  C55_55 
REMARK       I    between atoms: C55_55  and  C56_56 
REMARK       I    between atoms: C55_55  and  N10_106 
REMARK       I    between atoms: C56_56  and  N9_104 
REMARK       I    between atoms: C58_58  and  C59_59 
REMARK       I    between atoms: C58_58  and  N10_106 
REMARK       I    between atoms: C62_62  and  C65_65 
REMARK       I    between atoms: C65_65  and  C66_66 
REMARK       I    between atoms: C66_66  and  C67_67 
REMARK       I    between atoms: C66_66  and  C71_71 
REMARK       I    between atoms: C67_67  and  S1_107 
REMARK       I    between atoms: C68_68  and  C69_69 
REMARK       I    between atoms: C68_68  and  S1_107 
REMARK       I    between atoms: C69_69  and  O18_92 
REMARK       I    between atoms: C71_71  and  S2_108 
REMARK       I    between atoms: C72_72  and  C73_73 
REMARK       I    between atoms: C72_72  and  S2_108 
REMARK       I    between atoms: C73_73  and  O21_95 
ROOT
HETATM    1  C1  UNL     1     -11.866  -0.220  -3.895  1.00  0.00     0.005 C 
HETATM    2  C2  UNL     1     -11.174  -0.557  -2.580  1.00  0.00     0.002 C 
HETATM    3  C3  UNL     1     -11.722   0.235  -1.371  1.00  0.00     0.006 C 
HETATM    4  C4  UNL     1     -11.535   1.743  -1.570  1.00  0.00     0.012 C 
HETATM    5  C5  UNL     1     -11.137  -0.311  -0.025  1.00  0.00     0.119 C 
HETATM    6  C6  UNL     1     -11.880   0.191   1.267  1.00  0.00     0.152 C 
HETATM    7  C7  UNL     1     -13.345  -0.297   1.307  1.00  0.00     0.137 C 
HETATM    8  C8  UNL     1     -14.327   0.719   0.768  1.00  0.00     0.222 C 
HETATM    9  C9  UNL     1     -16.069   0.865  -0.857  1.00  0.00     0.126 C 
HETATM   10  C10 UNL     1     -16.113  -0.346  -1.804  1.00  0.00     0.022 C 
HETATM   11  C11 UNL     1     -15.964  -1.586  -0.902  1.00  0.00     0.029 C 
HETATM   12  C12 UNL     1     -16.232  -1.024   0.492  1.00  0.00     0.117 C 
HETATM   13  C13 UNL     1     -15.989  -1.961   1.691  1.00  0.00     0.156 C 
HETATM   14  C14 UNL     1     -16.300  -1.309   3.063  1.00  0.00     0.105 C 
HETATM   15  C15 UNL     1     -16.036  -2.289   4.211  1.00  0.00     0.022 C 
HETATM   16  C16 UNL     1     -17.726  -0.772   3.173  1.00  0.00     0.224 C 
HETATM   17  C17 UNL     1     -19.192   1.172   2.675  1.00  0.00     0.113 C 
HETATM   18  C18 UNL     1     -20.014   0.700   1.475  1.00  0.00     0.035 C 
HETATM   19  C19 UNL     1     -19.104   2.725   2.760  1.00  0.00     0.173 C 
HETATM   20  C20 UNL     1     -18.439   3.419   1.585  1.00  0.00    -0.028 A 
HETATM   21  C21 UNL     1     -17.048   3.590   1.524  1.00  0.00     0.010 A 
HETATM   22  C22 UNL     1     -16.456   4.236   0.437  1.00  0.00     0.001 A 
HETATM   23  C23 UNL     1     -17.244   4.720  -0.603  1.00  0.00     0.000 A 
HETATM   24  C24 UNL     1     -18.627   4.561  -0.557  1.00  0.00     0.001 A 
HETATM   25  C25 UNL     1     -19.221   3.916   0.530  1.00  0.00     0.010 A 
HETATM   26  C26 UNL     1     -16.087  -4.327   1.346  1.00  0.00     0.202 C 
HETATM   27  C27 UNL     1     -11.293   0.451   3.571  1.00  0.00     0.202 C 
HETATM   28  C28 UNL     1      -9.065   1.104   0.396  1.00  0.00     0.153 C 
HETATM   29  C29 UNL     1      -8.875  -1.309  -0.247  1.00  0.00     0.237 C 
HETATM   30  C30 UNL     1      -7.338  -1.185  -0.260  1.00  0.00     0.225 C 
HETATM   31  C31 UNL     1      -6.775  -0.016  -2.353  1.00  0.00     0.241 C 
HETATM   32  C32 UNL     1      -5.964   1.165  -2.936  1.00  0.00     0.184 C 
HETATM   33  C33 UNL     1      -6.530   1.653  -4.294  1.00  0.00     0.010 C 
HETATM   34  C34 UNL     1      -7.974   2.155  -4.139  1.00  0.00     0.012 C 
HETATM   35  C35 UNL     1      -5.680   2.789  -4.875  1.00  0.00     0.012 C 
HETATM   36  C36 UNL     1      -4.130  -0.239  -3.973  1.00  0.00     0.156 C 
HETATM   37  C37 UNL     1      -3.817   0.884  -1.796  1.00  0.00     0.363 C 
HETATM   38  C38 UNL     1      -1.796   0.493  -0.681  1.00  0.00     0.219 C 
HETATM   39  C39 UNL     1      -0.465  -0.179  -0.899  1.00  0.00    -0.034 A 
HETATM   40  C40 UNL     1       0.728   0.548  -0.817  1.00  0.00     0.011 A 
HETATM   41  C41 UNL     1       1.965  -0.080  -1.011  1.00  0.00     0.030 A 
HETATM   42  C42 UNL     1       2.031  -1.445  -1.292  1.00  0.00     0.034 A 
HETATM   43  C43 UNL     1       0.839  -2.174  -1.374  1.00  0.00     0.030 A 
HETATM   44  C44 UNL     1      -0.397  -1.549  -1.180  1.00  0.00     0.011 A 
HETATM   45  C45 UNL     1       4.527  -1.648  -1.475  1.00  0.00     0.239 C 
HETATM   46  C46 UNL     1       5.569  -2.741  -1.733  1.00  0.00     0.225 C 
HETATM   47  C47 UNL     1       7.948  -3.001  -2.282  1.00  0.00     0.241 C 
HETATM   48  C48 UNL     1       9.327  -2.310  -2.217  1.00  0.00     0.179 C 
HETATM   49  C49 UNL     1      10.324  -2.907  -3.235  1.00  0.00     0.009 C 
HETATM   50  C50 UNL     1       9.853  -2.665  -4.673  1.00  0.00     0.012 C 
HETATM   51  C51 UNL     1      11.725  -2.307  -3.063  1.00  0.00     0.012 C 
HETATM   52  C52 UNL     1       9.417  -1.647   0.164  1.00  0.00     0.218 C 
HETATM   53  C53 UNL     1       9.959  -2.041   1.524  1.00  0.00     0.105 C 
HETATM   54  C54 UNL     1       9.880  -0.902   2.541  1.00  0.00     0.044 C 
HETATM   55  C55 UNL     1      10.768   0.307   2.204  1.00  0.00     0.177 C 
HETATM   56  C56 UNL     1      10.415   1.477   3.165  1.00  0.00     0.243 C 
HETATM   57  C57 UNL     1      11.257   2.933   4.686  1.00  0.00     0.121 C 
HETATM   58  C58 UNL     1      12.970  -0.390   1.266  1.00  0.00     0.252 C 
HETATM   59  C59 UNL     1      14.439  -0.477   1.500  1.00  0.00     0.032 A 
HETATM   60  C60 UNL     1      14.984  -0.696   2.768  1.00  0.00     0.018 A 
HETATM   61  C61 UNL     1      16.372  -0.777   2.929  1.00  0.00     0.016 A 
HETATM   62  C62 UNL     1      17.235  -0.649   1.828  1.00  0.00     0.010 A 
HETATM   63  C63 UNL     1      16.685  -0.442   0.558  1.00  0.00     0.016 A 
HETATM   64  C64 UNL     1      15.295  -0.361   0.397  1.00  0.00     0.018 A 
HETATM   65  C65 UNL     1      18.711  -0.745   2.083  1.00  0.00     0.165 C 
HETATM   66  C66 UNL     1      19.702  -0.706   0.931  1.00  0.00     0.088 C 
HETATM   67  C67 UNL     1      20.922  -1.600   1.236  1.00  0.00     0.153 C 
HETATM   68  C68 UNL     1      21.906  -0.578   3.734  1.00  0.00     0.166 C 
HETATM   69  C69 UNL     1      23.121  -0.157   4.550  1.00  0.00     0.182 C 
HETATM   70  C70 UNL     1      24.022  -2.235   5.280  1.00  0.00     0.201 C 
HETATM   71  C71 UNL     1      19.952   0.750   0.536  1.00  0.00     0.153 C 
HETATM   72  C72 UNL     1      21.259   2.491  -1.223  1.00  0.00     0.166 C 
HETATM   73  C73 UNL     1      21.775   2.778  -2.616  1.00  0.00     0.182 C 
HETATM   74  C74 UNL     1      22.856   4.436  -3.898  1.00  0.00     0.201 C 
HETATM   75  O1  UNL     1     -13.996   1.900   0.642  1.00  0.00    -0.273 OA
HETATM   76  O2  UNL     1     -18.649  -1.412   3.668  1.00  0.00    -0.273 OA
HETATM   77  O3  UNL     1     -18.455   3.108   3.981  1.00  0.00    -0.389 OA
HETATM   78  O4  UNL     1     -16.822  -3.121   1.510  1.00  0.00    -0.388 OA
HETATM   79  O5  UNL     1     -11.204  -0.374   2.416  1.00  0.00    -0.388 OA
HETATM   80  O6  UNL     1      -9.380  -2.428  -0.395  1.00  0.00    -0.272 OA
HETATM   81  O7  UNL     1      -7.297  -0.882  -3.047  1.00  0.00    -0.271 OA
HETATM   82  O8  UNL     1      -4.271   1.407  -0.782  1.00  0.00    -0.238 OA
HETATM   83  O9  UNL     1      -2.569   0.360  -1.877  1.00  0.00    -0.299 OA
HETATM   84  O10 UNL     1       4.853  -0.485  -1.253  1.00  0.00    -0.271 OA
HETATM   85  O11 UNL     1       7.797  -4.188  -2.568  1.00  0.00    -0.271 OA
HETATM   86  O12 UNL     1       8.668  -0.692  -0.016  1.00  0.00    -0.274 OA
HETATM   87  O13 UNL     1       9.286   1.956   3.219  1.00  0.00    -0.271 OA
HETATM   88  O14 UNL     1      12.514  -0.625   0.154  1.00  0.00    -0.268 OA
HETATM   89  O15 UNL     1      19.105  -0.845   3.242  1.00  0.00    -0.292 OA
HETATM   90  O16 UNL     1      23.345  -1.994   2.085  1.00  0.00    -0.228 OA
HETATM   91  O17 UNL     1      22.706   0.339   1.422  1.00  0.00    -0.228 OA
HETATM   92  O18 UNL     1      23.352  -1.036   5.655  1.00  0.00    -0.395 OA
HETATM   93  O19 UNL     1      21.485  -0.121  -1.419  1.00  0.00    -0.228 OA
HETATM   94  O20 UNL     1      19.273   0.936  -1.960  1.00  0.00    -0.228 OA
HETATM   95  O21 UNL     1      22.317   4.101  -2.624  1.00  0.00    -0.395 OA
HETATM   96  N1  UNL     1     -15.604   0.302   0.406  1.00  0.00    -0.345 N 
HETATM   97  N2  UNL     1     -17.885   0.509   2.681  1.00  0.00    -0.354 N 
HETATM   98  N3  UNL     1      -9.652  -0.184   0.054  1.00  0.00    -0.347 N 
HETATM   99  N4  UNL     1      -6.787  -0.045  -0.970  1.00  0.00    -0.351 N 
HETATM  100  N5  UNL     1      -4.547   0.739  -2.971  1.00  0.00    -0.319 N 
HETATM  101  N6  UNL     1       3.234  -2.152  -1.501  1.00  0.00    -0.326 N 
HETATM  102  N7  UNL     1       6.900  -2.199  -1.887  1.00  0.00    -0.351 N 
HETATM  103  N8  UNL     1       9.793  -2.501  -0.845  1.00  0.00    -0.347 N 
HETATM  104  N9  UNL     1      11.475   1.887   3.963  1.00  0.00    -0.345 N 
ATOM    105  H9  UNL     1      12.368   1.393   3.977  1.00  0.00     0.167 HD
HETATM  106  N10 UNL     1      12.195  -0.023   2.340  1.00  0.00    -0.344 N 
HETATM  107  S1  UNL     1      22.363  -0.925   2.049  1.00  0.00     0.147 S 
HETATM  108  S2  UNL     1      20.484   0.894  -1.162  1.00  0.00     0.147 S 
HETATM  109  HA4 UNL     1     -18.247   4.055   3.905  1.00  0.00     0.210 HD
HETATM  110  HA5 UNL     1     -17.133   0.938   2.154  1.00  0.00     0.163 HD
HETATM  111  HA6 UNL     1      -6.063   0.498  -0.503  1.00  0.00     0.163 HD
HETATM  112  HA7 UNL     1       3.134  -3.139  -1.701  1.00  0.00     0.169 HD
HETATM  113  HA8 UNL     1       7.120  -1.338  -1.379  1.00  0.00     0.163 HD
HETATM  114  HA9 UNL     1      10.206  -3.392  -0.604  1.00  0.00     0.163 HD
HETATM  115  HB0 UNL     1      12.642   0.423   3.137  1.00  0.00     0.163 HD
ENDROOT
TORSDOF 47
