REMARK  0 active torsions:
REMARK  status: ('A' for Active; 'I' for Inactive)
REMARK       I    between atoms: C2_2  and  C3_3 
REMARK       I    between atoms: C3_3  and  C5_5 
REMARK       I    between atoms: C5_5  and  C6_6 
REMARK       I    between atoms: C5_5  and  N8_78 
REMARK       I    between atoms: C6_6  and  N1_70 
REMARK       I    between atoms: C7_7  and  C8_8 
REMARK       I    between atoms: C7_7  and  C10_10 
REMARK       I    between atoms: C7_7  and  N1_70 
REMARK       I    between atoms: C8_8  and  C9_9 
REMARK       I    between atoms: C9_9  and  O3_56 
REMARK       I    between atoms: C10_10  and  N2_71 
REMARK       I    between atoms: C11_11  and  C12_12 
REMARK       I    between atoms: C11_11  and  C16_16 
REMARK       I    between atoms: C11_11  and  N2_71 
REMARK       I    between atoms: C12_12  and  C13_13 
REMARK       I    between atoms: C13_13  and  C14_14 
REMARK       I    between atoms: C14_14  and  N3_72 
REMARK       I    between atoms: C15_15  and  N4_74 
REMARK       I    between atoms: C15_15  and  N5_75 
REMARK       I    between atoms: C16_16  and  N6_76 
REMARK       I    between atoms: C17_17  and  C18_18 
REMARK       I    between atoms: C17_17  and  C22_22 
REMARK       I    between atoms: C17_17  and  N6_76 
REMARK       I    between atoms: C18_18  and  C20_20 
REMARK       I    between atoms: C22_22  and  N7_77 
REMARK       I    between atoms: C23_23  and  C24_24 
REMARK       I    between atoms: C23_23  and  C25_25 
REMARK       I    between atoms: C23_23  and  N7_77 
REMARK       I    between atoms: C24_24  and  S1_90 
REMARK       I    between atoms: C26_26  and  C27_27 
REMARK       I    between atoms: C26_26  and  N8_78 
REMARK       I    between atoms: C27_27  and  C28_28 
REMARK       I    between atoms: C27_27  and  N12_83 
REMARK       I    between atoms: C28_28  and  C29_29 
REMARK       I    between atoms: C29_29  and  C30_30 
REMARK       I    between atoms: C30_30  and  N9_79 
REMARK       I    between atoms: C31_31  and  N10_81 
REMARK       I    between atoms: C31_31  and  N11_82 
REMARK       I    between atoms: C32_32  and  C33_33 
REMARK       I    between atoms: C32_32  and  N12_83 
REMARK       I    between atoms: C33_33  and  N13_84 
REMARK       I    between atoms: C34_34  and  C35_35 
REMARK       I    between atoms: C34_34  and  N13_84 
REMARK       I    between atoms: C35_35  and  N14_85 
REMARK       I    between atoms: C36_36  and  C37_37 
REMARK       I    between atoms: C36_36  and  N14_85 
REMARK       I    between atoms: C37_37  and  C38_38 
REMARK       I    between atoms: C37_37  and  N15_86 
REMARK       I    between atoms: C38_38  and  C39_39 
REMARK       I    between atoms: C45_45  and  C46_46 
REMARK       I    between atoms: C45_45  and  N15_86 
REMARK       I    between atoms: C46_46  and  C47_47 
REMARK       I    between atoms: C46_46  and  N16_87 
REMARK       I    between atoms: C47_47  and  S2_91 
REMARK       I    between atoms: C48_48  and  C49_49 
REMARK       I    between atoms: C48_48  and  N16_87 
REMARK       I    between atoms: C49_49  and  C50_50 
REMARK       I    between atoms: C49_49  and  N17_88 
REMARK       I    between atoms: C50_50  and  O14_67 
REMARK       I    between atoms: C51_51  and  C52_52 
REMARK       I    between atoms: C51_51  and  N17_88 
REMARK       I    between atoms: C52_52  and  C53_53 
REMARK       I    between atoms: C52_52  and  N18_89 
REMARK       I    between atoms: C53_53  and  O16_69 
ROOT
HETATM    1  C1  UNL     1      -2.847  -1.508   4.099  1.00  0.00     0.005 C 
HETATM    2  C2  UNL     1      -2.209  -0.221   4.602  1.00  0.00     0.002 C 
HETATM    3  C3  UNL     1      -1.038   0.287   3.732  1.00  0.00     0.013 C 
HETATM    4  C4  UNL     1      -0.419   1.532   4.386  1.00  0.00     0.012 C 
HETATM    5  C5  UNL     1      -1.393   0.488   2.237  1.00  0.00     0.180 C 
HETATM    6  C6  UNL     1      -2.461   1.576   1.943  1.00  0.00     0.241 C 
HETATM    7  C7  UNL     1      -3.895   2.509   0.162  1.00  0.00     0.186 C 
HETATM    8  C8  UNL     1      -3.684   3.028  -1.260  1.00  0.00     0.144 C 
HETATM    9  C9  UNL     1      -4.911   3.765  -1.697  1.00  0.00     0.141 C 
HETATM   10  C10 UNL     1      -5.143   1.590   0.221  1.00  0.00     0.241 C 
HETATM   11  C11 UNL     1      -7.617   1.571   0.239  1.00  0.00     0.176 C 
HETATM   12  C12 UNL     1      -8.673   2.112   1.216  1.00  0.00     0.036 C 
HETATM   13  C13 UNL     1      -9.033   1.156   2.356  1.00  0.00     0.022 C 
HETATM   14  C14 UNL     1      -9.432  -0.261   1.945  1.00  0.00     0.121 C 
HETATM   15  C15 UNL     1     -10.960  -1.375   0.582  1.00  0.00     0.121 C 
HETATM   16  C16 UNL     1      -8.129   1.778  -1.206  1.00  0.00     0.241 C 
HETATM   17  C17 UNL     1      -9.843   1.018  -2.835  1.00  0.00     0.180 C 
HETATM   18  C18 UNL     1     -10.283  -0.349  -3.413  1.00  0.00     0.013 C 
HETATM   19  C19 UNL     1     -11.317  -0.179  -4.538  1.00  0.00     0.012 C 
HETATM   20  C20 UNL     1      -9.102  -1.175  -3.977  1.00  0.00     0.002 C 
HETATM   21  C21 UNL     1      -8.107  -1.677  -2.940  1.00  0.00     0.005 C 
HETATM   22  C22 UNL     1     -11.041   1.952  -2.522  1.00  0.00     0.241 C 
HETATM   23  C23 UNL     1     -12.678   2.705  -0.826  1.00  0.00     0.155 C 
HETATM   24  C24 UNL     1     -13.535   2.131   0.306  1.00  0.00     0.103 C 
HETATM   25  C25 UNL     1     -12.011   3.994  -0.354  1.00  0.00     0.257 C 
HETATM   26  C26 UNL     1      -0.019   0.331   0.149  1.00  0.00     0.241 C 
HETATM   27  C27 UNL     1       1.290   0.818  -0.509  1.00  0.00     0.176 C 
HETATM   28  C28 UNL     1       1.771  -0.112  -1.638  1.00  0.00     0.036 C 
HETATM   29  C29 UNL     1       1.912  -1.611  -1.313  1.00  0.00     0.022 C 
HETATM   30  C30 UNL     1       2.707  -1.888  -0.047  1.00  0.00     0.121 C 
HETATM   31  C31 UNL     1       2.290  -4.164   0.454  1.00  0.00     0.121 C 
HETATM   32  C32 UNL     1       3.350   1.952   0.346  1.00  0.00     0.236 C 
HETATM   33  C33 UNL     1       4.349   1.980   1.513  1.00  0.00     0.225 C 
HETATM   34  C34 UNL     1       4.252  -0.265   2.607  1.00  0.00     0.235 C 
HETATM   35  C35 UNL     1       5.061  -1.530   2.939  1.00  0.00     0.225 C 
HETATM   36  C36 UNL     1       6.497  -1.871   0.981  1.00  0.00     0.241 C 
HETATM   37  C37 UNL     1       6.653  -2.569  -0.386  1.00  0.00     0.180 C 
HETATM   38  C38 UNL     1       7.414  -3.897  -0.244  1.00  0.00     0.073 C 
HETATM   39  C39 UNL     1       8.891  -3.731   0.053  1.00  0.00    -0.056 A 
HETATM   40  C40 UNL     1       9.817  -3.646  -0.999  1.00  0.00     0.007 A 
HETATM   41  C41 UNL     1      11.165  -3.402  -0.738  1.00  0.00     0.001 A 
HETATM   42  C42 UNL     1      11.603  -3.252   0.576  1.00  0.00     0.000 A 
HETATM   43  C43 UNL     1      10.695  -3.350   1.628  1.00  0.00     0.001 A 
HETATM   44  C44 UNL     1       9.345  -3.590   1.370  1.00  0.00     0.007 A 
HETATM   45  C45 UNL     1       6.626  -0.614  -1.887  1.00  0.00     0.241 C 
HETATM   46  C46 UNL     1       7.477   0.580  -2.364  1.00  0.00     0.185 C 
HETATM   47  C47 UNL     1       7.845   0.335  -3.830  1.00  0.00     0.105 C 
HETATM   48  C48 UNL     1       8.581   1.332  -0.263  1.00  0.00     0.243 C 
HETATM   49  C49 UNL     1       9.861   1.190   0.578  1.00  0.00     0.200 C 
HETATM   50  C50 UNL     1       9.864   2.188   1.743  1.00  0.00     0.199 C 
HETATM   51  C51 UNL     1      12.239   0.755   0.049  1.00  0.00     0.253 C 
HETATM   52  C52 UNL     1      13.416   1.049  -0.908  1.00  0.00     0.332 C 
HETATM   53  C53 UNL     1      13.114   0.569  -2.335  1.00  0.00     0.209 C 
HETATM   54  O1  UNL     1      -3.079   2.188   2.809  1.00  0.00    -0.271 OA
HETATM   55  O2  UNL     1      -5.505   4.596  -1.025  1.00  0.00    -0.650 OA
HETATM   56  O3  UNL     1      -5.398   3.308  -2.863  1.00  0.00    -0.776 OA
HETATM   57  O4  UNL     1      -5.076   0.372   0.058  1.00  0.00    -0.271 OA
HETATM   58  O5  UNL     1      -7.777   2.713  -1.924  1.00  0.00    -0.271 OA
HETATM   59  O6  UNL     1     -11.502   2.730  -3.355  1.00  0.00    -0.271 OA
HETATM   60  O7  UNL     1     -12.487   4.742   0.498  1.00  0.00    -0.305 OA
HETATM   61  O8  UNL     1      -0.902  -0.279  -0.450  1.00  0.00    -0.271 OA
HETATM   62  O9  UNL     1       3.400   2.745  -0.590  1.00  0.00    -0.272 OA
HETATM   63  O10 UNL     1       3.086  -0.109   2.972  1.00  0.00    -0.272 OA
HETATM   64  O11 UNL     1       7.275  -0.995   1.368  1.00  0.00    -0.271 OA
HETATM   65  O12 UNL     1       5.435  -0.729  -2.158  1.00  0.00    -0.271 OA
HETATM   66  O13 UNL     1       7.537   1.815   0.163  1.00  0.00    -0.271 OA
HETATM   67  O14 UNL     1      11.087   2.164   2.484  1.00  0.00    -0.398 OA
HETATM   68  O15 UNL     1      12.369   0.074   1.067  1.00  0.00    -0.271 OA
HETATM   69  O16 UNL     1      13.218  -0.852  -2.431  1.00  0.00    -0.398 OA
HETATM   70  N1  UNL     1      -2.732   1.736   0.595  1.00  0.00    -0.345 N 
HETATM   71  N2  UNL     1      -6.340   2.250   0.423  1.00  0.00    -0.346 N 
HETATM   72  N3  UNL     1     -10.430  -0.236   0.862  1.00  0.00    -0.372 N 
ATOM     73  H3  UNL     1     -10.683   0.621   0.370  1.00  0.00     0.161 HD
HETATM   74  N4  UNL     1     -11.930  -1.478  -0.349  1.00  0.00    -0.279 NA
HETATM   75  N5  UNL     1     -10.695  -2.602   1.082  1.00  0.00    -0.279 NA
HETATM   76  N6  UNL     1      -9.087   0.860  -1.591  1.00  0.00    -0.346 N 
HETATM   77  N7  UNL     1     -11.629   1.789  -1.279  1.00  0.00    -0.348 N 
HETATM   78  N8  UNL     1      -0.179   0.751   1.453  1.00  0.00    -0.346 N 
HETATM   79  N9  UNL     1       3.135  -3.286   0.064  1.00  0.00    -0.372 N 
ATOM     80  H9  UNL     1       4.092  -3.554  -0.166  1.00  0.00     0.161 HD
HETATM   81  N10 UNL     1       0.993  -4.043   0.803  1.00  0.00    -0.279 NA
HETATM   82  N11 UNL     1       2.669  -5.457   0.548  1.00  0.00    -0.279 NA
HETATM   83  N12 UNL     1       2.312   1.062   0.510  1.00  0.00    -0.346 N 
HETATM   84  N13 UNL     1       4.907   0.678   1.853  1.00  0.00    -0.351 N 
HETATM   85  N14 UNL     1       5.428  -2.275   1.744  1.00  0.00    -0.351 N 
HETATM   86  N15 UNL     1       7.344  -1.608  -1.247  1.00  0.00    -0.346 N 
HETATM   87  N16 UNL     1       8.670   0.728  -1.509  1.00  0.00    -0.345 N 
HETATM   88  N17 UNL     1      11.038   1.336  -0.292  1.00  0.00    -0.344 N 
HETATM   89  N18 UNL     1      14.646   0.389  -0.395  1.00  0.00     0.094 N 
HETATM   90  S1  UNL     1     -14.483   0.661  -0.215  1.00  0.00    -0.180 SA
HETATM   91  S2  UNL     1       8.793   1.720  -4.549  1.00  0.00    -0.180 SA
HETATM   92  H63 UNL     1      -6.366   3.517  -2.835  1.00  0.00     0.167 HD
HETATM   93  H64 UNL     1      11.446   1.253   2.442  1.00  0.00     0.209 HD
HETATM   94  H65 UNL     1      14.126  -1.052  -2.127  1.00  0.00     0.209 HD
HETATM   95  H66 UNL     1      -2.479   0.936   0.012  1.00  0.00     0.163 HD
HETATM   96  H67 UNL     1      -6.346   3.263   0.298  1.00  0.00     0.163 HD
HETATM   97  H68 UNL     1     -12.658  -2.135  -0.087  1.00  0.00     0.126 HD
HETATM   98  H69 UNL     1     -12.368  -0.587  -0.575  1.00  0.00     0.126 HD
HETATM   99  H70 UNL     1     -10.768  -3.339   0.389  1.00  0.00     0.126 HD
HETATM  100  H71 UNL     1      -9.832  -2.691   1.605  1.00  0.00     0.126 HD
HETATM  101  H72 UNL     1      -9.428   0.195  -0.897  1.00  0.00     0.163 HD
HETATM  102  H73 UNL     1     -11.109   1.266  -0.576  1.00  0.00     0.163 HD
HETATM  103  H74 UNL     1       0.415   1.521   1.743  1.00  0.00     0.163 HD
HETATM  104  H75 UNL     1       0.727  -4.630   1.584  1.00  0.00     0.126 HD
HETATM  105  H76 UNL     1       0.648  -3.098   0.920  1.00  0.00     0.126 HD
HETATM  106  H77 UNL     1       1.966  -6.084   0.173  1.00  0.00     0.126 HD
HETATM  107  H78 UNL     1       3.553  -5.602   0.072  1.00  0.00     0.126 HD
HETATM  108  H79 UNL     1       2.324   0.487   1.352  1.00  0.00     0.163 HD
HETATM  109  H80 UNL     1       5.871   0.499   1.564  1.00  0.00     0.163 HD
HETATM  110  H81 UNL     1       4.683  -2.793   1.271  1.00  0.00     0.163 HD
HETATM  111  H82 UNL     1       8.220  -1.291  -0.848  1.00  0.00     0.163 HD
HETATM  112  H83 UNL     1       9.496   0.169  -1.702  1.00  0.00     0.163 HD
HETATM  113  H84 UNL     1      11.054   2.147  -0.900  1.00  0.00     0.163 HD
HETATM  114  H85 UNL     1      14.353  -0.526  -0.030  1.00  0.00     0.314 HD
HETATM  115  H86 UNL     1      14.919   0.880   0.462  1.00  0.00     0.314 HD
HETATM  116  H87 UNL     1     -15.229   0.568   0.896  1.00  0.00     0.101 HD
HETATM  117  H88 UNL     1       9.727   1.775  -3.592  1.00  0.00     0.101 HD
ENDROOT
TORSDOF 49
