REMARK  0 active torsions:
REMARK  status: ('A' for Active; 'I' for Inactive)
REMARK       I    between atoms: C3_3  and  N5_75 
REMARK       I    between atoms: C4_4  and  O16_67 
REMARK       I    between atoms: C6_6  and  C7_7 
REMARK       I    between atoms: C6_6  and  O4_55 
REMARK       I    between atoms: C7_7  and  O3_54 
REMARK       I    between atoms: C8_8  and  C9_9 
REMARK       I    between atoms: C8_8  and  O4_55 
REMARK       I    between atoms: C9_9  and  C10_10 
REMARK       I    between atoms: C10_10  and  S1_69 
REMARK       I    between atoms: C11_11  and  C12_12 
REMARK       I    between atoms: C11_11  and  S1_69 
REMARK       I    between atoms: C12_12  and  N1_71 
REMARK       I    between atoms: C13_13  and  C14_14 
REMARK       I    between atoms: C13_13  and  N1_71 
REMARK       I    between atoms: C17_17  and  C20_20 
REMARK       I    between atoms: C20_20  and  N2_72 
REMARK       I    between atoms: C21_21  and  C22_22 
REMARK       I    between atoms: C21_21  and  N2_72 
REMARK       I    between atoms: C22_22  and  S2_70 
REMARK       I    between atoms: C23_23  and  C24_24 
REMARK       I    between atoms: C23_23  and  S2_70 
REMARK       I    between atoms: C24_24  and  C25_25 
REMARK       I    between atoms: C25_25  and  O7_58 
REMARK       I    between atoms: C26_26  and  C49_49 
REMARK       I    between atoms: C26_26  and  O7_58 
REMARK       I    between atoms: C28_28  and  O13_64 
REMARK       I    between atoms: C29_29  and  N4_74 
REMARK       I    between atoms: C30_30  and  C31_31 
REMARK       I    between atoms: C31_31  and  C32_32 
REMARK       I    between atoms: C31_31  and  O11_62 
REMARK       I    between atoms: C32_32  and  C33_33 
REMARK       I    between atoms: C32_32  and  O10_61 
REMARK       I    between atoms: C33_33  and  N3_73 
REMARK       I    between atoms: C34_34  and  C35_35 
REMARK       I    between atoms: C34_34  and  N3_73 
REMARK       I    between atoms: C38_38  and  C41_41 
REMARK       I    between atoms: C47_47  and  N4_74 
REMARK       I    between atoms: C49_49  and  O15_66 
REMARK       I    between atoms: C50_50  and  N5_75 
ROOT
HETATM    1  C1  UNL     1     -12.920  -0.868   1.270  1.00  0.00     0.042 C 
HETATM    2  C2  UNL     1     -12.339  -2.014   0.446  1.00  0.00     0.147 C 
HETATM    3  C3  UNL     1     -13.363  -2.765  -0.442  1.00  0.00     0.142 C 
HETATM    4  C4  UNL     1     -12.575  -3.384  -1.613  1.00  0.00     0.149 C 
HETATM    5  C5  UNL     1     -11.894  -2.317  -2.466  1.00  0.00     0.114 C 
HETATM    6  C6  UNL     1     -11.478  -1.089  -1.635  1.00  0.00     0.255 C 
HETATM    7  C7  UNL     1     -10.115  -0.562  -2.193  1.00  0.00     0.205 C 
HETATM    8  C8  UNL     1     -13.214   0.272  -2.686  1.00  0.00     0.172 C 
HETATM    9  C9  UNL     1     -13.884   1.635  -2.522  1.00  0.00     0.036 C 
HETATM   10  C10 UNL     1     -12.902   2.810  -2.571  1.00  0.00     0.076 C 
HETATM   11  C11 UNL     1     -10.654   2.977  -0.900  1.00  0.00     0.093 C 
HETATM   12  C12 UNL     1      -9.815   3.901  -1.786  1.00  0.00     0.133 C 
HETATM   13  C13 UNL     1      -7.801   2.590  -2.392  1.00  0.00     0.251 C 
HETATM   14  C14 UNL     1      -6.371   2.330  -2.085  1.00  0.00     0.032 A 
HETATM   15  C15 UNL     1      -5.484   3.372  -1.793  1.00  0.00     0.018 A 
HETATM   16  C16 UNL     1      -4.144   3.088  -1.512  1.00  0.00     0.018 A 
HETATM   17  C17 UNL     1      -3.679   1.765  -1.533  1.00  0.00     0.032 A 
HETATM   18  C18 UNL     1      -4.570   0.724  -1.821  1.00  0.00     0.018 A 
HETATM   19  C19 UNL     1      -5.910   1.008  -2.106  1.00  0.00     0.018 A 
HETATM   20  C20 UNL     1      -2.244   1.518  -1.219  1.00  0.00     0.251 C 
HETATM   21  C21 UNL     1      -0.264   0.098  -1.582  1.00  0.00     0.133 C 
HETATM   22  C22 UNL     1       0.061  -0.397  -0.172  1.00  0.00     0.093 C 
HETATM   23  C23 UNL     1       2.446   0.973   0.206  1.00  0.00     0.076 C 
HETATM   24  C24 UNL     1       3.941   0.969   0.517  1.00  0.00     0.036 C 
HETATM   25  C25 UNL     1       4.452   2.393   0.719  1.00  0.00     0.172 C 
HETATM   26  C26 UNL     1       6.539   1.935   1.965  1.00  0.00     0.255 C 
HETATM   27  C27 UNL     1       5.828   2.309   3.270  1.00  0.00     0.114 C 
HETATM   28  C28 UNL     1       6.689   2.098   4.505  1.00  0.00     0.149 C 
HETATM   29  C29 UNL     1       8.085   2.757   4.368  1.00  0.00     0.145 C 
HETATM   30  C30 UNL     1       8.722   2.232   3.056  1.00  0.00     0.182 C 
HETATM   31  C31 UNL     1      10.114   2.789   2.638  1.00  0.00     0.179 C 
HETATM   32  C32 UNL     1      10.838   1.823   1.660  1.00  0.00     0.167 C 
HETATM   33  C33 UNL     1      10.216   1.690   0.266  1.00  0.00     0.157 C 
HETATM   34  C34 UNL     1      10.390  -0.719  -0.287  1.00  0.00     0.251 C 
HETATM   35  C35 UNL     1      11.211  -1.780  -0.935  1.00  0.00     0.032 A 
HETATM   36  C36 UNL     1      11.968  -1.533  -2.083  1.00  0.00     0.018 A 
HETATM   37  C37 UNL     1      12.722  -2.563  -2.661  1.00  0.00     0.013 A 
HETATM   38  C38 UNL     1      12.734  -3.859  -2.115  1.00  0.00    -0.020 A 
HETATM   39  C39 UNL     1      11.953  -4.089  -0.968  1.00  0.00     0.013 A 
HETATM   40  C40 UNL     1      11.196  -3.065  -0.387  1.00  0.00     0.018 A 
HETATM   41  C41 UNL     1      13.532  -4.939  -2.726  1.00  0.00     0.051 A 
HETATM   42  C42 UNL     1      12.990  -6.208  -2.982  1.00  0.00     0.130 A 
HETATM   43  C43 UNL     1      13.740  -7.235  -3.561  1.00  0.00     0.043 A 
HETATM   44  C44 UNL     1      15.071  -7.017  -3.903  1.00  0.00     0.006 A 
HETATM   45  C45 UNL     1      15.641  -5.770  -3.663  1.00  0.00     0.043 A 
HETATM   46  C46 UNL     1      14.877  -4.753  -3.084  1.00  0.00     0.130 A 
HETATM   47  C47 UNL     1       9.609   3.422   6.215  1.00  0.00     0.214 C 
HETATM   48  C48 UNL     1      10.097   3.044   7.586  1.00  0.00     0.117 C 
HETATM   49  C49 UNL     1       6.758   0.394   1.798  1.00  0.00     0.205 C 
HETATM   50  C50 UNL     1     -15.182  -3.557   1.053  1.00  0.00     0.214 C 
HETATM   51  C51 UNL     1     -15.896  -4.787   1.546  1.00  0.00     0.117 C 
HETATM   52  O1  UNL     1     -11.196  -1.547  -0.297  1.00  0.00    -0.339 OA
HETATM   53  O2  UNL     1      -9.004  -0.728  -1.706  1.00  0.00    -0.646 OA
HETATM   54  O3  UNL     1     -10.255   0.155  -3.334  1.00  0.00    -0.772 OA
HETATM   55  O4  UNL     1     -12.427  -0.027  -1.546  1.00  0.00    -0.346 OA
HETATM   56  O5  UNL     1      -8.394   1.892  -3.209  1.00  0.00    -0.268 OA
HETATM   57  O6  UNL     1      -1.616   2.321  -0.537  1.00  0.00    -0.268 OA
HETATM   58  O7  UNL     1       5.866   2.503   0.833  1.00  0.00    -0.346 OA
HETATM   59  O8  UNL     1       7.840   2.557   1.962  1.00  0.00    -0.336 OA
HETATM   60  O9  UNL     1       9.407  -1.025   0.386  1.00  0.00    -0.268 OA
HETATM   61  O10 UNL     1      12.198   2.286   1.489  1.00  0.00    -0.391 OA
HETATM   62  O11 UNL     1      11.034   2.944   3.728  1.00  0.00    -0.390 OA
HETATM   63  O12 UNL     1       9.935   4.472   5.665  1.00  0.00    -0.274 OA
HETATM   64  O13 UNL     1       6.012   2.635   5.649  1.00  0.00    -0.393 OA
HETATM   65  O14 UNL     1       6.766  -0.426   2.706  1.00  0.00    -0.646 OA
HETATM   66  O15 UNL     1       7.079   0.054   0.531  1.00  0.00    -0.772 OA
HETATM   67  O16 UNL     1     -13.446  -4.179  -2.429  1.00  0.00    -0.393 OA
HETATM   68  O17 UNL     1     -15.572  -2.428   1.326  1.00  0.00    -0.274 OA
HETATM   69  S1  UNL     1     -12.423   3.413  -0.914  1.00  0.00    -0.167 SA
HETATM   70  S2  UNL     1       1.840  -0.739   0.045  1.00  0.00    -0.167 SA
HETATM   71  N1  UNL     1      -8.393   3.613  -1.683  1.00  0.00    -0.356 N 
HETATM   72  N2  UNL     1      -1.679   0.379  -1.755  1.00  0.00    -0.356 N 
HETATM   73  N3  UNL     1      10.821   0.580  -0.464  1.00  0.00    -0.354 N 
HETATM   74  N4  UNL     1       8.838   2.469   5.595  1.00  0.00    -0.352 N 
HETATM   75  N5  UNL     1     -14.088  -3.828   0.265  1.00  0.00    -0.352 N 
HETATM   76  F1  UNL     1      15.478  -3.573  -2.865  1.00  0.00    -0.205 F 
HETATM   77  F2  UNL     1      11.708  -6.469  -2.682  1.00  0.00    -0.205 F 
HETATM   78  H55 UNL     1      -9.401   0.660  -3.428  1.00  0.00     0.167 HD
HETATM   79  H56 UNL     1      12.460   2.571   2.391  1.00  0.00     0.210 HD
HETATM   80  H57 UNL     1      10.749   3.745   4.222  1.00  0.00     0.210 HD
HETATM   81  H58 UNL     1       5.157   2.178   5.734  1.00  0.00     0.210 HD
HETATM   82  H59 UNL     1       7.692  -0.724   0.571  1.00  0.00     0.167 HD
HETATM   83  H60 UNL     1     -12.910  -4.558  -3.149  1.00  0.00     0.210 HD
HETATM   84  H61 UNL     1      -7.896   4.010  -0.895  1.00  0.00     0.162 HD
HETATM   85  H62 UNL     1      -2.179  -0.141  -2.464  1.00  0.00     0.162 HD
HETATM   86  H63 UNL     1      11.780   0.734  -0.754  1.00  0.00     0.162 HD
HETATM   87  H64 UNL     1       8.508   1.699   6.165  1.00  0.00     0.163 HD
HETATM   88  H65 UNL     1     -14.116  -4.714  -0.228  1.00  0.00     0.163 HD
ENDROOT
TORSDOF 34
