REMARK  0 active torsions:
REMARK  status: ('A' for Active; 'I' for Inactive)
REMARK       I    between atoms: C2_2  and  C3_3 
REMARK       I    between atoms: C3_3  and  C4_4 
REMARK       I    between atoms: C4_4  and  C5_5 
REMARK       I    between atoms: C5_5  and  C6_6 
REMARK       I    between atoms: C6_6  and  C7_7 
REMARK       I    between atoms: C7_7  and  C8_8 
REMARK       I    between atoms: C8_8  and  C9_9 
REMARK       I    between atoms: C9_9  and  C10_10 
REMARK       I    between atoms: C10_10  and  N1_67 
REMARK       I    between atoms: C11_11  and  C12_12 
REMARK       I    between atoms: C11_11  and  N1_67 
REMARK       I    between atoms: C18_18  and  N5_71 
REMARK       I    between atoms: C21_21  and  O5_78 
REMARK       I    between atoms: C22_22  and  O5_78 
REMARK       I    between atoms: C25_25  and  C26_26 
REMARK       I    between atoms: C26_26  and  C27_27 
REMARK       I    between atoms: C27_27  and  C28_28 
REMARK       I    between atoms: C27_27  and  N6_72 
REMARK       I    between atoms: C28_28  and  O6_79 
REMARK       I    between atoms: C31_31  and  O7_80 
REMARK       I    between atoms: C40_40  and  O9_82 
REMARK       I    between atoms: C41_41  and  O9_82 
REMARK       I    between atoms: C42_42  and  C43_43 
REMARK       I    between atoms: C43_43  and  O11_84 
REMARK       I    between atoms: C44_44  and  O12_85 
REMARK       I    between atoms: C45_45  and  O13_86 
REMARK       I    between atoms: C46_46  and  N7_73 
REMARK       I    between atoms: C47_47  and  N7_73 
REMARK       I    between atoms: C52_52  and  O15_88 
REMARK       I    between atoms: C56_56  and  O16_89 
REMARK       I    between atoms: C57_57  and  O16_89 
REMARK       I    between atoms: C58_58  and  C59_59 
REMARK       I    between atoms: C59_59  and  O18_91 
REMARK       I    between atoms: C60_60  and  O19_92 
REMARK       I    between atoms: C61_61  and  O20_93 
REMARK       I    between atoms: C62_62  and  O21_94 
REMARK       I    between atoms: C64_64  and  O22_95 
ROOT
HETATM    1  C1  UNL     1     -11.938   4.504   1.880  1.00  0.00     0.005 C 
HETATM    2  C2  UNL     1     -11.213   4.270   0.564  1.00  0.00    -0.005 C 
HETATM    3  C3  UNL     1     -11.845   3.173  -0.295  1.00  0.00    -0.000 C 
HETATM    4  C4  UNL     1     -11.903   1.781   0.344  1.00  0.00     0.000 C 
HETATM    5  C5  UNL     1     -10.558   1.201   0.795  1.00  0.00     0.000 C 
HETATM    6  C6  UNL     1      -9.555   1.039  -0.351  1.00  0.00     0.000 C 
HETATM    7  C7  UNL     1      -8.299   0.259   0.052  1.00  0.00     0.000 C 
HETATM    8  C8  UNL     1      -7.467   0.880   1.178  1.00  0.00     0.002 C 
HETATM    9  C9  UNL     1      -6.980   2.314   0.935  1.00  0.00     0.020 C 
HETATM   10  C10 UNL     1      -6.140   2.503  -0.329  1.00  0.00     0.122 C 
HETATM   11  C11 UNL     1      -3.807   2.027   0.356  1.00  0.00     0.245 C 
HETATM   12  C12 UNL     1      -2.724   0.903   0.378  1.00  0.00     0.211 C 
HETATM   13  C13 UNL     1      -0.794   2.184  -0.433  1.00  0.00     0.244 C 
HETATM   14  C14 UNL     1       0.746   2.108  -0.451  1.00  0.00     0.210 C 
HETATM   15  C15 UNL     1       1.654  -0.230  -0.381  1.00  0.00     0.241 C 
HETATM   16  C16 UNL     1       1.578  -1.612  -1.109  1.00  0.00     0.188 C 
HETATM   17  C17 UNL     1       3.810  -2.460  -0.717  1.00  0.00     0.236 C 
HETATM   18  C18 UNL     1       4.756  -2.703   0.500  1.00  0.00     0.336 C 
HETATM   19  C19 UNL     1       5.956  -1.767   0.476  1.00  0.00    -0.011 A 
HETATM   20  C20 UNL     1       7.261  -2.274   0.534  1.00  0.00     0.050 A 
HETATM   21  C21 UNL     1       8.362  -1.411   0.470  1.00  0.00     0.112 A 
HETATM   22  C22 UNL     1      10.483  -1.561   1.480  1.00  0.00     0.098 A 
HETATM   23  C23 UNL     1      10.081  -1.367   2.806  1.00  0.00     0.039 A 
HETATM   24  C24 UNL     1      11.010  -0.962   3.769  1.00  0.00     0.010 A 
HETATM   25  C25 UNL     1      12.353  -0.762   3.424  1.00  0.00    -0.054 A 
HETATM   26  C26 UNL     1      13.360  -0.332   4.469  1.00  0.00     0.076 C 
HETATM   27  C27 UNL     1      14.042  -1.475   5.260  1.00  0.00     0.245 C 
HETATM   28  C28 UNL     1      14.881  -2.416   4.370  1.00  0.00     0.199 C 
HETATM   29  C29 UNL     1      12.752  -0.971   2.096  1.00  0.00     0.033 A 
HETATM   30  C30 UNL     1      11.825  -1.379   1.132  1.00  0.00     0.068 A 
HETATM   31  C31 UNL     1       8.171  -0.038   0.283  1.00  0.00     0.134 A 
HETATM   32  C32 UNL     1       6.878   0.488   0.219  1.00  0.00     0.112 A 
HETATM   33  C33 UNL     1       5.782  -0.374   0.365  1.00  0.00     0.050 A 
HETATM   34  C34 UNL     1       5.561   2.347  -0.401  1.00  0.00     0.098 A 
HETATM   35  C35 UNL     1       5.037   1.966  -1.639  1.00  0.00     0.040 A 
HETATM   36  C36 UNL     1       3.726   2.311  -1.968  1.00  0.00     0.012 A 
HETATM   37  C37 UNL     1       2.940   3.078  -1.088  1.00  0.00    -0.025 A 
HETATM   38  C38 UNL     1       3.530   3.566   0.092  1.00  0.00     0.036 A 
HETATM   39  C39 UNL     1       4.834   3.196   0.436  1.00  0.00     0.068 A 
HETATM   40  C40 UNL     1       1.428   3.221  -1.287  1.00  0.00     0.189 C 
HETATM   41  C41 UNL     1       1.235   4.039  -3.556  1.00  0.00     0.286 C 
HETATM   42  C42 UNL     1      -0.827   5.229  -3.573  1.00  0.00     0.179 C 
HETATM   43  C43 UNL     1      -1.572   6.324  -2.812  1.00  0.00     0.198 C 
HETATM   44  C44 UNL     1      -0.893   5.382  -5.109  1.00  0.00     0.180 C 
HETATM   45  C45 UNL     1       0.369   4.793  -5.771  1.00  0.00     0.177 C 
HETATM   46  C46 UNL     1       0.862   3.556  -5.005  1.00  0.00     0.170 C 
HETATM   47  C47 UNL     1      -0.019   1.199  -4.674  1.00  0.00     0.214 C 
HETATM   48  C48 UNL     1      -1.185   0.309  -5.023  1.00  0.00     0.117 C 
HETATM   49  C49 UNL     1       0.127  -2.074  -1.094  1.00  0.00    -0.030 A 
HETATM   50  C50 UNL     1      -0.505  -2.485  -2.272  1.00  0.00     0.012 A 
HETATM   51  C51 UNL     1      -1.891  -2.666  -2.300  1.00  0.00     0.038 A 
HETATM   52  C52 UNL     1      -2.651  -2.412  -1.160  1.00  0.00     0.076 A 
HETATM   53  C53 UNL     1      -2.049  -2.007   0.034  1.00  0.00     0.011 A 
HETATM   54  C54 UNL     1      -0.650  -1.917   0.068  1.00  0.00     0.024 A 
HETATM   55  C55 UNL     1      -2.801  -1.552   1.215  1.00  0.00     0.019 A 
HETATM   56  C56 UNL     1      -3.196  -2.481   2.201  1.00  0.00     0.086 A 
HETATM   57  C57 UNL     1      -4.124  -4.612   1.905  1.00  0.00     0.298 C 
HETATM   58  C58 UNL     1      -4.244  -5.948  -0.119  1.00  0.00     0.179 C 
HETATM   59  C59 UNL     1      -4.413  -5.798  -1.638  1.00  0.00     0.198 C 
HETATM   60  C60 UNL     1      -2.833  -6.420   0.255  1.00  0.00     0.180 C 
HETATM   61  C61 UNL     1      -2.808  -6.787   1.748  1.00  0.00     0.183 C 
HETATM   62  C62 UNL     1      -3.803  -5.963   2.586  1.00  0.00     0.205 C 
HETATM   63  C63 UNL     1      -3.749  -2.066   3.414  1.00  0.00     0.074 A 
HETATM   64  C64 UNL     1      -3.949  -0.712   3.635  1.00  0.00     0.069 A 
HETATM   65  C65 UNL     1      -3.612   0.227   2.667  1.00  0.00     0.047 A 
HETATM   66  C66 UNL     1      -3.059  -0.168   1.432  1.00  0.00    -0.010 A 
HETATM   67  N1  UNL     1      -4.957   1.671  -0.335  1.00  0.00    -0.359 N 
HETATM   68  N2  UNL     1      -1.370   1.413   0.575  1.00  0.00    -0.342 N 
HETATM   69  N3  UNL     1       1.017   0.787  -1.040  1.00  0.00    -0.343 N 
HETATM   70  N4  UNL     1       2.460  -2.521  -0.400  1.00  0.00    -0.243 NA
HETATM   71  N5  UNL     1       3.999  -2.545   1.770  1.00  0.00     0.096 N 
HETATM   72  N6  UNL     1      13.075  -2.230   6.078  1.00  0.00     0.085 N 
HETATM   73  N7  UNL     1      -0.172   2.494  -5.119  1.00  0.00    -0.349 N 
HETATM   74  O1  UNL     1      -3.693   3.099   0.948  1.00  0.00    -0.271 OA
HETATM   75  O2  UNL     1      -1.469   2.757  -1.285  1.00  0.00    -0.271 OA
HETATM   76  O3  UNL     1       2.121  -0.093   0.752  1.00  0.00    -0.271 OA
HETATM   77  O4  UNL     1       4.211  -2.196  -1.848  1.00  0.00    -0.277 OA
HETATM   78  O5  UNL     1       9.606  -2.002   0.510  1.00  0.00    -0.306 OA
HETATM   79  O6  UNL     1      15.867  -1.684   3.650  1.00  0.00    -0.399 OA
HETATM   80  O7  UNL     1       9.251   0.793   0.140  1.00  0.00    -0.356 OA
HETATM   81  O8  UNL     1       6.781   1.856   0.011  1.00  0.00    -0.306 OA
HETATM   82  O9  UNL     1       1.049   2.985  -2.639  1.00  0.00    -0.347 OA
HETATM   83  O10 UNL     1       0.535   5.219  -3.143  1.00  0.00    -0.349 OA
HETATM   84  O11 UNL     1      -2.918   6.431  -3.264  1.00  0.00    -0.398 OA
HETATM   85  O12 UNL     1      -1.009   6.739  -5.559  1.00  0.00    -0.390 OA
HETATM   86  O13 UNL     1       0.059   4.448  -7.133  1.00  0.00    -0.391 OA
HETATM   87  O14 UNL     1       0.931   0.767  -4.028  1.00  0.00    -0.274 OA
HETATM   88  O15 UNL     1      -4.007  -2.545  -1.269  1.00  0.00    -0.360 OA
HETATM   89  O16 UNL     1      -2.928  -3.814   1.996  1.00  0.00    -0.317 OA
HETATM   90  O17 UNL     1      -4.534  -4.695   0.525  1.00  0.00    -0.348 OA
HETATM   91  O18 UNL     1      -4.390  -7.059  -2.299  1.00  0.00    -0.398 OA
HETATM   92  O19 UNL     1      -2.410  -7.548  -0.520  1.00  0.00    -0.390 OA
HETATM   93  O20 UNL     1      -1.468  -6.643   2.239  1.00  0.00    -0.390 OA
HETATM   94  O21 UNL     1      -5.016  -6.702   2.784  1.00  0.00    -0.388 OA
HETATM   95  O22 UNL     1      -4.478  -0.251   4.803  1.00  0.00    -0.361 OA
HETATM   96 CL1  UNL     1      12.386  -1.653  -0.479  1.00  0.00    -0.081 Cl
HETATM   97 CL2  UNL     1       5.475   3.734   1.944  1.00  0.00    -0.081 Cl
HETATM   98  H62 UNL     1      -5.034   0.731  -0.707  1.00  0.00     0.162 HD
HETATM   99  H63 UNL     1      -0.733   0.806   1.073  1.00  0.00     0.163 HD
HETATM  100  H64 UNL     1       0.846   0.709  -2.048  1.00  0.00     0.163 HD
HETATM  101  H65 UNL     1       2.316  -2.587   0.606  1.00  0.00     0.131 HD
HETATM  102  H66 UNL     1       3.724  -1.560   1.850  1.00  0.00     0.314 HD
HETATM  103  H67 UNL     1       4.655  -2.695   2.538  1.00  0.00     0.314 HD
HETATM  104  H68 UNL     1      12.428  -2.722   5.460  1.00  0.00     0.313 HD
HETATM  105  H69 UNL     1      13.565  -2.951   6.607  1.00  0.00     0.313 HD
HETATM  106  H70 UNL     1      -0.748   2.594  -5.949  1.00  0.00     0.163 HD
HETATM  107  H71 UNL     1      16.360  -2.327   3.110  1.00  0.00     0.209 HD
HETATM  108  H72 UNL     1       8.902   1.695   0.023  1.00  0.00     0.218 HD
HETATM  109  H73 UNL     1      -3.430   5.776  -2.751  1.00  0.00     0.209 HD
HETATM  110  H74 UNL     1      -1.836   7.088  -5.166  1.00  0.00     0.210 HD
HETATM  111  H75 UNL     1      -0.245   5.283  -7.542  1.00  0.00     0.210 HD
HETATM  112  H76 UNL     1      -4.319  -2.989  -0.453  1.00  0.00     0.217 HD
HETATM  113  H77 UNL     1      -3.592  -7.527  -1.970  1.00  0.00     0.209 HD
HETATM  114  H78 UNL     1      -1.550  -7.829  -0.145  1.00  0.00     0.210 HD
HETATM  115  H79 UNL     1      -1.218  -5.701   2.176  1.00  0.00     0.210 HD
HETATM  116  H80 UNL     1      -4.793  -7.508   3.286  1.00  0.00     0.210 HD
HETATM  117  H81 UNL     1      -4.652  -0.996   5.400  1.00  0.00     0.217 HD
ENDROOT
TORSDOF 35
