REMARK  0 active torsions:
REMARK  status: ('A' for Active; 'I' for Inactive)
REMARK       I    between atoms: C2_2  and  C3_3 
REMARK       I    between atoms: C3_3  and  C5_5 
REMARK       I    between atoms: C5_5  and  C6_6 
REMARK       I    between atoms: C5_5  and  N5_69 
REMARK       I    between atoms: C6_6  and  C7_7 
REMARK       I    between atoms: C6_6  and  O5_59 
REMARK       I    between atoms: C7_7  and  C8_8 
REMARK       I    between atoms: C8_8  and  N1_65 
REMARK       I    between atoms: C12_12  and  C13_13 
REMARK       I    between atoms: C13_13  and  C14_14 
REMARK       I    between atoms: C13_13  and  O4_58 
REMARK       I    between atoms: C14_14  and  C16_16 
REMARK       I    between atoms: C16_16  and  N2_66 
REMARK       I    between atoms: C17_17  and  C18_18 
REMARK       I    between atoms: C17_17  and  C27_27 
REMARK       I    between atoms: C17_17  and  N2_66 
REMARK       I    between atoms: C18_18  and  C19_19 
REMARK       I    between atoms: C27_27  and  N4_68 
REMARK       I    between atoms: C31_31  and  C32_32 
REMARK       I    between atoms: C31_31  and  N5_69 
REMARK       I    between atoms: C32_32  and  C33_33 
REMARK       I    between atoms: C32_32  and  N6_70 
REMARK       I    between atoms: C36_36  and  C37_37 
REMARK       I    between atoms: C36_36  and  N6_70 
REMARK       I    between atoms: C37_37  and  C38_38 
REMARK       I    between atoms: C37_37  and  N7_71 
REMARK       I    between atoms: C42_42  and  C43_43 
REMARK       I    between atoms: C42_42  and  N7_71 
REMARK       I    between atoms: C43_43  and  C44_44 
REMARK       I    between atoms: C44_44  and  C45_45 
REMARK       I    between atoms: C45_45  and  C46_46 
REMARK       I    between atoms: C46_46  and  C47_47 
REMARK       I    between atoms: C47_47  and  N8_72 
REMARK       I    between atoms: C50_50  and  C52_52 
REMARK       I    between atoms: C52_52  and  C53_53 
REMARK       I    between atoms: C53_53  and  C54_54 
REMARK       I    between atoms: C53_53  and  N9_73 
REMARK       I    between atoms: C54_54  and  S1_74 
ROOT
HETATM    1  C1  UNL     1       3.614  -3.845   3.432  1.00  0.00     0.005 C 
HETATM    2  C2  UNL     1       2.496  -2.828   3.625  1.00  0.00     0.002 C 
HETATM    3  C3  UNL     1       2.746  -1.477   2.901  1.00  0.00     0.006 C 
HETATM    4  C4  UNL     1       3.907  -0.741   3.590  1.00  0.00     0.012 C 
HETATM    5  C5  UNL     1       1.442  -0.605   2.885  1.00  0.00     0.119 C 
HETATM    6  C6  UNL     1       1.599   0.858   2.309  1.00  0.00     0.152 C 
HETATM    7  C7  UNL     1       1.633   1.017   0.790  1.00  0.00     0.137 C 
HETATM    8  C8  UNL     1       2.850   0.426   0.116  1.00  0.00     0.222 C 
HETATM    9  C9  UNL     1       4.273   2.412   0.777  1.00  0.00     0.126 C 
HETATM   10  C10 UNL     1       5.450   2.933  -0.028  1.00  0.00     0.022 C 
HETATM   11  C11 UNL     1       6.302   1.686  -0.202  1.00  0.00     0.029 C 
HETATM   12  C12 UNL     1       5.265   0.575  -0.446  1.00  0.00     0.117 C 
HETATM   13  C13 UNL     1       5.733  -0.857  -0.032  1.00  0.00     0.156 C 
HETATM   14  C14 UNL     1       6.343  -1.688  -1.189  1.00  0.00     0.105 C 
HETATM   15  C15 UNL     1       5.306  -2.083  -2.247  1.00  0.00     0.022 C 
HETATM   16  C16 UNL     1       7.606  -1.081  -1.791  1.00  0.00     0.224 C 
HETATM   17  C17 UNL     1       8.611   0.267  -3.616  1.00  0.00     0.180 C 
HETATM   18  C18 UNL     1       8.254   0.583  -5.075  1.00  0.00     0.075 C 
HETATM   19  C19 UNL     1       9.459   0.848  -5.924  1.00  0.00    -0.028 A 
HETATM   20  C20 UNL     1       9.980   2.088  -6.236  1.00  0.00     0.096 A 
HETATM   21  C21 UNL     1      11.300   0.565  -7.236  1.00  0.00     0.042 A 
HETATM   22  C22 UNL     1      12.302  -0.082  -7.969  1.00  0.00     0.030 A 
HETATM   23  C23 UNL     1      12.277  -1.479  -8.009  1.00  0.00     0.002 A 
HETATM   24  C24 UNL     1      11.288  -2.198  -7.343  1.00  0.00     0.001 A 
HETATM   25  C25 UNL     1      10.293  -1.535  -6.614  1.00  0.00     0.014 A 
HETATM   26  C26 UNL     1      10.295  -0.126  -6.558  1.00  0.00    -0.002 A 
HETATM   27  C27 UNL     1       9.037   1.537  -2.858  1.00  0.00     0.238 C 
HETATM   28  C28 UNL     1       6.944  -1.983   1.727  1.00  0.00     0.202 C 
HETATM   29  C29 UNL     1       0.799   2.990   3.084  1.00  0.00     0.202 C 
HETATM   30  C30 UNL     1       0.331  -2.025   1.074  1.00  0.00     0.153 C 
HETATM   31  C31 UNL     1      -1.067  -1.029   2.763  1.00  0.00     0.243 C 
HETATM   32  C32 UNL     1      -1.328  -0.599   4.240  1.00  0.00     0.180 C 
HETATM   33  C33 UNL     1      -0.916  -1.646   5.313  1.00  0.00     0.009 C 
HETATM   34  C34 UNL     1      -1.358  -1.252   6.725  1.00  0.00     0.012 C 
HETATM   35  C35 UNL     1      -1.264  -3.108   5.018  1.00  0.00     0.012 C 
HETATM   36  C36 UNL     1      -3.859  -0.667   4.432  1.00  0.00     0.252 C 
HETATM   37  C37 UNL     1      -5.110   0.239   4.182  1.00  0.00     0.316 C 
HETATM   38  C38 UNL     1      -5.707   0.695   5.549  1.00  0.00     0.020 C 
HETATM   39  C39 UNL     1      -4.699   1.491   6.388  1.00  0.00     0.012 C 
HETATM   40  C40 UNL     1      -6.281  -0.455   6.384  1.00  0.00     0.012 C 
HETATM   41  C41 UNL     1      -5.452  -0.896   2.031  1.00  0.00     0.310 C 
HETATM   42  C42 UNL     1      -7.320   0.301   3.004  1.00  0.00     0.273 C 
HETATM   43  C43 UNL     1      -7.151   1.668   2.322  1.00  0.00     0.030 C 
HETATM   44  C44 UNL     1      -8.479   2.403   2.107  1.00  0.00     0.002 C 
HETATM   45  C45 UNL     1      -9.503   1.696   1.214  1.00  0.00     0.002 C 
HETATM   46  C46 UNL     1      -8.979   1.393  -0.191  1.00  0.00     0.020 C 
HETATM   47  C47 UNL     1     -10.088   0.839  -1.089  1.00  0.00     0.135 C 
HETATM   48  C48 UNL     1      -9.065  -0.669  -2.769  1.00  0.00     0.227 A 
HETATM   49  C49 UNL     1      -8.579  -0.604  -4.185  1.00  0.00     0.125 A 
HETATM   50  C50 UNL     1      -8.915   0.815  -4.641  1.00  0.00     0.159 A 
HETATM   51  C51 UNL     1      -9.487   1.464  -3.415  1.00  0.00     0.238 A 
HETATM   52  C52 UNL     1      -9.872   0.877  -5.822  1.00  0.00     0.174 C 
HETATM   53  C53 UNL     1     -10.334   2.261  -6.324  1.00  0.00     0.296 C 
HETATM   54  C54 UNL     1     -10.836   2.142  -7.776  1.00  0.00     0.114 C 
HETATM   55  O1  UNL     1       2.741  -0.598  -0.562  1.00  0.00    -0.273 OA
HETATM   56  O2  UNL     1       8.716  -1.276  -1.294  1.00  0.00    -0.273 OA
HETATM   57  O3  UNL     1       8.590   2.660  -3.074  1.00  0.00    -0.271 OA
HETATM   58  O4  UNL     1       6.605  -0.750   1.109  1.00  0.00    -0.388 OA
HETATM   59  O5  UNL     1       0.477   1.632   2.806  1.00  0.00    -0.388 OA
HETATM   60  O6  UNL     1      -2.009  -1.138   1.967  1.00  0.00    -0.271 OA
HETATM   61  O7  UNL     1      -3.941  -1.855   4.722  1.00  0.00    -0.271 OA
HETATM   62  O8  UNL     1      -8.964  -1.652  -2.052  1.00  0.00    -0.273 OA
HETATM   63  O9  UNL     1      -9.807   2.643  -3.341  1.00  0.00    -0.272 OA
HETATM   64  O10 UNL     1     -10.302  -0.157  -6.342  1.00  0.00    -0.295 OA
HETATM   65  N1  UNL     1       4.067   1.057   0.279  1.00  0.00    -0.345 N 
HETATM   66  N2  UNL     1       7.450  -0.299  -2.911  1.00  0.00    -0.347 N 
HETATM   67  N3  UNL     1      11.083   1.906  -7.024  1.00  0.00    -0.365 N 
HETATM   68  N4  UNL     1       9.868   1.309  -1.792  1.00  0.00    -0.368 N 
HETATM   69  N5  UNL     1       0.243  -1.330   2.358  1.00  0.00    -0.347 N 
HETATM   70  N6  UNL     1      -2.660   0.019   4.333  1.00  0.00    -0.346 N 
HETATM   71  N7  UNL     1      -6.083  -0.446   3.279  1.00  0.00     0.098 N 
HETATM   72  N8  UNL     1      -9.592   0.539  -2.420  1.00  0.00    -0.288 N 
HETATM   73  N9  UNL     1      -9.232   3.241  -6.210  1.00  0.00     0.090 N 
HETATM   74  S1  UNL     1     -11.441   3.739  -8.428  1.00  0.00    -0.180 SA
HETATM   75  H80 UNL     1       6.545   0.099  -3.123  1.00  0.00     0.163 HD
HETATM   76  H81 UNL     1      11.663   2.646  -7.395  1.00  0.00     0.165 HD
HETATM   77  H82 UNL     1       9.861   0.377  -1.376  1.00  0.00     0.159 HD
HETATM   78  H83 UNL     1      10.021   2.085  -1.164  1.00  0.00     0.159 HD
HETATM   79  H84 UNL     1      -2.720   0.877   3.802  1.00  0.00     0.163 HD
HETATM   80  H85 UNL     1      -9.496   4.065  -6.759  1.00  0.00     0.313 HD
HETATM   81  H86 UNL     1      -9.216   3.583  -5.241  1.00  0.00     0.313 HD
HETATM   82  H87 UNL     1     -11.768   3.284  -9.648  1.00  0.00     0.101 HD
ENDROOT
TORSDOF 33
