REMARK  0 active torsions:
REMARK  status: ('A' for Active; 'I' for Inactive)
REMARK       I    between atoms: C2_2  and  O1_60 
REMARK       I    between atoms: C3_3  and  C14_14 
REMARK       I    between atoms: C5_5  and  N1_75 
REMARK       I    between atoms: C8_8  and  C9_9 
REMARK       I    between atoms: C8_8  and  N1_75 
REMARK       I    between atoms: C9_9  and  C10_10 
REMARK       I    between atoms: C9_9  and  N5_80 
REMARK       I    between atoms: C10_10  and  C11_11 
REMARK       I    between atoms: C11_11  and  C12_12 
REMARK       I    between atoms: C12_12  and  N2_76 
REMARK       I    between atoms: C13_13  and  N2_76 
REMARK       I    between atoms: C13_13  and  N3_77 
REMARK       I    between atoms: C13_13  and  N4_79 
REMARK       I    between atoms: C14_14  and  N6_81 
REMARK       I    between atoms: C15_15  and  C16_16 
REMARK       I    between atoms: C15_15  and  C20_20 
REMARK       I    between atoms: C15_15  and  N6_81 
REMARK       I    between atoms: C16_16  and  C17_17 
REMARK       I    between atoms: C17_17  and  C18_18 
REMARK       I    between atoms: C18_18  and  N7_82 
REMARK       I    between atoms: C19_19  and  N7_82 
REMARK       I    between atoms: C19_19  and  N8_83 
REMARK       I    between atoms: C19_19  and  N9_85 
REMARK       I    between atoms: C20_20  and  N10_86 
REMARK       I    between atoms: C21_21  and  N10_86 
REMARK       I    between atoms: C23_23  and  C28_28 
REMARK       I    between atoms: C24_24  and  O5_64 
REMARK       I    between atoms: C28_28  and  N11_87 
REMARK       I    between atoms: C29_29  and  C30_30 
REMARK       I    between atoms: C29_29  and  C34_34 
REMARK       I    between atoms: C29_29  and  N11_87 
REMARK       I    between atoms: C30_30  and  C31_31 
REMARK       I    between atoms: C31_31  and  C32_32 
REMARK       I    between atoms: C32_32  and  N12_88 
REMARK       I    between atoms: C33_33  and  N12_88 
REMARK       I    between atoms: C33_33  and  N13_89 
REMARK       I    between atoms: C33_33  and  N14_91 
REMARK       I    between atoms: C34_34  and  N15_92 
REMARK       I    between atoms: C35_35  and  N15_92 
REMARK       I    between atoms: C37_37  and  C43_43 
REMARK       I    between atoms: C38_38  and  O8_67 
REMARK       I    between atoms: C41_41  and  C42_42 
REMARK       I    between atoms: C41_41  and  O8_67 
REMARK       I    between atoms: C42_42  and  O10_69 
REMARK       I    between atoms: C43_43  and  N16_93 
REMARK       I    between atoms: C44_44  and  C45_45 
REMARK       I    between atoms: C44_44  and  C49_49 
REMARK       I    between atoms: C44_44  and  N16_93 
REMARK       I    between atoms: C45_45  and  C46_46 
REMARK       I    between atoms: C46_46  and  C47_47 
REMARK       I    between atoms: C47_47  and  N17_94 
REMARK       I    between atoms: C48_48  and  N17_94 
REMARK       I    between atoms: C48_48  and  N19_97 
REMARK       I    between atoms: C49_49  and  N20_98 
REMARK       I    between atoms: C50_50  and  N20_98 
REMARK       I    between atoms: C52_52  and  C57_57 
REMARK       I    between atoms: C53_53  and  O13_72 
REMARK       I    between atoms: C57_57  and  N21_99 
REMARK       I    between atoms: C58_58  and  C59_59 
REMARK       I    between atoms: C58_58  and  N21_99 
REMARK       I    between atoms: C59_59  and  N22_100 
ROOT
HETATM    1  C1  UNL     1       8.356  -3.844  -2.999  1.00  0.00     0.210 C 
HETATM    2  C2  UNL     1       9.430  -1.869  -2.460  1.00  0.00     0.084 A 
HETATM    3  C3  UNL     1       8.927  -0.795  -1.713  1.00  0.00     0.067 A 
HETATM    4  C4  UNL     1       9.218   0.516  -2.138  1.00  0.00     0.049 A 
HETATM    5  C5  UNL     1      10.008   0.763  -3.268  1.00  0.00     0.035 A 
HETATM    6  C6  UNL     1      10.519  -0.321  -3.980  1.00  0.00     0.032 A 
HETATM    7  C7  UNL     1      10.238  -1.628  -3.575  1.00  0.00     0.040 A 
HETATM    8  C8  UNL     1      10.975   2.603  -4.679  1.00  0.00     0.255 C 
HETATM    9  C9  UNL     1      11.000   4.155  -4.683  1.00  0.00     0.309 C 
HETATM   10  C10 UNL     1      11.500   4.759  -6.005  1.00  0.00     0.047 C 
HETATM   11  C11 UNL     1      10.436   4.861  -7.111  1.00  0.00     0.022 C 
HETATM   12  C12 UNL     1       9.857   3.548  -7.637  1.00  0.00     0.122 C 
HETATM   13  C13 UNL     1      11.623   2.844  -9.236  1.00  0.00     0.143 C 
HETATM   14  C14 UNL     1       8.079  -0.929  -0.486  1.00  0.00     0.255 C 
HETATM   15  C15 UNL     1       7.404  -2.469   1.391  1.00  0.00     0.177 C 
HETATM   16  C16 UNL     1       8.304  -1.801   2.444  1.00  0.00     0.036 C 
HETATM   17  C17 UNL     1       8.518  -2.648   3.706  1.00  0.00     0.022 C 
HETATM   18  C18 UNL     1       9.234  -3.986   3.493  1.00  0.00     0.122 C 
HETATM   19  C19 UNL     1      10.869  -3.872   1.641  1.00  0.00     0.143 C 
HETATM   20  C20 UNL     1       5.909  -2.185   1.688  1.00  0.00     0.245 C 
HETATM   21  C21 UNL     1       4.107  -0.518   1.266  1.00  0.00     0.035 A 
HETATM   22  C22 UNL     1       3.048  -1.286   1.731  1.00  0.00     0.049 A 
HETATM   23  C23 UNL     1       1.803  -0.699   1.989  1.00  0.00     0.067 A 
HETATM   24  C24 UNL     1       1.576   0.657   1.719  1.00  0.00     0.084 A 
HETATM   25  C25 UNL     1       2.623   1.408   1.176  1.00  0.00     0.040 A 
HETATM   26  C26 UNL     1       3.879   0.823   0.952  1.00  0.00     0.032 A 
HETATM   27  C27 UNL     1       0.008   2.445   1.535  1.00  0.00     0.210 C 
HETATM   28  C28 UNL     1       0.812  -1.585   2.638  1.00  0.00     0.255 C 
HETATM   29  C29 UNL     1      -0.640  -1.894   4.620  1.00  0.00     0.177 C 
HETATM   30  C30 UNL     1      -0.532  -1.462   6.088  1.00  0.00     0.036 C 
HETATM   31  C31 UNL     1       0.642  -2.089   6.861  1.00  0.00     0.022 C 
HETATM   32  C32 UNL     1       2.044  -1.673   6.406  1.00  0.00     0.122 C 
HETATM   33  C33 UNL     1       2.971  -3.713   5.395  1.00  0.00     0.143 C 
HETATM   34  C34 UNL     1      -2.081  -1.758   4.068  1.00  0.00     0.245 C 
HETATM   35  C35 UNL     1      -3.350  -2.436   2.002  1.00  0.00     0.035 A 
HETATM   36  C36 UNL     1      -4.584  -1.856   2.307  1.00  0.00     0.049 A 
HETATM   37  C37 UNL     1      -5.674  -1.952   1.418  1.00  0.00     0.067 A 
HETATM   38  C38 UNL     1      -5.509  -2.671   0.221  1.00  0.00     0.085 A 
HETATM   39  C39 UNL     1      -4.269  -3.231  -0.100  1.00  0.00     0.040 A 
HETATM   40  C40 UNL     1      -3.200  -3.117   0.789  1.00  0.00     0.032 A 
HETATM   41  C41 UNL     1      -6.917  -4.122  -0.959  1.00  0.00     0.285 C 
HETATM   42  C42 UNL     1      -8.429  -4.255  -1.066  1.00  0.00     0.164 C 
HETATM   43  C43 UNL     1      -6.958  -1.290   1.838  1.00  0.00     0.255 C 
HETATM   44  C44 UNL     1      -9.238  -0.557   1.073  1.00  0.00     0.177 C 
HETATM   45  C45 UNL     1      -9.950  -0.694   2.430  1.00  0.00     0.036 C 
HETATM   46  C46 UNL     1     -10.163  -2.132   2.928  1.00  0.00     0.022 C 
HETATM   47  C47 UNL     1     -10.745  -3.095   1.896  1.00  0.00     0.122 C 
HETATM   48  C48 UNL     1     -12.381  -2.741   0.074  1.00  0.00     0.143 C 
HETATM   49  C49 UNL     1      -9.037   0.928   0.658  1.00  0.00     0.245 C 
HETATM   50  C50 UNL     1     -10.434   2.972   0.224  1.00  0.00     0.035 A 
HETATM   51  C51 UNL     1     -11.750   3.411   0.053  1.00  0.00     0.049 A 
HETATM   52  C52 UNL     1     -12.045   4.756  -0.249  1.00  0.00     0.067 A 
HETATM   53  C53 UNL     1     -10.993   5.683  -0.386  1.00  0.00     0.084 A 
HETATM   54  C54 UNL     1      -9.678   5.237  -0.204  1.00  0.00     0.040 A 
HETATM   55  C55 UNL     1      -9.403   3.896   0.098  1.00  0.00     0.032 A 
HETATM   56  C56 UNL     1     -10.242   7.894  -0.918  1.00  0.00     0.210 C 
HETATM   57  C57 UNL     1     -13.500   5.084  -0.406  1.00  0.00     0.254 C 
HETATM   58  C58 UNL     1     -15.233   6.852  -0.638  1.00  0.00     0.225 C 
HETATM   59  C59 UNL     1     -15.841   6.734  -2.039  1.00  0.00     0.233 C 
HETATM   60  O1  UNL     1       9.215  -3.167  -2.076  1.00  0.00    -0.355 OA
HETATM   61  O2  UNL     1      11.567   1.933  -5.519  1.00  0.00    -0.271 OA
HETATM   62  O3  UNL     1       7.582   0.070   0.031  1.00  0.00    -0.268 OA
HETATM   63  O4  UNL     1       5.299  -2.877   2.509  1.00  0.00    -0.271 OA
HETATM   64  O5  UNL     1       0.340   1.153   2.030  1.00  0.00    -0.355 OA
HETATM   65  O6  UNL     1       0.618  -2.723   2.224  1.00  0.00    -0.268 OA
HETATM   66  O7  UNL     1      -2.956  -1.146   4.672  1.00  0.00    -0.271 OA
HETATM   67  O8  UNL     1      -6.534  -2.770  -0.683  1.00  0.00    -0.340 OA
HETATM   68  O9  UNL     1      -9.048  -5.299  -0.925  1.00  0.00    -0.648 OA
HETATM   69  O10 UNL     1      -9.051  -3.089  -1.337  1.00  0.00    -0.775 OA
HETATM   70  O11 UNL     1      -7.055  -0.777   2.948  1.00  0.00    -0.268 OA
HETATM   71  O12 UNL     1      -7.929   1.406   0.422  1.00  0.00    -0.271 OA
HETATM   72  O13 UNL     1     -11.312   6.982  -0.689  1.00  0.00    -0.355 OA
HETATM   73  O14 UNL     1     -14.343   4.189  -0.439  1.00  0.00    -0.268 OA
HETATM   74  O15 UNL     1     -16.699   7.504  -2.463  1.00  0.00    -0.272 OA
HETATM   75  N1  UNL     1      10.240   2.111  -3.607  1.00  0.00    -0.325 N 
HETATM   76  N2  UNL     1      10.884   2.652  -8.123  1.00  0.00    -0.367 N 
HETATM   77  N3  UNL     1      11.391   3.629 -10.221  1.00  0.00    -0.376 N 
ATOM     78  H3  UNL     1      11.987   3.740 -11.041  1.00  0.00     0.158 HD
HETATM   79  N4  UNL     1      12.719   2.064  -9.254  1.00  0.00    -0.274 NA
HETATM   80  N5  UNL     1      11.899   4.593  -3.592  1.00  0.00     0.092 N 
HETATM   81  N6  UNL     1       7.872  -2.186   0.027  1.00  0.00    -0.344 N 
HETATM   82  N7  UNL     1      10.572  -3.809   2.957  1.00  0.00    -0.367 N 
HETATM   83  N8  UNL     1      10.046  -4.160   0.701  1.00  0.00    -0.376 N 
ATOM     84  H8  UNL     1       9.060  -4.386   0.831  1.00  0.00     0.158 HD
HETATM   85  N9  UNL     1      12.168  -3.595   1.417  1.00  0.00    -0.274 NA
HETATM   86  N10 UNL     1       5.408  -1.027   1.121  1.00  0.00    -0.325 N 
HETATM   87  N11 UNL     1       0.225  -1.080   3.770  1.00  0.00    -0.344 N 
HETATM   88  N12 UNL     1       2.507  -2.450   5.269  1.00  0.00    -0.367 N 
HETATM   89  N13 UNL     1       3.003  -4.396   6.480  1.00  0.00    -0.376 N 
ATOM     90  H13 UNL     1       2.720  -4.090   7.411  1.00  0.00     0.158 HD
HETATM   91  N14 UNL     1       3.357  -4.254   4.220  1.00  0.00    -0.274 NA
HETATM   92  N15 UNL     1      -2.218  -2.379   2.834  1.00  0.00    -0.325 N 
HETATM   93  N16 UNL     1      -7.997  -1.313   0.938  1.00  0.00    -0.344 N 
HETATM   94  N17 UNL     1     -11.987  -2.575   1.354  1.00  0.00    -0.367 N 
HETATM   95  N18 UNL     1     -11.606  -3.057  -0.904  1.00  0.00    -0.376 N 
ATOM     96  H18 UNL     1     -10.607  -3.255  -0.840  1.00  0.00     0.158 HD
HETATM   97  N19 UNL     1     -13.689  -2.475  -0.101  1.00  0.00    -0.274 NA
HETATM   98  N20 UNL     1     -10.243   1.610   0.533  1.00  0.00    -0.325 N 
HETATM   99  N21 UNL     1     -13.854   6.402  -0.546  1.00  0.00    -0.348 N 
HETATM  100  N22 UNL     1     -15.483   5.632  -2.764  1.00  0.00    -0.369 N 
HETATM  101  H54 UNL     1     -10.032  -3.237  -1.202  1.00  0.00     0.167 HD
HETATM  102  H55 UNL     1       9.812   2.804  -3.003  1.00  0.00     0.169 HD
HETATM  103  H56 UNL     1      11.413   2.219  -7.361  1.00  0.00     0.162 HD
HETATM  104  H57 UNL     1      10.516   4.126 -10.056  1.00  0.00     0.158 HD
HETATM  105  H58 UNL     1      13.151   2.114 -10.172  1.00  0.00     0.127 HD
HETATM  106  H59 UNL     1      12.523   1.105  -9.000  1.00  0.00     0.127 HD
HETATM  107  H60 UNL     1      11.739   4.043  -2.749  1.00  0.00     0.313 HD
HETATM  108  H61 UNL     1      12.865   4.393  -3.864  1.00  0.00     0.313 HD
HETATM  109  H62 UNL     1       8.508  -2.907  -0.315  1.00  0.00     0.163 HD
HETATM  110  H63 UNL     1      11.150  -3.173   3.493  1.00  0.00     0.162 HD
HETATM  111  H64 UNL     1      10.531  -4.128  -0.199  1.00  0.00     0.158 HD
HETATM  112  H65 UNL     1      12.774  -3.972   2.138  1.00  0.00     0.127 HD
HETATM  113  H66 UNL     1      12.506  -3.861   0.501  1.00  0.00     0.127 HD
HETATM  114  H67 UNL     1       6.106  -0.412   0.696  1.00  0.00     0.169 HD
HETATM  115  H68 UNL     1       0.193  -0.071   3.876  1.00  0.00     0.163 HD
HETATM  116  H69 UNL     1       2.995  -1.895   4.578  1.00  0.00     0.162 HD
HETATM  117  H70 UNL     1       3.373  -5.315   6.214  1.00  0.00     0.158 HD
HETATM  118  H71 UNL     1       4.122  -3.726   3.788  1.00  0.00     0.127 HD
HETATM  119  H72 UNL     1       2.606  -4.126   3.543  1.00  0.00     0.127 HD
HETATM  120  H73 UNL     1      -1.364  -2.805   2.470  1.00  0.00     0.169 HD
HETATM  121  H74 UNL     1      -7.763  -1.584  -0.013  1.00  0.00     0.163 HD
HETATM  122  H75 UNL     1     -12.707  -2.416   2.047  1.00  0.00     0.162 HD
HETATM  123  H76 UNL     1     -12.172  -3.074  -1.760  1.00  0.00     0.158 HD
HETATM  124  H77 UNL     1     -14.291  -2.755   0.663  1.00  0.00     0.127 HD
HETATM  125  H78 UNL     1     -14.084  -2.762  -0.988  1.00  0.00     0.127 HD
HETATM  126  H79 UNL     1     -11.085   1.051   0.612  1.00  0.00     0.169 HD
HETATM  127  H80 UNL     1     -13.112   7.090  -0.635  1.00  0.00     0.163 HD
HETATM  128  H81 UNL     1     -16.023   5.450  -3.598  1.00  0.00     0.159 HD
HETATM  129  H82 UNL     1     -15.133   4.825  -2.251  1.00  0.00     0.159 HD
ENDROOT
TORSDOF 41
