REMARK  8 active torsions:
REMARK  status: ('A' for Active; 'I' for Inactive)
REMARK    1  A    between atoms: C2_2  and  N1_26 
REMARK    2  A    between atoms: C3_3  and  C4_4 
REMARK       I    between atoms: C3_3  and  N1_26 
REMARK    3  A    between atoms: C9_9  and  N2_27 
REMARK    4  A    between atoms: C12_12  and  C13_13 
REMARK       I    between atoms: C12_12  and  N2_27 
REMARK    5  A    between atoms: C19_19  and  C21_21 
REMARK       I    between atoms: C21_21  and  N4_29 
REMARK    6  A    between atoms: C22_22  and  N4_29 
REMARK    7  A    between atoms: C22_22  and  N5_30 
REMARK       I    between atoms: C24_24  and  N6_32 
REMARK       I    between atoms: C24_24  and  N7_33 
REMARK       I    between atoms: C25_25  and  N9_36 
REMARK       I    between atoms: C25_25  and  N10_37 
REMARK    8  A    between atoms: N1_26  and  N8_34 
ROOT
HETATM    1  C12 UNL     1      -0.148  -0.204   1.129  1.00  0.00     0.272 C 
HETATM    2  N2  UNL     1       0.501  -0.210  -0.090  1.00  0.00    -0.322 N 
HETATM    3  O2  UNL     1       0.398  -0.189   2.227  1.00  0.00    -0.266 OA
HETATM    4  H18 UNL     1      -0.087  -0.245  -0.909  1.00  0.00     0.169 HD
ENDROOT
BRANCH   1   5
HETATM    5  C13 UNL     1      -1.599  -0.224   1.038  1.00  0.00     0.102 A 
HETATM    6  C14 UNL     1      -2.483  -0.221  -0.028  1.00  0.00     0.049 A 
HETATM    7  C15 UNL     1      -3.811  -0.249   0.487  1.00  0.00    -0.006 A 
HETATM    8  C16 UNL     1      -3.713  -0.269   1.875  1.00  0.00     0.043 A 
HETATM    9  C20 UNL     1      -5.088  -0.260  -0.105  1.00  0.00     0.030 A 
HETATM   10  C17 UNL     1      -4.831  -0.307   2.715  1.00  0.00     0.031 A 
HETATM   11  N3  UNL     1      -2.374  -0.252   2.180  1.00  0.00    -0.351 N 
HETATM   12  C18 UNL     1      -6.094  -0.318   2.110  1.00  0.00     0.019 A 
HETATM   13  C19 UNL     1      -6.227  -0.283   0.717  1.00  0.00     0.033 A 
HETATM   14  H19 UNL     1      -1.984  -0.260   3.115  1.00  0.00     0.166 HD
BRANCH  13  15
HETATM   15  C21 UNL     1      -7.563  -0.295   0.058  1.00  0.00     0.253 C 
HETATM   16  N4  UNL     1      -8.606   0.234   0.783  1.00  0.00    -0.336 N 
HETATM   17  H20 UNL     1      -8.395   0.855   1.550  1.00  0.00     0.164 HD
HETATM   18  O3  UNL     1      -7.686  -0.717  -1.089  1.00  0.00    -0.268 OA
BRANCH  16  19
HETATM   19  C22 UNL     1      -9.909   0.425   0.200  1.00  0.00     0.182 C 
HETATM   20  C23 UNL     1     -10.984   0.017   1.202  1.00  0.00     0.055 C 
BRANCH  19  21
HETATM   21  N5  UNL     1     -10.095   1.837  -0.091  1.00  0.00    -0.351 N 
HETATM   22  C24 UNL     1      -9.599   2.329  -1.161  1.00  0.00     0.123 C 
HETATM   23  N6  UNL     1      -8.806   1.780  -2.106  1.00  0.00    -0.279 NA
HETATM   24  N7  UNL     1      -9.828   3.626  -1.468  1.00  0.00    -0.279 NA
HETATM   25  H21 UNL     1      -8.617   0.781  -2.002  1.00  0.00     0.126 HD
HETATM   26  H22 UNL     1      -9.095   1.997  -3.052  1.00  0.00     0.126 HD
HETATM   27  H23 UNL     1      -8.987   4.098  -1.777  1.00  0.00     0.126 HD
HETATM   28  H24 UNL     1     -10.247   4.105  -0.678  1.00  0.00     0.126 HD
ATOM     29  H5  UNL     1     -10.617   2.430   0.554  1.00  0.00     0.163 HD
ENDBRANCH  19  21
ENDBRANCH  16  19
ENDBRANCH  13  15
ENDBRANCH   1   5
BRANCH   2  30
HETATM   30  C9  UNL     1       1.891  -0.186  -0.334  1.00  0.00     0.036 A 
HETATM   31  C8  UNL     1       2.860  -0.126   0.672  1.00  0.00     0.049 A 
HETATM   32  C7  UNL     1       4.227  -0.106   0.318  1.00  0.00     0.018 A 
HETATM   33  C6  UNL     1       4.642  -0.146  -1.013  1.00  0.00    -0.018 A 
HETATM   34  S1  UNL     1       5.572  -0.021   1.391  1.00  0.00    -0.084 SA
HETATM   35  C5  UNL     1       6.073  -0.117  -1.114  1.00  0.00     0.037 A 
HETATM   36  C11 UNL     1       3.651  -0.201  -2.017  1.00  0.00     0.015 A 
HETATM   37  C4  UNL     1       6.702  -0.079   0.114  1.00  0.00     0.076 A 
HETATM   38  C10 UNL     1       2.295  -0.221  -1.669  1.00  0.00     0.030 A 
BRANCH  37  39
HETATM   39  C3  UNL     1       8.126  -0.032   0.418  1.00  0.00     0.279 C 
HETATM   40  N1  UNL     1       8.952  -0.968  -0.249  1.00  0.00    -0.255 N 
HETATM   41  O1  UNL     1       8.576   0.830   1.178  1.00  0.00    -0.265 OA
BRANCH  40  42
HETATM   42  C2  UNL     1       8.456  -2.296  -0.646  1.00  0.00     0.148 C 
HETATM   43  C1  UNL     1       8.694  -2.573  -2.122  1.00  0.00     0.028 C 
ENDBRANCH  40  42
BRANCH  40  44
HETATM   44  N8  UNL     1      10.340  -0.940  -0.162  1.00  0.00    -0.276 N 
HETATM   45  C25 UNL     1      11.016   0.163  -0.204  1.00  0.00     0.141 C 
HETATM   46  N9  UNL     1      10.611   1.446  -0.349  1.00  0.00    -0.278 NA
HETATM   47  N10 UNL     1      12.371   0.091  -0.166  1.00  0.00    -0.278 NA
HETATM   48  H25 UNL     1       9.727   1.618   0.129  1.00  0.00     0.126 HD
HETATM   49  H26 UNL     1      11.289   2.143  -0.081  1.00  0.00     0.126 HD
HETATM   50  H27 UNL     1      12.802   0.725   0.491  1.00  0.00     0.126 HD
HETATM   51  H28 UNL     1      12.658  -0.864   0.027  1.00  0.00     0.126 HD
ATOM     52  H8  UNL     1      10.844  -1.821  -0.061  1.00  0.00     0.189 HD
ENDBRANCH  40  44
ENDBRANCH  37  39
ENDBRANCH   2  30
TORSDOF 8
