REMARK  0 active torsions:
REMARK  status: ('A' for Active; 'I' for Inactive)
REMARK       I    between atoms: C2_2  and  C3_3 
REMARK       I    between atoms: C2_2  and  N13_81 
REMARK       I    between atoms: C3_3  and  N1_67 
REMARK       I    between atoms: C4_4  and  C5_5 
REMARK       I    between atoms: C4_4  and  C9_9 
REMARK       I    between atoms: C4_4  and  N1_67 
REMARK       I    between atoms: C5_5  and  C6_6 
REMARK       I    between atoms: C9_9  and  N4_71 
REMARK       I    between atoms: C10_10  and  C11_11 
REMARK       I    between atoms: C10_10  and  C15_15 
REMARK       I    between atoms: C10_10  and  N4_71 
REMARK       I    between atoms: C11_11  and  C12_12 
REMARK       I    between atoms: C12_12  and  C13_13 
REMARK       I    between atoms: C13_13  and  C14_14 
REMARK       I    between atoms: C14_14  and  N5_72 
REMARK       I    between atoms: C15_15  and  C16_16 
REMARK       I    between atoms: C16_16  and  C17_17 
REMARK       I    between atoms: C17_17  and  C18_18 
REMARK       I    between atoms: C18_18  and  C23_23 
REMARK       I    between atoms: C19_19  and  C20_20 
REMARK       I    between atoms: C20_20  and  C21_21 
REMARK       I    between atoms: C21_21  and  N6_73 
REMARK       I    between atoms: C22_22  and  N7_75 
REMARK       I    between atoms: C22_22  and  N8_76 
REMARK       I    between atoms: C23_23  and  N9_77 
REMARK       I    between atoms: C24_24  and  C25_25 
REMARK       I    between atoms: C24_24  and  C29_29 
REMARK       I    between atoms: C24_24  and  N9_77 
REMARK       I    between atoms: C25_25  and  C26_26 
REMARK       I    between atoms: C26_26  and  C27_27 
REMARK       I    between atoms: C27_27  and  C28_28 
REMARK       I    between atoms: C28_28  and  N10_78 
REMARK       I    between atoms: C29_29  and  N11_79 
REMARK       I    between atoms: C30_30  and  C31_31 
REMARK       I    between atoms: C30_30  and  N11_79 
REMARK       I    between atoms: C31_31  and  C32_32 
REMARK       I    between atoms: C32_32  and  C33_33 
REMARK       I    between atoms: C33_33  and  N12_80 
REMARK       I    between atoms: C34_34  and  C35_35 
REMARK       I    between atoms: C34_34  and  N13_81 
REMARK       I    between atoms: C35_35  and  C36_36 
REMARK       I    between atoms: C35_35  and  N15_83 
REMARK       I    between atoms: C36_36  and  C37_37 
REMARK       I    between atoms: C37_37  and  C38_38 
REMARK       I    between atoms: C38_38  and  N14_82 
REMARK       I    between atoms: C39_39  and  C40_40 
REMARK       I    between atoms: C39_39  and  N15_83 
REMARK       I    between atoms: C40_40  and  N16_84 
REMARK       I    between atoms: C41_41  and  C42_42 
REMARK       I    between atoms: C41_41  and  N16_84 
REMARK       I    between atoms: C42_42  and  C43_43 
REMARK       I    between atoms: C42_42  and  N18_86 
REMARK       I    between atoms: C43_43  and  C44_44 
REMARK       I    between atoms: C43_43  and  O9_63 
REMARK       I    between atoms: C44_44  and  N17_85 
REMARK       I    between atoms: C45_45  and  C46_46 
REMARK       I    between atoms: C45_45  and  N18_86 
REMARK       I    between atoms: C46_46  and  C47_47 
REMARK       I    between atoms: C46_46  and  N20_88 
REMARK       I    between atoms: C47_47  and  C48_48 
REMARK       I    between atoms: C47_47  and  O11_65 
REMARK       I    between atoms: C48_48  and  N19_87 
REMARK       I    between atoms: C49_49  and  C50_50 
REMARK       I    between atoms: C49_49  and  N20_88 
REMARK       I    between atoms: C50_50  and  C51_51 
REMARK       I    between atoms: C50_50  and  N22_90 
REMARK       I    between atoms: C51_51  and  C52_52 
REMARK       I    between atoms: C52_52  and  C53_53 
REMARK       I    between atoms: C53_53  and  C54_54 
REMARK       I    between atoms: C54_54  and  N21_89 
ROOT
HETATM    1  C1  UNL     1       3.405  -4.769  -1.025  1.00  0.00     0.042 C 
HETATM    2  C2  UNL     1       3.268  -3.425  -1.730  1.00  0.00     0.172 C 
HETATM    3  C3  UNL     1       2.059  -3.465  -2.686  1.00  0.00     0.240 C 
HETATM    4  C4  UNL     1      -0.411  -3.219  -2.889  1.00  0.00     0.182 C 
HETATM    5  C5  UNL     1      -0.834  -4.624  -3.366  1.00  0.00     0.093 C 
HETATM    6  C6  UNL     1      -0.907  -4.705  -4.853  1.00  0.00     0.028 A 
HETATM    7  C7  UNL     1      -1.957  -4.846  -5.734  1.00  0.00     0.114 A 
HETATM    8  C8  UNL     1      -0.202  -4.723  -6.947  1.00  0.00     0.180 A 
HETATM    9  C9  UNL     1      -1.524  -2.588  -2.030  1.00  0.00     0.241 C 
HETATM   10  C10 UNL     1      -3.857  -1.721  -2.074  1.00  0.00     0.154 C 
HETATM   11  C11 UNL     1      -3.722  -0.200  -1.922  1.00  0.00     0.033 C 
HETATM   12  C12 UNL     1      -3.445   0.537  -3.239  1.00  0.00     0.004 C 
HETATM   13  C13 UNL     1      -3.332   2.058  -3.064  1.00  0.00     0.030 C 
HETATM   14  C14 UNL     1      -4.621   2.760  -2.628  1.00  0.00     0.267 C 
HETATM   15  C15 UNL     1      -5.094  -2.122  -2.891  1.00  0.00     0.149 C 
HETATM   16  C16 UNL     1      -6.449  -1.884  -2.263  1.00  0.00     0.085 C 
HETATM   17  C17 UNL     1      -7.256  -0.910  -3.114  1.00  0.00     0.051 C 
HETATM   18  C18 UNL     1      -8.450  -0.379  -2.377  1.00  0.00     0.006 C 
HETATM   19  C19 UNL     1      -9.692  -0.898  -2.339  1.00  0.00    -0.013 C 
HETATM   20  C20 UNL     1     -10.183  -2.139  -3.038  1.00  0.00     0.047 C 
HETATM   21  C21 UNL     1     -11.540  -1.925  -3.722  1.00  0.00     0.125 C 
HETATM   22  C22 UNL     1     -13.787  -1.640  -3.082  1.00  0.00     0.121 C 
HETATM   23  C23 UNL     1      -8.203   0.826  -1.540  1.00  0.00     0.248 C 
HETATM   24  C24 UNL     1      -9.082   3.080  -1.037  1.00  0.00     0.177 C 
HETATM   25  C25 UNL     1      -9.173   4.374  -1.861  1.00  0.00     0.035 C 
HETATM   26  C26 UNL     1      -8.640   5.614  -1.128  1.00  0.00     0.004 C 
HETATM   27  C27 UNL     1      -9.455   6.079   0.080  1.00  0.00     0.030 C 
HETATM   28  C28 UNL     1     -10.802   6.689  -0.310  1.00  0.00     0.267 C 
HETATM   29  C29 UNL     1     -10.355   2.779  -0.207  1.00  0.00     0.240 C 
HETATM   30  C30 UNL     1     -11.350   1.148   1.365  1.00  0.00     0.122 C 
HETATM   31  C31 UNL     1     -11.143  -0.325   1.707  1.00  0.00     0.021 C 
HETATM   32  C32 UNL     1     -12.342  -0.955   2.422  1.00  0.00     0.031 C 
HETATM   33  C33 UNL     1     -13.622  -1.060   1.587  1.00  0.00     0.267 C 
HETATM   34  C34 UNL     1       4.292  -1.719  -0.252  1.00  0.00     0.241 C 
HETATM   35  C35 UNL     1       4.004  -0.685   0.862  1.00  0.00     0.176 C 
HETATM   36  C36 UNL     1       3.467  -1.390   2.122  1.00  0.00     0.036 C 
HETATM   37  C37 UNL     1       2.118  -0.856   2.624  1.00  0.00     0.032 C 
HETATM   38  C38 UNL     1       0.978  -0.833   1.604  1.00  0.00     0.267 C 
HETATM   39  C39 UNL     1       5.148   1.340   1.714  1.00  0.00     0.236 C 
HETATM   40  C40 UNL     1       6.490   2.056   1.921  1.00  0.00     0.225 C 
HETATM   41  C41 UNL     1       8.127   1.631   0.108  1.00  0.00     0.243 C 
HETATM   42  C42 UNL     1       9.210   0.656  -0.400  1.00  0.00     0.207 C 
HETATM   43  C43 UNL     1       8.532  -0.543  -1.094  1.00  0.00     0.177 C 
HETATM   44  C44 UNL     1       7.561  -0.176  -2.239  1.00  0.00     0.300 C 
HETATM   45  C45 UNL     1      11.012   0.922   1.295  1.00  0.00     0.243 C 
HETATM   46  C46 UNL     1      11.533   0.367   2.634  1.00  0.00     0.207 C 
HETATM   47  C47 UNL     1      10.425   0.516   3.703  1.00  0.00     0.177 C 
HETATM   48  C48 UNL     1      10.885   0.198   5.144  1.00  0.00     0.300 C 
HETATM   49  C49 UNL     1      13.863   0.456   3.473  1.00  0.00     0.251 C 
HETATM   50  C50 UNL     1      15.098   1.374   3.604  1.00  0.00     0.308 C 
HETATM   51  C51 UNL     1      15.028   2.200   4.895  1.00  0.00     0.045 C 
HETATM   52  C52 UNL     1      15.202   1.337   6.150  1.00  0.00     0.004 C 
HETATM   53  C53 UNL     1      15.146   2.191   7.421  1.00  0.00     0.030 C 
HETATM   54  C54 UNL     1      15.303   1.367   8.700  1.00  0.00     0.267 C 
HETATM   55  O1  UNL     1       2.171  -3.816  -3.862  1.00  0.00    -0.271 OA
HETATM   56  O2  UNL     1      -1.376  -2.340  -0.833  1.00  0.00    -0.271 OA
HETATM   57  O3  UNL     1      -4.989  -2.628  -4.013  1.00  0.00    -0.296 OA
HETATM   58  O4  UNL     1      -7.474   0.779  -0.557  1.00  0.00    -0.268 OA
HETATM   59  O5  UNL     1     -11.381   3.451  -0.265  1.00  0.00    -0.271 OA
HETATM   60  O6  UNL     1       5.428  -1.966  -0.658  1.00  0.00    -0.271 OA
HETATM   61  O7  UNL     1       4.088   1.846   2.079  1.00  0.00    -0.272 OA
HETATM   62  O8  UNL     1       7.640   2.496  -0.617  1.00  0.00    -0.271 OA
HETATM   63  O9  UNL     1       7.858  -1.320  -0.078  1.00  0.00    -0.391 OA
HETATM   64  O10 UNL     1      11.430   1.965   0.796  1.00  0.00    -0.271 OA
HETATM   65  O11 UNL     1       9.308  -0.350   3.374  1.00  0.00    -0.391 OA
HETATM   66  O12 UNL     1      13.853  -0.715   3.842  1.00  0.00    -0.271 OA
HETATM   67  N1  UNL     1       0.829  -3.249  -2.109  1.00  0.00    -0.346 N 
HETATM   68  N2  UNL     1      -1.507  -4.853  -7.028  1.00  0.00    -0.360 N 
ATOM     69  H2  UNL     1      -2.067  -4.941  -7.876  1.00  0.00     0.166 HD
HETATM   70  N3  UNL     1       0.212  -4.636  -5.650  1.00  0.00    -0.354 N 
HETATM   71  N4  UNL     1      -2.688  -2.323  -2.705  1.00  0.00    -0.348 N 
HETATM   72  N5  UNL     1      -5.694   2.560  -3.595  1.00  0.00     0.078 N 
HETATM   73  N6  UNL     1     -12.567  -1.706  -2.700  1.00  0.00    -0.371 N 
ATOM     74  H6  UNL     1     -12.318  -1.609  -1.716  1.00  0.00     0.161 HD
HETATM   75  N7  UNL     1     -14.306  -1.714  -4.329  1.00  0.00    -0.279 NA
HETATM   76  N8  UNL     1     -14.787  -1.474  -2.188  1.00  0.00    -0.279 NA
HETATM   77  N9  UNL     1      -8.913   1.932  -1.934  1.00  0.00    -0.344 N 
HETATM   78  N10 UNL     1     -11.538   7.077   0.890  1.00  0.00     0.078 N 
HETATM   79  N11 UNL     1     -10.240   1.656   0.590  1.00  0.00    -0.359 N 
HETATM   80  N12 UNL     1     -13.481  -1.924   0.420  1.00  0.00     0.078 N 
HETATM   81  N13 UNL     1       3.170  -2.348  -0.748  1.00  0.00    -0.346 N 
HETATM   82  N14 UNL     1       0.807  -2.124   0.925  1.00  0.00     0.078 N 
HETATM   83  N15 UNL     1       5.211   0.081   1.162  1.00  0.00    -0.346 N 
HETATM   84  N16 UNL     1       7.629   1.352   1.364  1.00  0.00    -0.350 N 
HETATM   85  N17 UNL     1       8.105   0.698  -3.272  1.00  0.00     0.080 N 
HETATM   86  N18 UNL     1      10.019   0.165   0.722  1.00  0.00    -0.343 N 
HETATM   87  N19 UNL     1      11.286  -1.197   5.338  1.00  0.00     0.080 N 
HETATM   88  N20 UNL     1      12.752   1.091   2.966  1.00  0.00    -0.343 N 
HETATM   89  N21 UNL     1      16.629   0.769   8.796  1.00  0.00     0.078 N 
HETATM   90  N22 UNL     1      15.127   2.300   2.445  1.00  0.00     0.092 N 
HETATM   91  H71 UNL     1       7.133  -1.825  -0.516  1.00  0.00     0.210 HD
HETATM   92  H72 UNL     1       8.875  -0.586   4.218  1.00  0.00     0.210 HD
HETATM   93  H73 UNL     1       0.774  -2.934  -1.144  1.00  0.00     0.163 HD
HETATM   94  H74 UNL     1       1.166  -4.498  -5.324  1.00  0.00     0.166 HD
HETATM   95  H75 UNL     1      -2.776  -2.546  -3.696  1.00  0.00     0.163 HD
HETATM   96  H76 UNL     1      -5.432   2.985  -4.485  1.00  0.00     0.312 HD
HETATM   97  H77 UNL     1      -6.526   3.054  -3.276  1.00  0.00     0.312 HD
HETATM   98  H78 UNL     1     -15.106  -1.101  -4.440  1.00  0.00     0.126 HD
HETATM   99  H79 UNL     1     -13.635  -1.569  -5.072  1.00  0.00     0.126 HD
HETATM  100  H80 UNL     1     -14.448  -1.599  -1.228  1.00  0.00     0.126 HD
HETATM  101  H81 UNL     1     -15.556  -2.114  -2.345  1.00  0.00     0.126 HD
HETATM  102  H82 UNL     1      -9.622   1.795  -2.646  1.00  0.00     0.163 HD
HETATM  103  H83 UNL     1     -11.751   6.232   1.423  1.00  0.00     0.312 HD
HETATM  104  H84 UNL     1     -12.444   7.454   0.611  1.00  0.00     0.312 HD
HETATM  105  H85 UNL     1      -9.313   1.255   0.716  1.00  0.00     0.162 HD
HETATM  106  H86 UNL     1     -13.138  -2.840   0.715  1.00  0.00     0.312 HD
HETATM  107  H87 UNL     1     -12.747  -1.566  -0.204  1.00  0.00     0.312 HD
HETATM  108  H88 UNL     1       2.306  -2.242  -0.210  1.00  0.00     0.163 HD
HETATM  109  H89 UNL     1      -0.116  -2.073   0.450  1.00  0.00     0.312 HD
HETATM  110  H90 UNL     1       0.640  -2.831   1.649  1.00  0.00     0.312 HD
HETATM  111  H91 UNL     1       6.098  -0.245   0.782  1.00  0.00     0.163 HD
HETATM  112  H92 UNL     1       8.023   0.571   1.882  1.00  0.00     0.163 HD
HETATM  113  H93 UNL     1       9.055   0.433  -3.522  1.00  0.00     0.312 HD
HETATM  114  H94 UNL     1       8.142   1.660  -2.921  1.00  0.00     0.312 HD
HETATM  115  H95 UNL     1       9.606  -0.583   1.278  1.00  0.00     0.163 HD
HETATM  116  H96 UNL     1      10.747  -1.811   4.728  1.00  0.00     0.312 HD
HETATM  117  H97 UNL     1      12.256  -1.301   5.003  1.00  0.00     0.312 HD
HETATM  118  H98 UNL     1      12.945   1.963   2.467  1.00  0.00     0.163 HD
HETATM  119  H99 UNL     1      17.334   1.503   8.841  1.00  0.00     0.312 HD
HETATM  120  HA0 UNL     1      16.702   0.248   9.670  1.00  0.00     0.312 HD
HETATM  121  HA1 UNL     1      15.256   1.750   1.593  1.00  0.00     0.313 HD
HETATM  122  HA2 UNL     1      15.957   2.889   2.517  1.00  0.00     0.313 HD
ENDROOT
TORSDOF 59
