REMARK  0 active torsions:
REMARK  status: ('A' for Active; 'I' for Inactive)
REMARK       I    between atoms: O15_15  and  C38_55 
REMARK       I    between atoms: O16_16  and  C58_75 
REMARK       I    between atoms: C1_18  and  N1_88 
REMARK       I    between atoms: C2_19  and  C3_20 
REMARK       I    between atoms: C2_19  and  N1_88 
REMARK       I    between atoms: C3_20  and  N2_89 
REMARK       I    between atoms: C4_21  and  C5_22 
REMARK       I    between atoms: C4_21  and  C65_82 
REMARK       I    between atoms: C4_21  and  N2_89 
REMARK       I    between atoms: C5_22  and  N3_90 
REMARK       I    between atoms: C6_23  and  C7_24 
REMARK       I    between atoms: C6_23  and  C61_78 
REMARK       I    between atoms: C6_23  and  N3_90 
REMARK       I    between atoms: C7_24  and  N4_91 
REMARK       I    between atoms: C8_25  and  C9_26 
REMARK       I    between atoms: C8_25  and  N4_91 
REMARK       I    between atoms: C9_26  and  N5_92 
REMARK       I    between atoms: C13_30  and  C14_31 
REMARK       I    between atoms: C14_31  and  N6_93 
REMARK       I    between atoms: C15_32  and  C16_33 
REMARK       I    between atoms: C15_32  and  C58_75 
REMARK       I    between atoms: C15_32  and  N6_93 
REMARK       I    between atoms: C16_33  and  N7_94 
REMARK       I    between atoms: C17_34  and  C18_35 
REMARK       I    between atoms: C17_34  and  C54_71 
REMARK       I    between atoms: C17_34  and  N7_94 
REMARK       I    between atoms: C18_35  and  N8_95 
REMARK       I    between atoms: C19_36  and  C20_37 
REMARK       I    between atoms: C19_36  and  N8_95 
REMARK       I    between atoms: C20_37  and  N9_96 
REMARK       I    between atoms: C24_41  and  C25_42 
REMARK       I    between atoms: C25_42  and  N10_97 
REMARK       I    between atoms: C26_43  and  C27_44 
REMARK       I    between atoms: C26_43  and  C50_67 
REMARK       I    between atoms: C26_43  and  N10_97 
REMARK       I    between atoms: C27_44  and  N11_98 
REMARK       I    between atoms: C28_45  and  C29_46 
REMARK       I    between atoms: C28_45  and  C45_62 
REMARK       I    between atoms: C28_45  and  N11_98 
REMARK       I    between atoms: C29_46  and  N12_99 
REMARK       I    between atoms: C30_47  and  C31_48 
REMARK       I    between atoms: C30_47  and  N12_99 
REMARK       I    between atoms: C31_48  and  N13_100 
REMARK       I    between atoms: C35_52  and  C36_53 
REMARK       I    between atoms: C36_53  and  N14_101 
REMARK       I    between atoms: C37_54  and  C38_55 
REMARK       I    between atoms: C37_54  and  C39_56 
REMARK       I    between atoms: C37_54  and  N14_101 
REMARK       I    between atoms: C39_56  and  C40_57 
REMARK       I    between atoms: C45_62  and  C46_63 
REMARK       I    between atoms: C54_71  and  C56_73 
REMARK       I    between atoms: C61_78  and  C62_79 
REMARK       I    between atoms: C65_82  and  C66_83 
REMARK       I    between atoms: C66_83  and  C67_84 
REMARK       I    between atoms: C67_84  and  N15_102 
ROOT
HETATM    1  O1  UNL     1      15.061  -0.447  -1.600  1.00  0.00    -0.274 OA
HETATM    2  O2  UNL     1      10.272   1.942  -1.593  1.00  0.00    -0.271 OA
HETATM    3  O3  UNL     1       9.206  -2.788  -1.162  1.00  0.00    -0.271 OA
HETATM    4  O4  UNL     1       5.833  -4.901   0.194  1.00  0.00    -0.271 OA
HETATM    5  O5  UNL     1       5.121  -0.548   3.077  1.00  0.00    -0.271 OA
HETATM    6  O6  UNL     1       2.324   2.030   3.797  1.00  0.00    -0.271 OA
HETATM    7  O7  UNL     1       0.056  -0.403   6.963  1.00  0.00    -0.271 OA
HETATM    8  O8  UNL     1      -3.583   1.069   5.352  1.00  0.00    -0.271 OA
HETATM    9  O9  UNL     1      -0.517  -1.313   2.502  1.00  0.00    -0.271 OA
HETATM   10  O10 UNL     1      -4.889  -1.076  -0.746  1.00  0.00    -0.271 OA
HETATM   11  O11 UNL     1      -2.989  -0.931  -3.902  1.00  0.00    -0.271 OA
HETATM   12  O12 UNL     1      -7.894  -1.144  -4.681  1.00  0.00    -0.271 OA
HETATM   13  O13 UNL     1     -10.571  -1.886  -1.843  1.00  0.00    -0.271 OA
HETATM   14  O14 UNL     1      -6.597   1.981  -1.835  1.00  0.00    -0.271 OA
HETATM   15  O15 UNL     1      -8.063   0.325   2.363  1.00  0.00    -0.399 OA
HETATM   16  O16 UNL     1       3.627  -2.042   5.442  1.00  0.00    -0.398 OA
HETATM   17  O17 UNL     1       5.692   0.045  -0.732  1.00  0.00    -0.274 OA
HETATM   18  C1  UNL     1      14.205  -0.749  -0.777  1.00  0.00     0.214 C 
HETATM   19  C2  UNL     1      12.408   0.724  -1.756  1.00  0.00     0.106 C 
HETATM   20  C3  UNL     1      10.883   0.881  -1.487  1.00  0.00     0.246 C 
HETATM   21  C4  UNL     1       8.784  -0.398  -1.091  1.00  0.00     0.177 C 
HETATM   22  C5  UNL     1       8.395  -1.875  -1.304  1.00  0.00     0.241 C 
HETATM   23  C6  UNL     1       6.469  -3.408  -1.617  1.00  0.00     0.177 C 
HETATM   24  C7  UNL     1       5.944  -3.743  -0.199  1.00  0.00     0.241 C 
HETATM   25  C8  UNL     1       5.039  -2.703   1.919  1.00  0.00     0.106 C 
HETATM   26  C9  UNL     1       4.515  -1.267   2.272  1.00  0.00     0.248 C 
HETATM   27  C10 UNL     1       2.580  -1.376   0.604  1.00  0.00     0.127 C 
HETATM   28  C11 UNL     1       2.009  -0.187  -0.148  1.00  0.00     0.022 C 
HETATM   29  C12 UNL     1       1.780   0.841   0.947  1.00  0.00     0.037 C 
HETATM   30  C13 UNL     1       2.942   0.611   1.916  1.00  0.00     0.179 C 
HETATM   31  C14 UNL     1       2.479   0.891   3.358  1.00  0.00     0.241 C 
HETATM   32  C15 UNL     1       2.026  -0.194   5.545  1.00  0.00     0.200 C 
HETATM   33  C16 UNL     1       0.613   0.173   6.032  1.00  0.00     0.243 C 
HETATM   34  C17 UNL     1      -1.280   1.761   5.746  1.00  0.00     0.180 C 
HETATM   35  C18 UNL     1      -2.398   0.939   5.054  1.00  0.00     0.241 C 
HETATM   36  C19 UNL     1      -2.786  -0.746   3.175  1.00  0.00     0.106 C 
HETATM   37  C20 UNL     1      -1.726  -1.455   2.249  1.00  0.00     0.248 C 
HETATM   38  C21 UNL     1      -1.123  -3.262   0.708  1.00  0.00     0.127 C 
HETATM   39  C22 UNL     1      -1.991  -4.428   0.277  1.00  0.00     0.022 C 
HETATM   40  C23 UNL     1      -3.226  -3.747  -0.292  1.00  0.00     0.037 C 
HETATM   41  C24 UNL     1      -3.388  -2.471   0.551  1.00  0.00     0.179 C 
HETATM   42  C25 UNL     1      -3.732  -1.309  -0.405  1.00  0.00     0.241 C 
HETATM   43  C26 UNL     1      -2.758   0.461  -1.911  1.00  0.00     0.110 C 
HETATM   44  C27 UNL     1      -3.518  -0.098  -3.161  1.00  0.00     0.246 C 
HETATM   45  C28 UNL     1      -5.661  -0.198  -4.430  1.00  0.00     0.177 C 
HETATM   46  C29 UNL     1      -6.976  -0.847  -3.919  1.00  0.00     0.241 C 
HETATM   47  C30 UNL     1      -8.140  -1.814  -1.914  1.00  0.00     0.106 C 
HETATM   48  C31 UNL     1      -9.571  -1.155  -1.908  1.00  0.00     0.248 C 
HETATM   49  C32 UNL     1     -11.091   0.711  -1.525  1.00  0.00     0.127 C 
HETATM   50  C33 UNL     1     -10.945   2.217  -1.431  1.00  0.00     0.022 C 
HETATM   51  C34 UNL     1      -9.805   2.493  -2.400  1.00  0.00     0.037 C 
HETATM   52  C35 UNL     1      -8.877   1.275  -2.246  1.00  0.00     0.179 C 
HETATM   53  C36 UNL     1      -7.681   1.648  -1.354  1.00  0.00     0.241 C 
HETATM   54  C37 UNL     1      -6.956   2.010   1.010  1.00  0.00     0.108 C 
HETATM   55  C38 UNL     1      -7.512   1.644   2.398  1.00  0.00     0.189 C 
HETATM   56  C39 UNL     1      -6.499   3.485   0.927  1.00  0.00     0.031 C 
HETATM   57  C40 UNL     1      -5.318   3.854   1.850  1.00  0.00    -0.021 C 
HETATM   58  C41 UNL     1      -5.789   4.468   3.171  1.00  0.00     0.009 C 
HETATM   59  C42 UNL     1      -4.391   4.852   1.148  1.00  0.00     0.009 C 
HETATM   60  C43 UNL     1      -7.785  -1.989  -0.421  1.00  0.00     0.048 C 
HETATM   61  C44 UNL     1      -8.236  -3.232  -2.517  1.00  0.00     0.048 C 
HETATM   62  C45 UNL     1      -6.008   0.946  -5.400  1.00  0.00     0.038 C 
HETATM   63  C46 UNL     1      -4.800   1.618  -6.084  1.00  0.00    -0.020 C 
HETATM   64  C47 UNL     1      -4.053   0.659  -7.013  1.00  0.00     0.009 C 
HETATM   65  C48 UNL     1      -5.271   2.839  -6.880  1.00  0.00     0.009 C 
HETATM   66  C49 UNL     1      -3.390   1.687  -1.243  1.00  0.00     0.049 C 
HETATM   67  C50 UNL     1      -1.309   0.813  -2.359  1.00  0.00     0.036 C 
HETATM   68  C51 UNL     1      -1.204   1.937  -3.384  1.00  0.00     0.008 C 
HETATM   69  C52 UNL     1      -3.457  -1.809   4.053  1.00  0.00     0.048 C 
HETATM   70  C53 UNL     1      -3.810   0.091   2.414  1.00  0.00     0.048 C 
HETATM   71  C54 UNL     1      -1.475   3.276   5.480  1.00  0.00     0.013 C 
HETATM   72  C55 UNL     1      -0.362   4.111   6.122  1.00  0.00     0.012 C 
HETATM   73  C56 UNL     1      -1.725   3.690   4.012  1.00  0.00     0.002 C 
HETATM   74  C57 UNL     1      -0.607   3.418   3.020  1.00  0.00     0.005 C 
HETATM   75  C58 UNL     1       2.452  -1.557   6.107  1.00  0.00     0.199 C 
HETATM   76  C59 UNL     1       6.263  -3.004   2.807  1.00  0.00     0.048 C 
HETATM   77  C60 UNL     1       3.959  -3.758   2.202  1.00  0.00     0.048 C 
HETATM   78  C61 UNL     1       5.294  -3.480  -2.603  1.00  0.00     0.038 C 
HETATM   79  C62 UNL     1       5.670  -3.218  -4.075  1.00  0.00    -0.020 C 
HETATM   80  C63 UNL     1       6.679  -4.235  -4.610  1.00  0.00     0.009 C 
HETATM   81  C64 UNL     1       4.407  -3.237  -4.941  1.00  0.00     0.009 C 
HETATM   82  C65 UNL     1       8.321   0.086   0.299  1.00  0.00     0.044 C 
HETATM   83  C66 UNL     1       7.480   1.363   0.241  1.00  0.00     0.105 C 
HETATM   84  C67 UNL     1       6.135   1.146  -0.416  1.00  0.00     0.215 C 
HETATM   85  C68 UNL     1      12.559   0.241  -3.206  1.00  0.00     0.048 C 
HETATM   86  C69 UNL     1      13.098   2.079  -1.562  1.00  0.00     0.048 C 
HETATM   87  C70 UNL     1      14.499  -1.677   0.371  1.00  0.00     0.117 C 
HETATM   88  N1  UNL     1      12.914  -0.276  -0.792  1.00  0.00    -0.344 N 
HETATM   89  N2  UNL     1      10.232  -0.307  -1.229  1.00  0.00    -0.346 N 
HETATM   90  N3  UNL     1       7.072  -2.075  -1.627  1.00  0.00    -0.346 N 
HETATM   91  N4  UNL     1       5.462  -2.661   0.510  1.00  0.00    -0.342 N 
HETATM   92  N5  UNL     1       3.359  -0.783   1.680  1.00  0.00    -0.337 N 
HETATM   93  N6  UNL     1       2.111  -0.215   4.083  1.00  0.00    -0.344 N 
HETATM   94  N7  UNL     1       0.052   1.264   5.399  1.00  0.00    -0.346 N 
HETATM   95  N8  UNL     1      -1.962   0.153   4.011  1.00  0.00    -0.342 N 
HETATM   96  N9  UNL     1      -2.081  -2.285   1.209  1.00  0.00    -0.337 N 
HETATM   97  N10 UNL     1      -2.649  -0.659  -0.950  1.00  0.00    -0.342 N 
HETATM   98  N11 UNL     1      -4.824   0.296  -3.335  1.00  0.00    -0.346 N 
HETATM   99  N12 UNL     1      -7.052  -1.060  -2.558  1.00  0.00    -0.342 N 
HETATM  100  N13 UNL     1      -9.735   0.213  -1.704  1.00  0.00    -0.337 N 
HETATM  101  N14 UNL     1      -7.974   1.722  -0.007  1.00  0.00    -0.353 N 
HETATM  102  N15 UNL     1       5.421   2.285  -0.631  1.00  0.00    -0.370 N 
HETATM  103  H1  UNL     1      -8.335   0.112   3.274  1.00  0.00     0.209 HD
HETATM  104  H2  UNL     1       4.266  -1.305   5.377  1.00  0.00     0.209 HD
HETATM  105  HA9 UNL     1      12.365  -0.405   0.051  1.00  0.00     0.163 HD
HETATM  106  HB0 UNL     1      10.743  -1.183  -1.327  1.00  0.00     0.163 HD
HETATM  107  HB1 UNL     1       6.446  -1.270  -1.609  1.00  0.00     0.163 HD
HETATM  108  HB2 UNL     1       5.654  -1.739   0.127  1.00  0.00     0.163 HD
HETATM  109  HB3 UNL     1       2.318  -1.116   3.662  1.00  0.00     0.163 HD
HETATM  110  HB4 UNL     1       0.644   1.788   4.754  1.00  0.00     0.163 HD
HETATM  111  HB5 UNL     1      -0.953   0.023   3.940  1.00  0.00     0.163 HD
HETATM  112  HB6 UNL     1      -1.745  -0.850  -0.533  1.00  0.00     0.163 HD
HETATM  113  HB7 UNL     1      -5.278   0.915  -2.661  1.00  0.00     0.163 HD
HETATM  114  HB8 UNL     1      -6.165  -1.006  -2.050  1.00  0.00     0.163 HD
HETATM  115  HB9 UNL     1      -8.706   1.081   0.293  1.00  0.00     0.163 HD
HETATM  116  HC0 UNL     1       4.554   2.222  -1.149  1.00  0.00     0.159 HD
HETATM  117  HC1 UNL     1       5.842   3.202  -0.536  1.00  0.00     0.159 HD
ENDROOT
TORSDOF 40
