REMARK  23 active torsions:
REMARK  status: ('A' for Active; 'I' for Inactive)
REMARK       I    between atoms: C2_2  and  N1_58 
REMARK    1  A    between atoms: C3_3  and  N1_58 
REMARK    2  A    between atoms: C5_5  and  C6_6 
REMARK       I    between atoms: C6_6  and  N4_62 
REMARK    3  A    between atoms: C7_7  and  N4_62 
REMARK    4  A    between atoms: C9_9  and  C11_11 
REMARK       I    between atoms: C11_11  and  N6_64 
REMARK    5  A    between atoms: C12_12  and  N6_64 
REMARK    6  A    between atoms: C14_14  and  C16_16 
REMARK       I    between atoms: C16_16  and  N8_66 
REMARK    7  A    between atoms: C17_17  and  C18_18 
REMARK    8  A    between atoms: C17_17  and  N8_66 
REMARK    9  A    between atoms: C18_18  and  C19_19 
REMARK   10  A    between atoms: C19_19  and  C20_20 
REMARK       I    between atoms: C20_20  and  N9_67 
REMARK   11  A    between atoms: C21_21  and  N9_67 
REMARK   12  A    between atoms: C23_23  and  C25_25 
REMARK       I    between atoms: C25_25  and  N11_69 
REMARK   13  A    between atoms: C26_26  and  N11_69 
REMARK   14  A    between atoms: C28_28  and  C30_30 
REMARK       I    between atoms: C30_30  and  N13_71 
REMARK   15  A    between atoms: C31_31  and  N13_71 
REMARK   16  A    between atoms: C33_33  and  C35_35 
REMARK       I    between atoms: C35_35  and  N15_73 
REMARK   17  A    between atoms: C36_36  and  C37_37 
REMARK   18  A    between atoms: C36_36  and  N15_73 
REMARK   19  A    between atoms: C37_37  and  O9_57 
REMARK   20  A    between atoms: C38_38  and  C39_39 
REMARK   21  A    between atoms: C38_38  and  N16_74 
REMARK   22  A    between atoms: C39_39  and  C40_40 
REMARK   23  A    between atoms: C40_40  and  N17_75 
ROOT
HETATM    1  C20 UNL     1      -2.493   2.089  -1.607  1.00  0.00     0.222 C 
HETATM    2  O5  UNL     1      -1.658   2.876  -1.174  1.00  0.00    -0.273 OA
HETATM    3  N9  UNL     1      -2.235   0.842  -2.152  1.00  0.00    -0.326 N 
HETATM    4  H58 UNL     1      -3.009   0.282  -2.486  1.00  0.00     0.169 HD
ENDROOT
BRANCH   3   5
HETATM    5  C21 UNL     1      -0.977   0.292  -2.299  1.00  0.00     0.052 A 
HETATM    6  C22 UNL     1      -0.762  -0.944  -2.857  1.00  0.00     0.120 A 
HETATM    7  N10 UNL     1       0.590  -1.190  -2.851  1.00  0.00    -0.354 N 
HETATM    8  C23 UNL     1       1.272  -0.117  -2.300  1.00  0.00     0.105 A 
HETATM    9  C45 UNL     1       1.190  -2.403  -3.370  1.00  0.00     0.156 C 
HETATM   10  C24 UNL     1       0.291   0.806  -1.945  1.00  0.00     0.066 A 
BRANCH   8  11
HETATM   11  C25 UNL     1       2.725  -0.049  -2.146  1.00  0.00     0.273 C 
HETATM   12  O6  UNL     1       3.446  -1.021  -2.357  1.00  0.00    -0.266 OA
HETATM   13  N11 UNL     1       3.196   1.192  -1.754  1.00  0.00    -0.320 N 
HETATM   14  H59 UNL     1       2.532   1.941  -1.629  1.00  0.00     0.169 HD
BRANCH  13  15
HETATM   15  C26 UNL     1       4.522   1.515  -1.541  1.00  0.00     0.053 A 
HETATM   16  C27 UNL     1       4.924   2.774  -1.154  1.00  0.00     0.120 A 
HETATM   17  N12 UNL     1       6.292   2.774  -1.047  1.00  0.00    -0.354 N 
HETATM   18  C28 UNL     1       6.784   1.510  -1.303  1.00  0.00     0.105 A 
HETATM   19  C44 UNL     1       7.079   3.961  -0.785  1.00  0.00     0.156 C 
HETATM   20  C29 UNL     1       5.691   0.731  -1.658  1.00  0.00     0.066 A 
BRANCH  18  21
HETATM   21  C30 UNL     1       8.171   1.089  -1.263  1.00  0.00     0.273 C 
HETATM   22  O7  UNL     1       8.700   0.491  -2.194  1.00  0.00    -0.266 OA
HETATM   23  N13 UNL     1       8.792   1.398  -0.067  1.00  0.00    -0.320 N 
HETATM   24  H60 UNL     1       8.221   1.768   0.681  1.00  0.00     0.169 HD
BRANCH  23  25
HETATM   25  C31 UNL     1      10.107   1.108   0.237  1.00  0.00     0.053 A 
HETATM   26  C32 UNL     1      10.672   1.361   1.464  1.00  0.00     0.120 A 
HETATM   27  N14 UNL     1      11.981   0.945   1.429  1.00  0.00    -0.354 N 
HETATM   28  C33 UNL     1      12.280   0.407   0.189  1.00  0.00     0.104 A 
HETATM   29  C43 UNL     1      12.886   1.039   2.556  1.00  0.00     0.156 C 
HETATM   30  C34 UNL     1      11.118   0.531  -0.564  1.00  0.00     0.066 A 
BRANCH  28  31
HETATM   31  C35 UNL     1      13.561  -0.147  -0.194  1.00  0.00     0.268 C 
HETATM   32  O8  UNL     1      14.608   0.013   0.432  1.00  0.00    -0.266 OA
HETATM   33  N15 UNL     1      13.561  -0.890  -1.356  1.00  0.00    -0.348 N 
HETATM   34  H61 UNL     1      12.660  -1.137  -1.751  1.00  0.00     0.163 HD
BRANCH  33  35
HETATM   35  C36 UNL     1      14.712  -1.672  -1.755  1.00  0.00     0.206 C 
BRANCH  35  36
HETATM   36  C37 UNL     1      15.789  -0.747  -2.248  1.00  0.00     0.129 C 
HETATM   37  N16 UNL     1      16.861  -0.447  -1.610  1.00  0.00    -0.373 N 
HETATM   38  H62 UNL     1      17.472   0.246  -2.042  1.00  0.00     0.161 HD
BRANCH  36  39
HETATM   39  O9  UNL     1      15.593  -0.166  -3.441  1.00  0.00    -0.348 OA
HETATM   40  H53 UNL     1      16.222   0.500  -3.766  1.00  0.00     0.219 HD
ENDBRANCH  36  39
BRANCH  37  41
HETATM   41  C38 UNL     1      17.354  -0.910  -0.285  1.00  0.00     0.123 C 
BRANCH  41  42
HETATM   42  C39 UNL     1      18.647  -1.707  -0.456  1.00  0.00     0.050 C 
BRANCH  42  43
HETATM   43  C40 UNL     1      19.854  -0.810  -0.773  1.00  0.00     0.273 C 
BRANCH  43  44
HETATM   44  N17 UNL     1      21.140  -1.480  -0.934  1.00  0.00     0.080 N 
HETATM   45  C41 UNL     1      21.186  -2.445  -2.028  1.00  0.00     0.309 C 
HETATM   46  C42 UNL     1      21.651  -2.068   0.304  1.00  0.00     0.309 C 
ENDBRANCH  43  44
ENDBRANCH  42  43
ENDBRANCH  41  42
ENDBRANCH  37  41
ENDBRANCH  35  36
ENDBRANCH  33  35
ENDBRANCH  28  31
ENDBRANCH  23  25
ENDBRANCH  18  21
ENDBRANCH  13  15
ENDBRANCH   8  11
ENDBRANCH   3   5
BRANCH   1  47
HETATM   47  C19 UNL     1      -3.983   2.390  -1.584  1.00  0.00     0.105 C 
BRANCH  47  48
HETATM   48  C18 UNL     1      -4.278   3.801  -1.073  1.00  0.00     0.029 C 
BRANCH  48  49
HETATM   49  C17 UNL     1      -5.768   4.122  -1.079  1.00  0.00     0.123 C 
BRANCH  49  50
HETATM   50  N8  UNL     1      -6.488   3.430  -0.031  1.00  0.00    -0.356 N 
HETATM   51  C16 UNL     1      -7.818   3.721   0.200  1.00  0.00     0.268 C 
HETATM   52  O4  UNL     1      -8.413   4.605  -0.407  1.00  0.00    -0.266 OA
HETATM   53  H57 UNL     1      -6.197   2.498   0.229  1.00  0.00     0.162 HD
BRANCH  51  54
HETATM   54  C14 UNL     1      -8.459   2.841   1.155  1.00  0.00     0.104 A 
HETATM   55  C15 UNL     1      -9.748   2.333   1.069  1.00  0.00     0.066 A 
HETATM   56  C12 UNL     1      -9.980   1.489   2.182  1.00  0.00     0.053 A 
HETATM   57  C13 UNL     1      -8.841   1.529   2.948  1.00  0.00     0.120 A 
HETATM   58  N7  UNL     1      -7.946   2.383   2.352  1.00  0.00    -0.354 N 
HETATM   59  C46 UNL     1      -6.701   2.790   2.968  1.00  0.00     0.156 C 
BRANCH  56  60
HETATM   60  N6  UNL     1     -11.148   0.785   2.410  1.00  0.00    -0.320 N 
HETATM   61  C11 UNL     1     -11.409  -0.033   3.495  1.00  0.00     0.273 C 
HETATM   62  O3  UNL     1     -10.625  -0.229   4.420  1.00  0.00    -0.266 OA
HETATM   63  H56 UNL     1     -11.877   0.921   1.727  1.00  0.00     0.169 HD
BRANCH  61  64
HETATM   64  C9  UNL     1     -12.733  -0.655   3.465  1.00  0.00     0.105 A 
HETATM   65  C10 UNL     1     -13.654  -0.749   2.425  1.00  0.00     0.066 A 
HETATM   66  C7  UNL     1     -14.795  -1.447   2.882  1.00  0.00     0.053 A 
HETATM   67  C8  UNL     1     -14.558  -1.782   4.192  1.00  0.00     0.120 A 
HETATM   68  N5  UNL     1     -13.316  -1.311   4.538  1.00  0.00    -0.354 N 
HETATM   69  C47 UNL     1     -12.731  -1.475   5.854  1.00  0.00     0.156 C 
BRANCH  66  70
HETATM   70  N4  UNL     1     -15.958  -1.779   2.222  1.00  0.00    -0.319 N 
HETATM   71  C6  UNL     1     -16.266  -1.470   0.911  1.00  0.00     0.290 C 
HETATM   72  O2  UNL     1     -15.540  -0.850   0.139  1.00  0.00    -0.264 OA
HETATM   73  H55 UNL     1     -16.669  -2.296   2.731  1.00  0.00     0.169 HD
BRANCH  71  74
HETATM   74  C5  UNL     1     -17.583  -1.974   0.537  1.00  0.00     0.178 A 
HETATM   75  N2  UNL     1     -18.200  -1.841  -0.685  1.00  0.00    -0.339 N 
HETATM   76  C4  UNL     1     -19.417  -2.457  -0.611  1.00  0.00     0.140 A 
HETATM   77  C48 UNL     1     -17.668  -1.171  -1.847  1.00  0.00     0.157 C 
HETATM   78  C3  UNL     1     -19.494  -2.945   0.667  1.00  0.00     0.125 A 
HETATM   79  N3  UNL     1     -18.363  -2.648   1.376  1.00  0.00    -0.323 N 
ATOM     80  H3  UNL     1     -18.160  -2.892   2.345  1.00  0.00     0.169 HD
BRANCH  78  81
HETATM   81  N1  UNL     1     -20.494  -3.646   1.285  1.00  0.00    -0.312 N 
HETATM   82  C2  UNL     1     -21.685  -4.016   0.703  1.00  0.00     0.219 C 
HETATM   83  C1  UNL     1     -22.588  -4.773   1.645  1.00  0.00     0.117 C 
HETATM   84  O1  UNL     1     -22.043  -3.770  -0.445  1.00  0.00    -0.274 OA
HETATM   85  H54 UNL     1     -20.295  -3.884   2.246  1.00  0.00     0.170 HD
ENDBRANCH  78  81
ENDBRANCH  71  74
ENDBRANCH  66  70
ENDBRANCH  61  64
ENDBRANCH  56  60
ENDBRANCH  51  54
ENDBRANCH  49  50
ENDBRANCH  48  49
ENDBRANCH  47  48
ENDBRANCH   1  47
TORSDOF 23
