REMARK  0 active torsions:
REMARK  status: ('A' for Active; 'I' for Inactive)
REMARK       I    between atoms: C2_2  and  C3_3 
REMARK       I    between atoms: C3_3  and  C5_5 
REMARK       I    between atoms: C5_5  and  C6_6 
REMARK       I    between atoms: C5_5  and  N9_75 
REMARK       I    between atoms: C6_6  and  N1_67 
REMARK       I    between atoms: C7_7  and  C8_8 
REMARK       I    between atoms: C7_7  and  C15_15 
REMARK       I    between atoms: C7_7  and  N1_67 
REMARK       I    between atoms: C8_8  and  C9_9 
REMARK       I    between atoms: C15_15  and  N2_68 
REMARK       I    between atoms: C16_16  and  C17_17 
REMARK       I    between atoms: C16_16  and  C20_20 
REMARK       I    between atoms: C16_16  and  N2_68 
REMARK       I    between atoms: C20_20  and  N3_69 
REMARK       I    between atoms: C21_21  and  C22_22 
REMARK       I    between atoms: C21_21  and  C26_26 
REMARK       I    between atoms: C21_21  and  N3_69 
REMARK       I    between atoms: C22_22  and  C23_23 
REMARK       I    between atoms: C23_23  and  C24_24 
REMARK       I    between atoms: C24_24  and  C25_25 
REMARK       I    between atoms: C25_25  and  N4_70 
REMARK       I    between atoms: C26_26  and  N5_71 
REMARK       I    between atoms: C27_27  and  C28_28 
REMARK       I    between atoms: C27_27  and  C30_30 
REMARK       I    between atoms: C27_27  and  N5_71 
REMARK       I    between atoms: C28_28  and  O5_57 
REMARK       I    between atoms: C30_30  and  N6_72 
REMARK       I    between atoms: C31_31  and  C32_32 
REMARK       I    between atoms: C31_31  and  C36_36 
REMARK       I    between atoms: C31_31  and  N6_72 
REMARK       I    between atoms: C32_32  and  C33_33 
REMARK       I    between atoms: C36_36  and  N7_73 
REMARK       I    between atoms: C37_37  and  C38_38 
REMARK       I    between atoms: C37_37  and  C40_40 
REMARK       I    between atoms: C37_37  and  N7_73 
REMARK       I    between atoms: C38_38  and  O8_60 
REMARK       I    between atoms: C40_40  and  N8_74 
REMARK       I    between atoms: C41_41  and  C42_42 
REMARK       I    between atoms: C41_41  and  N8_74 
REMARK       I    between atoms: C42_42  and  O11_63 
REMARK       I    between atoms: C43_43  and  C44_44 
REMARK       I    between atoms: C43_43  and  N9_75 
REMARK       I    between atoms: C44_44  and  C45_45 
REMARK       I    between atoms: C44_44  and  N11_77 
REMARK       I    between atoms: C45_45  and  C46_46 
REMARK       I    between atoms: C46_46  and  C47_47 
REMARK       I    between atoms: C47_47  and  N10_76 
REMARK       I    between atoms: C48_48  and  C49_49 
REMARK       I    between atoms: C48_48  and  N11_77 
REMARK       I    between atoms: C49_49  and  C50_50 
REMARK       I    between atoms: C49_49  and  N12_78 
REMARK       I    between atoms: C50_50  and  C51_51 
REMARK       I    between atoms: C51_51  and  S1_79 
ROOT
HETATM    1  C1  UNL     1       9.925   3.241   1.439  1.00  0.00     0.005 C 
HETATM    2  C2  UNL     1       8.669   4.094   1.429  1.00  0.00     0.002 C 
HETATM    3  C3  UNL     1       7.432   3.451   0.756  1.00  0.00     0.013 C 
HETATM    4  C4  UNL     1       6.357   4.550   0.652  1.00  0.00     0.012 C 
HETATM    5  C5  UNL     1       6.885   2.223   1.523  1.00  0.00     0.180 C 
HETATM    6  C6  UNL     1       5.589   1.653   0.896  1.00  0.00     0.241 C 
HETATM    7  C7  UNL     1       3.584   0.260   1.377  1.00  0.00     0.180 C 
HETATM    8  C8  UNL     1       3.571  -1.243   1.705  1.00  0.00     0.073 C 
HETATM    9  C9  UNL     1       4.532  -2.139   0.946  1.00  0.00    -0.056 A 
HETATM   10  C10 UNL     1       4.823  -3.406   1.481  1.00  0.00     0.007 A 
HETATM   11  C11 UNL     1       5.683  -4.285   0.819  1.00  0.00     0.001 A 
HETATM   12  C12 UNL     1       6.261  -3.915  -0.392  1.00  0.00     0.000 A 
HETATM   13  C13 UNL     1       5.968  -2.672  -0.946  1.00  0.00     0.001 A 
HETATM   14  C14 UNL     1       5.104  -1.793  -0.286  1.00  0.00     0.007 A 
HETATM   15  C15 UNL     1       2.440   0.947   2.143  1.00  0.00     0.241 C 
HETATM   16  C16 UNL     1      -0.008   1.375   2.170  1.00  0.00     0.180 C 
HETATM   17  C17 UNL     1      -0.507   0.566   3.392  1.00  0.00     0.009 C 
HETATM   18  C18 UNL     1      -0.965  -0.852   3.045  1.00  0.00     0.012 C 
HETATM   19  C19 UNL     1      -1.616   1.303   4.148  1.00  0.00     0.012 C 
HETATM   20  C20 UNL     1      -1.098   1.600   1.096  1.00  0.00     0.241 C 
HETATM   21  C21 UNL     1      -2.129   0.738  -0.970  1.00  0.00     0.176 C 
HETATM   22  C22 UNL     1      -1.647   0.133  -2.295  1.00  0.00     0.035 C 
HETATM   23  C23 UNL     1      -0.586   0.948  -3.042  1.00  0.00     0.004 C 
HETATM   24  C24 UNL     1       0.779   1.170  -2.379  1.00  0.00     0.030 C 
HETATM   25  C25 UNL     1       1.654  -0.071  -2.183  1.00  0.00     0.267 C 
HETATM   26  C26 UNL     1      -3.338  -0.081  -0.475  1.00  0.00     0.241 C 
HETATM   27  C27 UNL     1      -5.815  -0.291  -0.587  1.00  0.00     0.205 C 
HETATM   28  C28 UNL     1      -6.217  -0.107   0.893  1.00  0.00     0.146 C 
HETATM   29  C29 UNL     1      -6.556   1.333   1.266  1.00  0.00     0.042 C 
HETATM   30  C30 UNL     1      -6.884   0.244  -1.562  1.00  0.00     0.243 C 
HETATM   31  C31 UNL     1      -9.279   0.137  -2.194  1.00  0.00     0.177 C 
HETATM   32  C32 UNL     1      -9.299  -0.424  -3.629  1.00  0.00     0.038 C 
HETATM   33  C33 UNL     1      -9.255  -1.953  -3.858  1.00  0.00    -0.020 C 
HETATM   34  C34 UNL     1     -10.413  -2.711  -3.216  1.00  0.00     0.009 C 
HETATM   35  C35 UNL     1      -7.921  -2.594  -3.473  1.00  0.00     0.009 C 
HETATM   36  C36 UNL     1     -10.576  -0.125  -1.399  1.00  0.00     0.241 C 
HETATM   37  C37 UNL     1     -12.966   0.442  -1.210  1.00  0.00     0.205 C 
HETATM   38  C38 UNL     1     -14.187   0.505  -2.151  1.00  0.00     0.146 C 
HETATM   39  C39 UNL     1     -14.462  -0.847  -2.801  1.00  0.00     0.042 C 
HETATM   40  C40 UNL     1     -12.948   1.687  -0.294  1.00  0.00     0.243 C 
HETATM   41  C41 UNL     1     -13.843   2.680   1.767  1.00  0.00     0.232 C 
HETATM   42  C42 UNL     1     -13.002   2.250   2.961  1.00  0.00     0.158 C 
HETATM   43  C43 UNL     1       7.840   0.151   2.492  1.00  0.00     0.241 C 
HETATM   44  C44 UNL     1       8.396  -1.236   2.082  1.00  0.00     0.177 C 
HETATM   45  C45 UNL     1       9.092  -1.981   3.238  1.00  0.00     0.044 C 
HETATM   46  C46 UNL     1       8.705  -3.460   3.330  1.00  0.00     0.105 C 
HETATM   47  C47 UNL     1       9.171  -4.317   2.169  1.00  0.00     0.215 C 
HETATM   48  C48 UNL     1      10.431  -0.704   0.766  1.00  0.00     0.251 C 
HETATM   49  C49 UNL     1      11.204  -1.015  -0.534  1.00  0.00     0.309 C 
HETATM   50  C50 UNL     1      10.955   0.119  -1.537  1.00  0.00     0.055 C 
HETATM   51  C51 UNL     1      11.840   0.003  -2.775  1.00  0.00     0.076 C 
HETATM   52  C52 UNL     1      12.293   2.731  -3.072  1.00  0.00     0.089 C 
HETATM   53  O1  UNL     1       5.319   1.744  -0.300  1.00  0.00    -0.271 OA
HETATM   54  O2  UNL     1       2.620   1.555   3.196  1.00  0.00    -0.271 OA
HETATM   55  O3  UNL     1      -1.948   2.483   1.194  1.00  0.00    -0.271 OA
HETATM   56  O4  UNL     1      -3.215  -1.093   0.214  1.00  0.00    -0.271 OA
HETATM   57  O5  UNL     1      -7.341  -0.945   1.198  1.00  0.00    -0.393 OA
HETATM   58  O6  UNL     1      -6.615   1.077  -2.429  1.00  0.00    -0.271 OA
HETATM   59  O7  UNL     1     -10.591  -0.748  -0.337  1.00  0.00    -0.271 OA
HETATM   60  O8  UNL     1     -13.959   1.464  -3.192  1.00  0.00    -0.393 OA
HETATM   61  O9  UNL     1     -12.189   2.639  -0.469  1.00  0.00    -0.271 OA
HETATM   62  O10 UNL     1     -12.682   2.953   3.906  1.00  0.00    -0.649 OA
HETATM   63  O11 UNL     1     -12.687   0.934   2.957  1.00  0.00    -0.775 OA
HETATM   64  O12 UNL     1       7.318   0.358   3.588  1.00  0.00    -0.271 OA
HETATM   65  O13 UNL     1       9.631  -3.897   1.113  1.00  0.00    -0.274 OA
HETATM   66  O14 UNL     1      10.891   0.033   1.633  1.00  0.00    -0.271 OA
HETATM   67  N1  UNL     1       4.845   0.882   1.763  1.00  0.00    -0.346 N 
HETATM   68  N2  UNL     1       1.192   0.762   1.584  1.00  0.00    -0.346 N 
HETATM   69  N3  UNL     1      -1.105   0.687   0.061  1.00  0.00    -0.346 N 
HETATM   70  N4  UNL     1       1.254  -0.913  -1.049  1.00  0.00     0.078 N 
HETATM   71  N5  UNL     1      -4.554   0.370  -0.919  1.00  0.00    -0.344 N 
HETATM   72  N6  UNL     1      -8.133  -0.307  -1.417  1.00  0.00    -0.346 N 
HETATM   73  N7  UNL     1     -11.716   0.399  -1.965  1.00  0.00    -0.344 N 
HETATM   74  N8  UNL     1     -13.882   1.656   0.728  1.00  0.00    -0.349 N 
HETATM   75  N9  UNL     1       7.788   1.074   1.465  1.00  0.00    -0.346 N 
HETATM   76  N10 UNL     1       8.994  -5.657   2.363  1.00  0.00    -0.370 N 
HETATM   77  N11 UNL     1       9.162  -1.247   0.835  1.00  0.00    -0.346 N 
HETATM   78  N12 UNL     1      10.823  -2.324  -1.104  1.00  0.00     0.092 N 
HETATM   79  S1  UNL     1      11.527   1.354  -3.964  1.00  0.00    -0.173 SA
HETATM   80  H71 UNL     1      -7.500  -0.873   2.157  1.00  0.00     0.210 HD
HETATM   81  H72 UNL     1     -14.763   1.504  -3.739  1.00  0.00     0.210 HD
HETATM   82  H73 UNL     1     -12.133   0.821   3.759  1.00  0.00     0.167 HD
HETATM   83  H74 UNL     1       5.060   0.935   2.758  1.00  0.00     0.163 HD
HETATM   84  H75 UNL     1       1.145   0.409   0.625  1.00  0.00     0.163 HD
HETATM   85  H76 UNL     1      -0.695  -0.222   0.246  1.00  0.00     0.163 HD
HETATM   86  H77 UNL     1       1.998  -1.609  -0.917  1.00  0.00     0.312 HD
HETATM   87  H78 UNL     1       0.463  -1.488  -1.349  1.00  0.00     0.312 HD
HETATM   88  H79 UNL     1      -4.619   1.180  -1.531  1.00  0.00     0.163 HD
HETATM   89  H80 UNL     1      -8.329  -0.814  -0.549  1.00  0.00     0.163 HD
HETATM   90  H81 UNL     1     -11.609   1.173  -2.615  1.00  0.00     0.163 HD
HETATM   91  H82 UNL     1     -14.140   0.733   1.060  1.00  0.00     0.163 HD
HETATM   92  H83 UNL     1       8.046   0.723   0.549  1.00  0.00     0.163 HD
HETATM   93  H84 UNL     1       9.372  -6.276   1.656  1.00  0.00     0.159 HD
HETATM   94  H85 UNL     1       8.842  -6.043   3.286  1.00  0.00     0.159 HD
HETATM   95  H86 UNL     1       9.086  -2.128   0.336  1.00  0.00     0.163 HD
HETATM   96  H87 UNL     1      10.799  -3.030  -0.357  1.00  0.00     0.313 HD
HETATM   97  H88 UNL     1       9.886  -2.282  -1.498  1.00  0.00     0.313 HD
ENDROOT
TORSDOF 43
