REMARK  27 active torsions:
REMARK  status: ('A' for Active; 'I' for Inactive)
REMARK    1  A    between atoms: C3_3  and  N5_46 
REMARK    2  A    between atoms: C5_5  and  C6_6 
REMARK    3  A    between atoms: C6_6  and  C7_7 
REMARK    4  A    between atoms: C7_7  and  C8_8 
REMARK    5  A    between atoms: C8_8  and  N2_42 
REMARK       I    between atoms: C9_9  and  N3_44 
REMARK       I    between atoms: C9_9  and  N4_45 
REMARK    6  A    between atoms: C10_10  and  C11_11 
REMARK       I    between atoms: C10_10  and  N5_46 
REMARK    7  A    between atoms: C13_13  and  N7_48 
REMARK    8  A    between atoms: C16_16  and  C17_17 
REMARK       I    between atoms: C16_16  and  N7_48 
REMARK    9  A    between atoms: C19_19  and  N9_50 
REMARK   10  A    between atoms: C22_22  and  C23_23 
REMARK       I    between atoms: C22_22  and  N9_50 
REMARK   11  A    between atoms: C25_25  and  N11_52 
REMARK   12  A    between atoms: C28_28  and  C29_29 
REMARK       I    between atoms: C28_28  and  N11_52 
REMARK   13  A    between atoms: C29_29  and  C30_30 
REMARK   14  A    between atoms: C30_30  and  S1_67 
REMARK   15  A    between atoms: C31_31  and  C32_32 
REMARK   16  A    between atoms: C31_31  and  S1_67 
REMARK   17  A    between atoms: C32_32  and  C33_33 
REMARK   18  A    between atoms: C32_32  and  N13_54 
REMARK       I    between atoms: C33_33  and  N12_53 
REMARK   19  A    between atoms: C34_34  and  C35_35 
REMARK   20  A    between atoms: C34_34  and  N12_53 
REMARK   21  A    between atoms: C35_35  and  O8_63 
REMARK   22  A    between atoms: C36_36  and  C37_37 
REMARK       I    between atoms: C36_36  and  N13_54 
REMARK   23  A    between atoms: C37_37  and  C38_38 
REMARK   24  A    between atoms: C38_38  and  C39_39 
REMARK   25  A    between atoms: C39_39  and  C40_40 
REMARK   26  A    between atoms: C39_39  and  N14_55 
REMARK   27  A    between atoms: C40_40  and  O11_66 
ROOT
HETATM    1  C22 UNL     1      -1.357   3.447   1.020  1.00  0.00     0.273 C 
HETATM    2  N9  UNL     1      -0.489   2.376   1.139  1.00  0.00    -0.320 N 
HETATM    3  O4  UNL     1      -1.025   4.624   1.132  1.00  0.00    -0.266 OA
HETATM    4  H44 UNL     1      -0.868   1.443   1.079  1.00  0.00     0.169 HD
ENDROOT
BRANCH   1   5
HETATM    5  C23 UNL     1      -2.745   3.063   0.756  1.00  0.00     0.105 A 
HETATM    6  C24 UNL     1      -3.278   1.830   0.388  1.00  0.00     0.066 A 
HETATM    7  C25 UNL     1      -4.678   1.957   0.246  1.00  0.00     0.052 A 
HETATM    8  C26 UNL     1      -4.987   3.267   0.517  1.00  0.00     0.120 A 
HETATM    9  N10 UNL     1      -3.823   3.931   0.818  1.00  0.00    -0.354 N 
HETATM   10  C27 UNL     1      -3.764   5.336   1.166  1.00  0.00     0.156 C 
BRANCH   7  11
HETATM   11  N11 UNL     1      -5.633   1.021  -0.098  1.00  0.00    -0.325 N 
HETATM   12  C28 UNL     1      -5.382  -0.326  -0.332  1.00  0.00     0.241 C 
HETATM   13  O5  UNL     1      -4.271  -0.848  -0.257  1.00  0.00    -0.271 OA
HETATM   14  H45 UNL     1      -6.591   1.358  -0.123  1.00  0.00     0.169 HD
BRANCH  12  15
HETATM   15  C29 UNL     1      -6.646  -1.101  -0.739  1.00  0.00     0.183 C 
HETATM   16 CL1  UNL     1      -6.233  -2.820  -1.056  1.00  0.00    -0.114 Cl
BRANCH  15  17
HETATM   17  C30 UNL     1      -7.735  -1.045   0.335  1.00  0.00     0.103 C 
BRANCH  17  18
HETATM   18  S1  UNL     1      -8.808   0.441   0.174  1.00  0.00    -0.165 SA
BRANCH  18  19
HETATM   19  C31 UNL     1      -9.912  -0.086  -1.200  1.00  0.00     0.108 C 
BRANCH  19  20
HETATM   20  C32 UNL     1     -10.915  -1.188  -0.831  1.00  0.00     0.185 C 
BRANCH  20  21
HETATM   21  C33 UNL     1     -11.814  -1.429  -2.059  1.00  0.00     0.241 C 
HETATM   22  N12 UNL     1     -11.418  -2.475  -2.872  1.00  0.00    -0.349 N 
HETATM   23  H46 UNL     1     -11.009  -3.264  -2.380  1.00  0.00     0.163 HD
HETATM   24  O6  UNL     1     -12.799  -0.730  -2.306  1.00  0.00    -0.271 OA
BRANCH  22  25
HETATM   25  C34 UNL     1     -12.284  -2.848  -3.990  1.00  0.00     0.232 C 
BRANCH  25  26
HETATM   26  C35 UNL     1     -13.555  -3.561  -3.537  1.00  0.00     0.158 C 
HETATM   27  O7  UNL     1     -14.521  -3.803  -4.242  1.00  0.00    -0.649 OA
BRANCH  26  28
HETATM   28  O8  UNL     1     -13.517  -3.919  -2.237  1.00  0.00    -0.775 OA
HETATM   29  H50 UNL     1     -14.459  -4.033  -1.957  1.00  0.00     0.167 HD
ENDBRANCH  26  28
ENDBRANCH  25  26
ENDBRANCH  22  25
ENDBRANCH  20  21
BRANCH  20  30
HETATM   30  N13 UNL     1     -11.771  -0.821   0.298  1.00  0.00    -0.347 N 
HETATM   31  C36 UNL     1     -12.362  -1.813   1.049  1.00  0.00     0.218 C 
HETATM   32  O9  UNL     1     -12.095  -3.000   0.898  1.00  0.00    -0.274 OA
HETATM   33  H47 UNL     1     -12.279   0.054   0.221  1.00  0.00     0.163 HD
BRANCH  31  34
HETATM   34  C37 UNL     1     -13.337  -1.312   2.100  1.00  0.00     0.105 C 
BRANCH  34  35
HETATM   35  C38 UNL     1     -14.577  -2.206   2.222  1.00  0.00     0.056 C 
BRANCH  35  36
HETATM   36  C39 UNL     1     -15.731  -1.804   1.290  1.00  0.00     0.315 C 
BRANCH  36  37
HETATM   37  C40 UNL     1     -15.327  -1.850  -0.189  1.00  0.00     0.173 C 
HETATM   38  O10 UNL     1     -15.473  -2.796  -0.951  1.00  0.00    -0.648 OA
BRANCH  37  39
HETATM   39  O11 UNL     1     -14.745  -0.695  -0.575  1.00  0.00    -0.775 OA
HETATM   40  H51 UNL     1     -14.376  -0.822  -1.487  1.00  0.00     0.167 HD
ENDBRANCH  37  39
ENDBRANCH  36  37
BRANCH  36  41
HETATM   41  N14 UNL     1     -16.876  -2.714   1.525  1.00  0.00     0.093 N 
HETATM   42  H48 UNL     1     -17.632  -2.461   0.887  1.00  0.00     0.314 HD
HETATM   43  H49 UNL     1     -16.599  -3.656   1.236  1.00  0.00     0.314 HD
ENDBRANCH  36  41
ENDBRANCH  35  36
ENDBRANCH  34  35
ENDBRANCH  31  34
ENDBRANCH  20  30
ENDBRANCH  19  20
ENDBRANCH  18  19
ENDBRANCH  17  18
ENDBRANCH  15  17
ENDBRANCH  12  15
ENDBRANCH   7  11
ENDBRANCH   1   5
BRANCH   2  44
HETATM   44  C19 UNL     1       0.870   2.451   1.379  1.00  0.00     0.053 A 
HETATM   45  C18 UNL     1       1.730   1.335   1.518  1.00  0.00     0.066 A 
HETATM   46  C17 UNL     1       3.025   1.793   1.716  1.00  0.00     0.105 A 
HETATM   47  N8  UNL     1       2.941   3.170   1.782  1.00  0.00    -0.354 N 
HETATM   48  C20 UNL     1       1.652   3.570   1.533  1.00  0.00     0.120 A 
HETATM   49  C21 UNL     1       4.006   4.081   2.147  1.00  0.00     0.156 C 
BRANCH  46  50
HETATM   50  C16 UNL     1       4.216   0.978   1.884  1.00  0.00     0.273 C 
HETATM   51  N7  UNL     1       5.278   1.418   1.116  1.00  0.00    -0.320 N 
HETATM   52  H43 UNL     1       5.099   2.146   0.439  1.00  0.00     0.169 HD
HETATM   53  O3  UNL     1       4.220  -0.014   2.603  1.00  0.00    -0.266 OA
BRANCH  51  54
HETATM   54  C13 UNL     1       6.550   0.881   1.109  1.00  0.00     0.053 A 
HETATM   55  C12 UNL     1       7.605   1.301   0.264  1.00  0.00     0.066 A 
HETATM   56  C11 UNL     1       8.721   0.517   0.524  1.00  0.00     0.105 A 
HETATM   57  N6  UNL     1       8.375  -0.310   1.574  1.00  0.00    -0.354 N 
HETATM   58  C14 UNL     1       7.056  -0.120   1.901  1.00  0.00     0.120 A 
HETATM   59  C15 UNL     1       9.261  -1.188   2.310  1.00  0.00     0.156 C 
BRANCH  56  60
HETATM   60  C10 UNL     1      10.009   0.605  -0.140  1.00  0.00     0.273 C 
HETATM   61  N5  UNL     1      10.520  -0.628  -0.499  1.00  0.00    -0.320 N 
HETATM   62  H42 UNL     1       9.931  -1.440  -0.378  1.00  0.00     0.169 HD
HETATM   63  O2  UNL     1      10.539   1.685  -0.378  1.00  0.00    -0.266 OA
BRANCH  61  64
HETATM   64  C3  UNL     1      11.731  -0.836  -1.127  1.00  0.00     0.053 A 
HETATM   65  C2  UNL     1      12.174  -2.082  -1.498  1.00  0.00     0.120 A 
HETATM   66  N1  UNL     1      13.402  -1.943  -2.095  1.00  0.00    -0.356 N 
HETATM   67  C1  UNL     1      14.185  -3.049  -2.609  1.00  0.00     0.156 C 
HETATM   68  C5  UNL     1      13.776  -0.611  -2.110  1.00  0.00     0.082 A 
HETATM   69  C4  UNL     1      12.733   0.084  -1.511  1.00  0.00     0.064 A 
BRANCH  68  70
HETATM   70  C6  UNL     1      15.028  -0.103  -2.669  1.00  0.00     0.177 C 
HETATM   71  O1  UNL     1      15.764  -0.802  -3.369  1.00  0.00    -0.291 OA
BRANCH  70  72
HETATM   72  C7  UNL     1      15.400   1.344  -2.395  1.00  0.00     0.105 C 
BRANCH  72  73
HETATM   73  C8  UNL     1      15.757   1.602  -0.937  1.00  0.00     0.129 C 
BRANCH  73  74
HETATM   74  N2  UNL     1      17.038   0.987  -0.608  1.00  0.00    -0.371 N 
HETATM   75  C9  UNL     1      17.093  -0.127   0.012  1.00  0.00     0.121 C 
HETATM   76  N3  UNL     1      16.115  -0.935   0.475  1.00  0.00    -0.279 NA
HETATM   77  N4  UNL     1      18.298  -0.680   0.271  1.00  0.00    -0.279 NA
HETATM   78  H38 UNL     1      16.372  -1.374   1.351  1.00  0.00     0.126 HD
HETATM   79  H39 UNL     1      15.199  -0.511   0.543  1.00  0.00     0.126 HD
HETATM   80  H40 UNL     1      18.333  -1.649  -0.022  1.00  0.00     0.126 HD
HETATM   81  H41 UNL     1      19.016  -0.151  -0.216  1.00  0.00     0.126 HD
ATOM     82  H2  UNL     1      17.903   1.455  -0.878  1.00  0.00     0.161 HD
ENDBRANCH  73  74
ENDBRANCH  72  73
ENDBRANCH  70  72
ENDBRANCH  68  70
ENDBRANCH  61  64
ENDBRANCH  56  60
ENDBRANCH  51  54
ENDBRANCH  46  50
ENDBRANCH   2  44
TORSDOF 27
