REMARK  0 active torsions:
REMARK  status: ('A' for Active; 'I' for Inactive)
REMARK       I    between atoms: N1_1  and  C12_24 
REMARK       I    between atoms: N2_2  and  C5_17 
REMARK       I    between atoms: N2_2  and  C6_18 
REMARK       I    between atoms: N3_3  and  C13_25 
REMARK       I    between atoms: N3_3  and  C16_28 
REMARK       I    between atoms: N4_4  and  C17_29 
REMARK       I    between atoms: N4_4  and  C18_30 
REMARK       I    between atoms: N5_5  and  C19_31 
REMARK       I    between atoms: N5_5  and  C20_32 
REMARK       I    between atoms: N6_6  and  C22_34 
REMARK       I    between atoms: N7_7  and  C23_35 
REMARK       I    between atoms: N7_7  and  C26_38 
REMARK       I    between atoms: N8_8  and  C27_39 
REMARK       I    between atoms: N8_8  and  C28_40 
REMARK       I    between atoms: N9_9  and  C29_41 
REMARK       I    between atoms: N9_9  and  C30_42 
REMARK       I    between atoms: N10_10  and  C31_43 
REMARK       I    between atoms: N10_10  and  C32_44 
REMARK       I    between atoms: N11_11  and  C33_45 
REMARK       I    between atoms: N11_11  and  C37_49 
REMARK       I    between atoms: N12_12  and  C41_53 
REMARK       I    between atoms: C1_13  and  C5_17 
REMARK       I    between atoms: C6_18  and  C7_19 
REMARK       I    between atoms: C6_18  and  C11_23 
REMARK       I    between atoms: C7_19  and  C8_20 
REMARK       I    between atoms: C11_23  and  O2_73 
REMARK       I    between atoms: C12_24  and  C13_25 
REMARK       I    between atoms: C16_28  and  C17_29 
REMARK       I    between atoms: C17_29  and  C56_68 
REMARK       I    between atoms: C18_30  and  C19_31 
REMARK       I    between atoms: C19_31  and  C52_64 
REMARK       I    between atoms: C20_32  and  C21_33 
REMARK       I    between atoms: C22_34  and  C23_35 
REMARK       I    between atoms: C26_38  and  C27_39 
REMARK       I    between atoms: C27_39  and  C46_58 
REMARK       I    between atoms: C28_40  and  C29_41 
REMARK       I    between atoms: C29_41  and  C42_54 
REMARK       I    between atoms: C30_42  and  C31_43 
REMARK       I    between atoms: C31_43  and  C39_51 
REMARK       I    between atoms: C32_44  and  C33_45 
REMARK       I    between atoms: C33_45  and  C34_46 
REMARK       I    between atoms: C39_51  and  C40_52 
REMARK       I    between atoms: C40_52  and  C41_53 
REMARK       I    between atoms: C42_54  and  C44_56 
REMARK       I    between atoms: C52_64  and  C53_65 
REMARK       I    between atoms: C56_68  and  C57_69 
ROOT
HETATM    1  N1  UNL     1       5.715   0.641   1.205  1.00  0.00    -0.337 N 
HETATM    2  N2  UNL     1       7.146   2.502   2.998  1.00  0.00    -0.353 N 
HETATM    3  N3  UNL     1       3.402   0.936  -0.845  1.00  0.00    -0.342 N 
HETATM    4  N4  UNL     1       2.317  -1.235  -2.483  1.00  0.00    -0.346 N 
HETATM    5  N5  UNL     1       2.181  -2.308  -5.092  1.00  0.00    -0.346 N 
HETATM    6  N6  UNL     1      -1.054  -3.824  -4.905  1.00  0.00    -0.337 N 
HETATM    7  N7  UNL     1      -3.218  -3.441  -2.837  1.00  0.00    -0.342 N 
HETATM    8  N8  UNL     1      -3.815  -0.090  -1.480  1.00  0.00    -0.346 N 
HETATM    9  N9  UNL     1      -4.264   1.100   1.916  1.00  0.00    -0.346 N 
HETATM   10  N10 UNL     1      -6.299   0.549   3.665  1.00  0.00    -0.346 N 
HETATM   11  N11 UNL     1      -8.774  -2.122   3.061  1.00  0.00    -0.344 N 
HETATM   12  N12 UNL     1      -4.751   6.339   5.143  1.00  0.00    -0.370 N 
HETATM   13  C1  UNL     1       6.345   0.216   2.473  1.00  0.00     0.179 C 
HETATM   14  C2  UNL     1       6.951  -1.164   2.165  1.00  0.00     0.037 C 
HETATM   15  C3  UNL     1       6.214  -1.624   0.918  1.00  0.00     0.022 C 
HETATM   16  C4  UNL     1       6.010  -0.326   0.159  1.00  0.00     0.127 C 
HETATM   17  C5  UNL     1       7.445   1.162   3.026  1.00  0.00     0.241 C 
HETATM   18  C6  UNL     1       7.992   3.550   3.581  1.00  0.00     0.108 C 
HETATM   19  C7  UNL     1       7.545   4.902   2.993  1.00  0.00     0.031 C 
HETATM   20  C8  UNL     1       8.416   6.123   3.349  1.00  0.00    -0.021 C 
HETATM   21  C9  UNL     1       7.846   7.374   2.672  1.00  0.00     0.009 C 
HETATM   22  C10 UNL     1       9.879   5.940   2.946  1.00  0.00     0.009 C 
HETATM   23  C11 UNL     1       7.926   3.518   5.124  1.00  0.00     0.189 C 
HETATM   24  C12 UNL     1       4.761   1.646   1.196  1.00  0.00     0.248 C 
HETATM   25  C13 UNL     1       4.026   2.056  -0.129  1.00  0.00     0.106 C 
HETATM   26  C14 UNL     1       2.962   3.129   0.176  1.00  0.00     0.048 C 
HETATM   27  C15 UNL     1       5.080   2.693  -1.055  1.00  0.00     0.048 C 
HETATM   28  C16 UNL     1       2.451   0.123  -0.268  1.00  0.00     0.241 C 
HETATM   29  C17 UNL     1       1.653  -0.792  -1.247  1.00  0.00     0.177 C 
HETATM   30  C18 UNL     1       2.585  -0.378  -3.537  1.00  0.00     0.241 C 
HETATM   31  C19 UNL     1       3.012  -1.122  -4.833  1.00  0.00     0.180 C 
HETATM   32  C20 UNL     1       0.807  -2.248  -5.215  1.00  0.00     0.241 C 
HETATM   33  C21 UNL     1       0.146  -3.557  -5.693  1.00  0.00     0.179 C 
HETATM   34  C22 UNL     1      -0.929  -4.235  -3.590  1.00  0.00     0.248 C 
HETATM   35  C23 UNL     1      -2.213  -4.516  -2.730  1.00  0.00     0.106 C 
HETATM   36  C24 UNL     1      -2.827  -5.839  -3.235  1.00  0.00     0.048 C 
HETATM   37  C25 UNL     1      -1.838  -4.743  -1.252  1.00  0.00     0.048 C 
HETATM   38  C26 UNL     1      -2.925  -2.153  -2.412  1.00  0.00     0.241 C 
HETATM   39  C27 UNL     1      -4.141  -1.200  -2.368  1.00  0.00     0.180 C 
HETATM   40  C28 UNL     1      -4.062  -0.185  -0.126  1.00  0.00     0.241 C 
HETATM   41  C29 UNL     1      -3.446   0.954   0.719  1.00  0.00     0.180 C 
HETATM   42  C30 UNL     1      -5.269   2.045   1.982  1.00  0.00     0.241 C 
HETATM   43  C31 UNL     1      -6.130   1.956   3.263  1.00  0.00     0.177 C 
HETATM   44  C32 UNL     1      -7.255  -0.229   3.036  1.00  0.00     0.246 C 
HETATM   45  C33 UNL     1      -7.471  -1.675   3.599  1.00  0.00     0.109 C 
HETATM   46  C34 UNL     1      -7.374  -1.754   5.145  1.00  0.00     0.036 C 
HETATM   47  C35 UNL     1      -7.790  -3.091   5.752  1.00  0.00     0.008 C 
HETATM   48  C36 UNL     1      -6.371  -2.553   2.974  1.00  0.00     0.049 C 
HETATM   49  C37 UNL     1      -9.974  -1.623   3.526  1.00  0.00     0.214 C 
HETATM   50  C38 UNL     1     -11.156  -2.009   2.676  1.00  0.00     0.117 C 
HETATM   51  C39 UNL     1      -5.456   2.734   4.400  1.00  0.00     0.044 C 
HETATM   52  C40 UNL     1      -5.406   4.241   4.142  1.00  0.00     0.105 C 
HETATM   53  C41 UNL     1      -4.847   4.991   5.330  1.00  0.00     0.215 C 
HETATM   54  C42 UNL     1      -1.958   0.653   1.025  1.00  0.00     0.013 C 
HETATM   55  C43 UNL     1      -1.765  -0.443   2.081  1.00  0.00     0.012 C 
HETATM   56  C44 UNL     1      -1.150   1.923   1.371  1.00  0.00     0.002 C 
HETATM   57  C45 UNL     1      -1.566   2.665   2.632  1.00  0.00     0.005 C 
HETATM   58  C46 UNL     1      -4.543  -0.732  -3.784  1.00  0.00     0.009 C 
HETATM   59  C47 UNL     1      -3.518   0.206  -4.430  1.00  0.00     0.012 C 
HETATM   60  C48 UNL     1      -5.918  -0.055  -3.760  1.00  0.00     0.012 C 
HETATM   61  C49 UNL     1      -2.237  -3.461  -5.661  1.00  0.00     0.127 C 
HETATM   62  C50 UNL     1      -1.827  -3.748  -7.094  1.00  0.00     0.022 C 
HETATM   63  C51 UNL     1      -0.350  -3.366  -7.134  1.00  0.00     0.037 C 
HETATM   64  C52 UNL     1       3.271  -0.250  -6.089  1.00  0.00     0.013 C 
HETATM   65  C53 UNL     1       4.431   0.763  -5.925  1.00  0.00     0.002 C 
HETATM   66  C54 UNL     1       5.749   0.153  -5.469  1.00  0.00     0.005 C 
HETATM   67  C55 UNL     1       2.036   0.498  -6.602  1.00  0.00     0.012 C 
HETATM   68  C56 UNL     1       1.103  -2.015  -0.479  1.00  0.00     0.038 C 
HETATM   69  C57 UNL     1       2.127  -2.908   0.263  1.00  0.00    -0.020 C 
HETATM   70  C58 UNL     1       1.381  -4.001   1.037  1.00  0.00     0.009 C 
HETATM   71  C59 UNL     1       3.161  -3.556  -0.656  1.00  0.00     0.009 C 
HETATM   72  O1  UNL     1       8.462   0.749   3.587  1.00  0.00    -0.271 OA
HETATM   73  O2  UNL     1       8.721   2.469   5.675  1.00  0.00    -0.399 OA
HETATM   74  O3  UNL     1       4.615   2.334   2.219  1.00  0.00    -0.271 OA
HETATM   75  O4  UNL     1       2.185   0.192   0.931  1.00  0.00    -0.271 OA
HETATM   76  O5  UNL     1       2.662   0.838  -3.383  1.00  0.00    -0.271 OA
HETATM   77  O6  UNL     1       0.165  -1.230  -4.973  1.00  0.00    -0.271 OA
HETATM   78  O7  UNL     1       0.198  -4.507  -3.153  1.00  0.00    -0.271 OA
HETATM   79  O8  UNL     1      -1.789  -1.776  -2.133  1.00  0.00    -0.271 OA
HETATM   80  O9  UNL     1      -4.683  -1.122   0.376  1.00  0.00    -0.271 OA
HETATM   81  O10 UNL     1      -5.355   2.985   1.195  1.00  0.00    -0.271 OA
HETATM   82  O11 UNL     1      -7.819   0.158   2.010  1.00  0.00    -0.271 OA
HETATM   83  O12 UNL     1     -10.097  -0.922   4.524  1.00  0.00    -0.274 OA
HETATM   84  O13 UNL     1      -4.512   4.473   6.387  1.00  0.00    -0.274 OA
HETATM   85  H1  UNL     1       6.157   2.719   2.847  1.00  0.00     0.163 HD
HETATM   86  H2  UNL     1       3.246   1.089  -1.842  1.00  0.00     0.163 HD
HETATM   87  H3  UNL     1       1.997  -2.141  -2.813  1.00  0.00     0.163 HD
HETATM   88  H4  UNL     1       2.654  -3.155  -5.379  1.00  0.00     0.163 HD
HETATM   89  H5  UNL     1      -4.184  -3.723  -2.722  1.00  0.00     0.163 HD
HETATM   90  H6  UNL     1      -3.005   0.460  -1.748  1.00  0.00     0.163 HD
HETATM   91  H7  UNL     1      -4.490   0.236   2.400  1.00  0.00     0.163 HD
HETATM   92  H8  UNL     1      -6.090   0.333   4.630  1.00  0.00     0.163 HD
HETATM   93  H9  UNL     1      -8.765  -2.259   2.056  1.00  0.00     0.163 HD
HETATM   94  H10 UNL     1      -4.311   6.875   5.880  1.00  0.00     0.159 HD
HETATM   95  H11 UNL     1      -4.828   6.760   4.227  1.00  0.00     0.159 HD
HETATM   96  HA4 UNL     1       8.713   1.723   5.037  1.00  0.00     0.209 HD
ENDROOT
TORSDOF 34
