REMARK  0 active torsions:
REMARK  status: ('A' for Active; 'I' for Inactive)
REMARK       I    between atoms: C2_2  and  C3_3 
REMARK       I    between atoms: C3_3  and  C5_5 
REMARK       I    between atoms: C5_5  and  C6_6 
REMARK       I    between atoms: C5_5  and  N3_95 
REMARK       I    between atoms: C6_6  and  C7_7 
REMARK       I    between atoms: C6_6  and  O5_82 
REMARK       I    between atoms: C7_7  and  C8_8 
REMARK       I    between atoms: C8_8  and  N1_93 
REMARK       I    between atoms: C12_12  and  C13_13 
REMARK       I    between atoms: C13_13  and  C14_14 
REMARK       I    between atoms: C13_13  and  O4_81 
REMARK       I    between atoms: C14_14  and  C16_16 
REMARK       I    between atoms: C16_16  and  N2_94 
REMARK       I    between atoms: C17_17  and  C19_19 
REMARK       I    between atoms: C17_17  and  N2_94 
REMARK       I    between atoms: C19_19  and  C20_20 
REMARK       I    between atoms: C19_19  and  O3_80 
REMARK       I    between atoms: C29_29  and  C30_30 
REMARK       I    between atoms: C29_29  and  N3_95 
REMARK       I    between atoms: C30_30  and  C31_31 
REMARK       I    between atoms: C30_30  and  N4_96 
REMARK       I    between atoms: C34_34  and  C35_35 
REMARK       I    between atoms: C34_34  and  N4_96 
REMARK       I    between atoms: C35_35  and  C36_36 
REMARK       I    between atoms: C35_35  and  N5_97 
REMARK       I    between atoms: C40_40  and  O9_86 
REMARK       I    between atoms: C40_40  and  N5_97 
REMARK       I    between atoms: C41_41  and  C42_42 
REMARK       I    between atoms: C41_41  and  O9_86 
REMARK       I    between atoms: C45_45  and  N6_98 
REMARK       I    between atoms: C48_48  and  C49_49 
REMARK       I    between atoms: C48_48  and  N6_98 
REMARK       I    between atoms: C49_49  and  C50_50 
REMARK       I    between atoms: C49_49  and  N9_101 
REMARK       I    between atoms: C50_50  and  C51_51 
REMARK       I    between atoms: C51_51  and  C52_52 
REMARK       I    between atoms: C52_52  and  N7_99 
REMARK       I    between atoms: C53_53  and  N7_99 
REMARK       I    between atoms: C53_53  and  N8_100 
REMARK       I    between atoms: C54_54  and  C55_55 
REMARK       I    between atoms: C54_54  and  N9_101 
REMARK       I    between atoms: C55_55  and  C56_56 
REMARK       I    between atoms: C55_55  and  N10_102 
REMARK       I    between atoms: C59_59  and  C60_60 
REMARK       I    between atoms: C59_59  and  N10_102 
REMARK       I    between atoms: C60_60  and  C61_61 
REMARK       I    between atoms: C61_61  and  C62_62 
REMARK       I    between atoms: C62_62  and  C63_63 
REMARK       I    between atoms: C63_63  and  C64_64 
REMARK       I    between atoms: C64_64  and  N11_103 
REMARK       I    between atoms: C67_67  and  S1_104 
REMARK       I    between atoms: C69_69  and  S1_104 
ROOT
HETATM    1  C1  UNL     1      -4.875   6.136   0.779  1.00  0.00     0.005 C 
HETATM    2  C2  UNL     1      -5.950   5.528   1.665  1.00  0.00     0.002 C 
HETATM    3  C3  UNL     1      -7.158   4.856   0.951  1.00  0.00     0.006 C 
HETATM    4  C4  UNL     1      -8.251   4.739   2.033  1.00  0.00     0.012 C 
HETATM    5  C5  UNL     1      -6.818   3.472   0.275  1.00  0.00     0.119 C 
HETATM    6  C6  UNL     1      -8.030   2.684  -0.373  1.00  0.00     0.152 C 
HETATM    7  C7  UNL     1      -8.391   1.333   0.273  1.00  0.00     0.137 C 
HETATM    8  C8  UNL     1      -8.671   1.349   1.762  1.00  0.00     0.222 C 
HETATM    9  C9  UNL     1     -10.010   0.578   3.652  1.00  0.00     0.126 C 
HETATM   10  C10 UNL     1     -10.901  -0.647   3.690  1.00  0.00     0.022 C 
HETATM   11  C11 UNL     1     -11.881  -0.369   2.563  1.00  0.00     0.029 C 
HETATM   12  C12 UNL     1     -11.024   0.309   1.473  1.00  0.00     0.117 C 
HETATM   13  C13 UNL     1     -11.811   1.358   0.622  1.00  0.00     0.156 C 
HETATM   14  C14 UNL     1     -12.634   0.754  -0.541  1.00  0.00     0.105 C 
HETATM   15  C15 UNL     1     -11.741   0.221  -1.664  1.00  0.00     0.022 C 
HETATM   16  C16 UNL     1     -13.619  -0.317  -0.086  1.00  0.00     0.224 C 
HETATM   17  C17 UNL     1     -15.705  -0.672   1.249  1.00  0.00     0.113 C 
HETATM   18  C18 UNL     1     -16.863  -0.550   0.257  1.00  0.00     0.035 C 
HETATM   19  C19 UNL     1     -16.078  -0.244   2.694  1.00  0.00     0.173 C 
HETATM   20  C20 UNL     1     -17.069  -1.167   3.375  1.00  0.00    -0.028 A 
HETATM   21  C21 UNL     1     -16.604  -2.299   4.063  1.00  0.00     0.010 A 
HETATM   22  C22 UNL     1     -17.499  -3.168   4.690  1.00  0.00     0.001 A 
HETATM   23  C23 UNL     1     -18.868  -2.921   4.634  1.00  0.00     0.000 A 
HETATM   24  C24 UNL     1     -19.346  -1.806   3.948  1.00  0.00     0.001 A 
HETATM   25  C25 UNL     1     -18.453  -0.936   3.321  1.00  0.00     0.010 A 
HETATM   26  C26 UNL     1     -12.122   3.346   1.919  1.00  0.00     0.202 C 
HETATM   27  C27 UNL     1      -9.424   4.076  -1.746  1.00  0.00     0.202 C 
HETATM   28  C28 UNL     1      -5.909   4.466  -1.885  1.00  0.00     0.153 C 
HETATM   29  C29 UNL     1      -4.748   2.577  -0.950  1.00  0.00     0.243 C 
HETATM   30  C30 UNL     1      -4.467   1.534   0.171  1.00  0.00     0.180 C 
HETATM   31  C31 UNL     1      -3.657   2.155   1.332  1.00  0.00     0.009 C 
HETATM   32  C32 UNL     1      -3.599   1.199   2.527  1.00  0.00     0.012 C 
HETATM   33  C33 UNL     1      -2.240   2.581   0.935  1.00  0.00     0.012 C 
HETATM   34  C34 UNL     1      -4.483  -0.573  -1.106  1.00  0.00     0.241 C 
HETATM   35  C35 UNL     1      -3.643  -1.625  -1.880  1.00  0.00     0.184 C 
HETATM   36  C36 UNL     1      -2.768  -2.582  -1.024  1.00  0.00     0.010 C 
HETATM   37  C37 UNL     1      -3.612  -3.250   0.071  1.00  0.00     0.012 C 
HETATM   38  C38 UNL     1      -1.502  -2.005  -0.394  1.00  0.00     0.012 C 
HETATM   39  C39 UNL     1      -3.445  -1.664  -4.365  1.00  0.00     0.156 C 
HETATM   40  C40 UNL     1      -2.044  -0.091  -3.045  1.00  0.00     0.363 C 
HETATM   41  C41 UNL     1      -0.607   1.317  -4.286  1.00  0.00     0.219 C 
HETATM   42  C42 UNL     1       0.782   0.732  -4.266  1.00  0.00    -0.034 A 
HETATM   43  C43 UNL     1       1.359   0.226  -5.436  1.00  0.00     0.011 A 
HETATM   44  C44 UNL     1       2.640  -0.338  -5.416  1.00  0.00     0.030 A 
HETATM   45  C45 UNL     1       3.361  -0.413  -4.225  1.00  0.00     0.034 A 
HETATM   46  C46 UNL     1       2.780   0.082  -3.051  1.00  0.00     0.030 A 
HETATM   47  C47 UNL     1       1.502   0.646  -3.070  1.00  0.00     0.011 A 
HETATM   48  C48 UNL     1       5.444  -1.497  -5.120  1.00  0.00     0.245 C 
HETATM   49  C49 UNL     1       6.802  -2.041  -4.598  1.00  0.00     0.177 C 
HETATM   50  C50 UNL     1       6.793  -3.574  -4.726  1.00  0.00     0.036 C 
HETATM   51  C51 UNL     1       8.039  -4.327  -4.234  1.00  0.00     0.022 C 
HETATM   52  C52 UNL     1       9.360  -3.931  -4.892  1.00  0.00     0.124 C 
HETATM   53  C53 UNL     1      10.901  -2.012  -4.970  1.00  0.00     0.291 C 
HETATM   54  C54 UNL     1       7.791  -0.451  -2.944  1.00  0.00     0.241 C 
HETATM   55  C55 UNL     1       8.068  -0.225  -1.441  1.00  0.00     0.180 C 
HETATM   56  C56 UNL     1       8.308   1.263  -1.111  1.00  0.00     0.009 C 
HETATM   57  C57 UNL     1       8.676   1.454   0.365  1.00  0.00     0.012 C 
HETATM   58  C58 UNL     1       7.063   2.104  -1.422  1.00  0.00     0.012 C 
HETATM   59  C59 UNL     1       9.130  -2.381  -0.876  1.00  0.00     0.218 C 
HETATM   60  C60 UNL     1      10.433  -3.142  -0.749  1.00  0.00     0.103 C 
HETATM   61  C61 UNL     1      11.238  -2.802   0.502  1.00  0.00     0.009 C 
HETATM   62  C62 UNL     1      12.061  -1.509   0.458  1.00  0.00     0.002 C 
HETATM   63  C63 UNL     1      13.030  -1.357  -0.720  1.00  0.00     0.020 C 
HETATM   64  C64 UNL     1      14.119  -2.432  -0.811  1.00  0.00     0.135 C 
HETATM   65  C65 UNL     1      15.081  -3.389   1.274  1.00  0.00     0.228 C 
HETATM   66  C66 UNL     1      16.217  -3.099   2.210  1.00  0.00     0.128 C 
HETATM   67  C67 UNL     1      16.641  -1.683   1.851  1.00  0.00     0.153 C 
HETATM   68  C68 UNL     1      15.967  -1.442   0.520  1.00  0.00     0.241 C 
HETATM   69  C69 UNL     1      17.262  -0.598   4.303  1.00  0.00    -0.018 C 
HETATM   70  C70 UNL     1      16.910  -1.291   5.404  1.00  0.00     0.014 C 
HETATM   71  C71 UNL     1      17.605  -1.680   6.612  1.00  0.00     0.001 C 
HETATM   72  C72 UNL     1      18.474  -1.064   7.427  1.00  0.00     0.000 C 
HETATM   73  C73 UNL     1      19.148   0.208   7.326  1.00  0.00     0.000 C 
HETATM   74  C74 UNL     1      20.147   0.484   6.473  1.00  0.00    -0.000 C 
HETATM   75  C75 UNL     1      20.570  -0.400   5.413  1.00  0.00    -0.004 C 
HETATM   76  C76 UNL     1      19.818  -0.622   4.325  1.00  0.00    -0.022 C 
HETATM   77  C77 UNL     1      18.555   0.131   4.013  1.00  0.00     0.073 C 
HETATM   78  O1  UNL     1      -7.786   1.711   2.543  1.00  0.00    -0.273 OA
HETATM   79  O2  UNL     1     -13.552  -1.487  -0.451  1.00  0.00    -0.273 OA
HETATM   80  O3  UNL     1     -16.541   1.113   2.711  1.00  0.00    -0.389 OA
HETATM   81  O4  UNL     1     -12.717   2.156   1.414  1.00  0.00    -0.388 OA
HETATM   82  O5  UNL     1      -9.236   3.454  -0.484  1.00  0.00    -0.388 OA
HETATM   83  O6  UNL     1      -4.084   2.550  -1.995  1.00  0.00    -0.271 OA
HETATM   84  O7  UNL     1      -5.715  -0.607  -1.116  1.00  0.00    -0.271 OA
HETATM   85  O8  UNL     1      -1.665   0.426  -2.000  1.00  0.00    -0.238 OA
HETATM   86  O9  UNL     1      -1.575   0.263  -4.269  1.00  0.00    -0.299 OA
HETATM   87  O10 UNL     1       5.130  -1.625  -6.301  1.00  0.00    -0.271 OA
HETATM   88  O11 UNL     1      11.708  -2.506  -5.740  1.00  0.00    -0.254 OA
HETATM   89  O12 UNL     1       8.288   0.245  -3.826  1.00  0.00    -0.271 OA
HETATM   90  O13 UNL     1       8.033  -2.932  -0.813  1.00  0.00    -0.274 OA
HETATM   91  O14 UNL     1      14.374  -4.382   1.348  1.00  0.00    -0.273 OA
HETATM   92  O15 UNL     1      16.220  -0.517  -0.240  1.00  0.00    -0.272 OA
HETATM   93  N1  UNL     1      -9.880   0.872   2.232  1.00  0.00    -0.345 N 
HETATM   94  N2  UNL     1     -14.587   0.145   0.770  1.00  0.00    -0.354 N 
HETATM   95  N3  UNL     1      -5.712   3.580  -0.741  1.00  0.00    -0.347 N 
HETATM   96  N4  UNL     1      -3.779   0.384  -0.415  1.00  0.00    -0.346 N 
HETATM   97  N5  UNL     1      -3.002  -1.090  -3.101  1.00  0.00    -0.319 N 
HETATM   98  N6  UNL     1       4.650  -0.964  -4.119  1.00  0.00    -0.325 N 
HETATM   99  N7  UNL     1       9.776  -2.608  -4.498  1.00  0.00    -0.348 N 
HETATM  100  N8  UNL     1      11.038  -0.753  -4.472  1.00  0.00    -0.254 NA
HETATM  101  N9  UNL     1       7.069  -1.601  -3.216  1.00  0.00    -0.346 N 
HETATM  102  N10 UNL     1       9.252  -1.041  -1.153  1.00  0.00    -0.347 N 
HETATM  103  N11 UNL     1      15.024  -2.413   0.324  1.00  0.00    -0.287 N 
HETATM  104  S1  UNL     1      16.020  -0.445   3.049  1.00  0.00    -0.119 SA
HETATM  105  HA7 UNL     1     -16.893   1.272   3.604  1.00  0.00     0.210 HD
HETATM  106  HA8 UNL     1     -14.574   1.129   1.037  1.00  0.00     0.163 HD
HETATM  107  HA9 UNL     1      -2.863   0.589  -0.820  1.00  0.00     0.163 HD
HETATM  108  HB0 UNL     1       5.080  -0.948  -3.203  1.00  0.00     0.169 HD
HETATM  109  HB1 UNL     1       9.453  -2.247  -3.615  1.00  0.00     0.163 HD
HETATM  110  HB2 UNL     1      11.781  -0.247  -4.939  1.00  0.00     0.128 HD
HETATM  111  HB3 UNL     1      10.166  -0.225  -4.454  1.00  0.00     0.128 HD
HETATM  112  HB4 UNL     1       6.940  -2.269  -2.452  1.00  0.00     0.163 HD
HETATM  113  HB5 UNL     1      10.143  -0.702  -1.502  1.00  0.00     0.163 HD
ENDROOT
TORSDOF 42
