REMARK  16 active torsions:
REMARK  status: ('A' for Active; 'I' for Inactive)
REMARK    1  A    between atoms: C5_5  and  C6_6 
REMARK       I    between atoms: C6_6  and  N2_39 
REMARK    2  A    between atoms: C7_7  and  N2_39 
REMARK    3  A    between atoms: C9_9  and  C11_11 
REMARK       I    between atoms: C11_11  and  N4_41 
REMARK    4  A    between atoms: C12_12  and  N4_41 
REMARK    5  A    between atoms: C14_14  and  C16_16 
REMARK       I    between atoms: C16_16  and  N6_43 
REMARK    6  A    between atoms: C17_17  and  N6_43 
REMARK    7  A    between atoms: C19_19  and  C21_21 
REMARK       I    between atoms: C21_21  and  N8_45 
REMARK    8  A    between atoms: C22_22  and  C23_23 
REMARK    9  A    between atoms: C22_22  and  N8_45 
REMARK   10  A    between atoms: C23_23  and  C24_24 
REMARK   11  A    between atoms: C24_24  and  N9_46 
REMARK   12  A    between atoms: C25_25  and  N9_46 
REMARK   13  A    between atoms: C30_30  and  N13_52 
REMARK   14  A    between atoms: C32_32  and  O8_60 
REMARK   15  A    between atoms: C33_33  and  C34_34 
REMARK   16  A    between atoms: C34_34  and  O7_59 
ROOT
HETATM    1  C17 UNL     1      -0.118  -1.455  -1.089  1.00  0.00     0.053 A 
HETATM    2  C18 UNL     1       0.019  -2.610  -1.821  1.00  0.00     0.120 A 
HETATM    3  C19 UNL     1       2.104  -1.977  -1.207  1.00  0.00     0.104 A 
HETATM    4  C20 UNL     1       1.184  -1.062  -0.703  1.00  0.00     0.066 A 
HETATM    5  C35 UNL     1       1.879  -4.077  -2.587  1.00  0.00     0.156 C 
HETATM    6  N7  UNL     1       1.354  -2.922  -1.887  1.00  0.00    -0.354 N 
ENDROOT
BRANCH   3   7
HETATM    7  C21 UNL     1       3.554  -2.009  -1.081  1.00  0.00     0.268 C 
HETATM    8  N8  UNL     1       4.117  -0.897  -0.492  1.00  0.00    -0.356 N 
HETATM    9  H37 UNL     1       3.527  -0.120  -0.232  1.00  0.00     0.162 HD
HETATM   10  O4  UNL     1       4.246  -2.950  -1.464  1.00  0.00    -0.266 OA
BRANCH   8  11
HETATM   11  C22 UNL     1       5.549  -0.763  -0.320  1.00  0.00     0.124 C 
BRANCH  11  12
HETATM   12  C23 UNL     1       6.049  -1.572   0.876  1.00  0.00     0.040 C 
BRANCH  12  13
HETATM   13  C24 UNL     1       7.564  -1.489   1.027  1.00  0.00     0.139 C 
BRANCH  13  14
HETATM   14  N9  UNL     1       8.222  -2.167  -0.077  1.00  0.00    -0.226 N 
HETATM   15  H38 UNL     1       7.821  -3.066  -0.318  1.00  0.00     0.177 HD
BRANCH  14  16
HETATM   16  C25 UNL     1       9.537  -1.959  -0.382  1.00  0.00     0.682 A 
HETATM   17  N10 UNL     1      10.216  -0.959   0.116  1.00  0.00    -0.174 N 
HETATM   18  C26 UNL     1      11.502  -0.905  -0.299  1.00  0.00     0.159 A 
ATOM     19  H10 UNL     1       9.812  -0.280   0.760  1.00  0.00     0.186 HD
HETATM   20  C27 UNL     1      12.157  -1.764  -1.151  1.00  0.00     0.147 A 
HETATM   21  N13 UNL     1      12.434   0.033   0.044  1.00  0.00    -0.299 N 
HETATM   22  C28 UNL     1      11.403  -2.867  -1.704  1.00  0.00     0.290 A 
HETATM   23  N12 UNL     1      13.466  -1.394  -1.330  1.00  0.00    -0.345 N 
HETATM   24  N11 UNL     1      10.088  -2.880  -1.258  1.00  0.00    -0.154 N 
HETATM   25  O5  UNL     1      11.834  -3.715  -2.479  1.00  0.00    -0.265 OA
HETATM   26  H39 UNL     1       9.521  -3.616  -1.640  1.00  0.00     0.187 HD
HETATM   27  C29 UNL     1      13.599  -0.305  -0.601  1.00  0.00     0.188 A 
ATOM     28  H12 UNL     1      14.175  -1.857  -1.898  1.00  0.00     0.167 HD
BRANCH  21  29
HETATM   29  C30 UNL     1      12.259   1.185   0.908  1.00  0.00     0.243 A 
HETATM   30  C31 UNL     1      11.961   0.848   2.373  1.00  0.00     0.121 A 
HETATM   31  C32 UNL     1      10.659   1.526   2.557  1.00  0.00     0.079 A 
HETATM   32  C33 UNL     1      10.276   2.125   1.430  1.00  0.00     0.101 A 
HETATM   33  O6  UNL     1      11.185   2.005   0.376  1.00  0.00    -0.325 OA
BRANCH  31  34
HETATM   34  O8  UNL     1      10.008   1.427   3.748  1.00  0.00    -0.362 OA
HETATM   35  H41 UNL     1       9.112   1.795   3.654  1.00  0.00     0.217 HD
ENDBRANCH  31  34
BRANCH  32  36
HETATM   36  C34 UNL     1       9.021   2.869   1.126  1.00  0.00     0.231 C 
BRANCH  36  37
HETATM   37  O7  UNL     1       8.196   2.079   0.276  1.00  0.00    -0.394 OA
HETATM   38  H40 UNL     1       8.801   1.535  -0.268  1.00  0.00     0.209 HD
ENDBRANCH  36  37
ENDBRANCH  32  36
ENDBRANCH  21  29
ENDBRANCH  14  16
ENDBRANCH  13  14
ENDBRANCH  12  13
ENDBRANCH  11  12
ENDBRANCH   8  11
ENDBRANCH   3   7
BRANCH   1  39
HETATM   39  N6  UNL     1      -1.345  -0.874  -0.834  1.00  0.00    -0.320 N 
HETATM   40  C16 UNL     1      -1.547   0.294  -0.122  1.00  0.00     0.273 C 
HETATM   41  O3  UNL     1      -0.639   0.970   0.359  1.00  0.00    -0.266 OA
HETATM   42  H36 UNL     1      -2.145  -1.347  -1.226  1.00  0.00     0.169 HD
BRANCH  40  43
HETATM   43  C14 UNL     1      -2.951   0.682   0.010  1.00  0.00     0.105 A 
HETATM   44  C15 UNL     1      -4.109  -0.014  -0.329  1.00  0.00     0.066 A 
HETATM   45  C12 UNL     1      -5.236   0.778  -0.012  1.00  0.00     0.053 A 
HETATM   46  C13 UNL     1      -4.758   1.948   0.526  1.00  0.00     0.120 A 
HETATM   47  N5  UNL     1      -3.386   1.886   0.542  1.00  0.00    -0.354 N 
HETATM   48  C36 UNL     1      -2.540   2.951   1.041  1.00  0.00     0.156 C 
BRANCH  45  49
HETATM   49  N4  UNL     1      -6.585   0.524  -0.166  1.00  0.00    -0.320 N 
HETATM   50  C11 UNL     1      -7.127  -0.624  -0.716  1.00  0.00     0.273 C 
HETATM   51  O2  UNL     1      -6.455  -1.557  -1.150  1.00  0.00    -0.266 OA
HETATM   52  H35 UNL     1      -7.208   1.254   0.143  1.00  0.00     0.169 HD
BRANCH  50  53
HETATM   53  C9  UNL     1      -8.590  -0.644  -0.752  1.00  0.00     0.105 A 
HETATM   54  C10 UNL     1      -9.512   0.271  -0.248  1.00  0.00     0.066 A 
HETATM   55  C7  UNL     1     -10.820  -0.186  -0.529  1.00  0.00     0.053 A 
HETATM   56  C8  UNL     1     -10.687  -1.378  -1.199  1.00  0.00     0.120 A 
HETATM   57  N3  UNL     1      -9.347  -1.652  -1.328  1.00  0.00    -0.354 N 
HETATM   58  C37 UNL     1      -8.830  -2.835  -1.985  1.00  0.00     0.156 C 
BRANCH  55  59
HETATM   59  N2  UNL     1     -12.048   0.374  -0.236  1.00  0.00    -0.320 N 
HETATM   60  C6  UNL     1     -12.247   1.557   0.454  1.00  0.00     0.272 C 
HETATM   61  O1  UNL     1     -11.337   2.243   0.913  1.00  0.00    -0.266 OA
HETATM   62  H34 UNL     1     -12.856  -0.153  -0.530  1.00  0.00     0.169 HD
BRANCH  60  63
HETATM   63  C5  UNL     1     -13.653   1.927   0.611  1.00  0.00     0.102 A 
HETATM   64  C4  UNL     1     -14.788   1.425  -0.020  1.00  0.00     0.037 A 
HETATM   65  C3  UNL     1     -15.923   2.113   0.468  1.00  0.00     0.020 A 
HETATM   66  C2  UNL     1     -15.474   3.031   1.384  1.00  0.00     0.091 A 
HETATM   67  N1  UNL     1     -14.109   2.923   1.463  1.00  0.00    -0.357 N 
HETATM   68  C1  UNL     1     -13.287   3.738   2.334  1.00  0.00     0.156 C 
ENDBRANCH  60  63
ENDBRANCH  55  59
ENDBRANCH  50  53
ENDBRANCH  45  49
ENDBRANCH  40  43
ENDBRANCH   1  39
TORSDOF 16
