REMARK  18 active torsions:
REMARK  status: ('A' for Active; 'I' for Inactive)
REMARK    1  A    between atoms: C3_3  and  N8_43 
REMARK    2  A    between atoms: C5_5  and  C6_6 
REMARK       I    between atoms: C6_6  and  N2_35 
REMARK    3  A    between atoms: C7_7  and  N2_35 
REMARK    4  A    between atoms: C8_8  and  C10_10 
REMARK       I    between atoms: C10_10  and  N5_39 
REMARK    5  A    between atoms: C11_11  and  C12_12 
REMARK    6  A    between atoms: C11_11  and  N5_39 
REMARK    7  A    between atoms: C12_12  and  C13_13 
REMARK    8  A    between atoms: C13_13  and  N7_42 
REMARK    9  A    between atoms: C15_15  and  C16_16 
REMARK       I    between atoms: C15_15  and  N8_43 
REMARK   10  A    between atoms: C18_18  and  N11_47 
REMARK   11  A    between atoms: C20_20  and  C21_21 
REMARK       I    between atoms: C20_20  and  N11_47 
REMARK   12  A    between atoms: C22_22  and  N15_53 
REMARK   13  A    between atoms: C23_23  and  C24_24 
REMARK       I    between atoms: C23_23  and  N15_53 
REMARK   14  A    between atoms: C27_27  and  N16_54 
REMARK   15  A    between atoms: C30_30  and  C31_31 
REMARK   16  A    between atoms: C30_30  and  N16_54 
REMARK   17  A    between atoms: C32_32  and  C33_33 
REMARK   18  A    between atoms: C32_32  and  N16_54 
ROOT
HETATM    1  C16 UNL     1       0.193   0.121   0.175  1.00  0.00     0.122 A 
HETATM    2  C17 UNL     1      -0.777  -0.674   0.767  1.00  0.00     0.086 A 
HETATM    3  C18 UNL     1      -2.017  -0.229   0.265  1.00  0.00     0.125 A 
HETATM    4  C19 UNL     1      -0.008   2.024  -1.486  1.00  0.00     0.178 C 
HETATM    5  N9  UNL     1      -1.855   0.778  -0.588  1.00  0.00    -0.283 N 
ATOM      6  H9  UNL     1      -2.578   1.287  -1.096  1.00  0.00     0.189 HD
HETATM    7  N10 UNL     1      -0.523   0.976  -0.632  1.00  0.00    -0.290 N 
ENDROOT
BRANCH   1   8
HETATM    8  C15 UNL     1       1.640   0.132   0.303  1.00  0.00     0.274 C 
HETATM    9  N8  UNL     1       2.142  -0.818   1.175  1.00  0.00    -0.320 N 
HETATM   10  H35 UNL     1       1.500  -1.434   1.650  1.00  0.00     0.169 HD
HETATM   11  O3  UNL     1       2.338   0.927  -0.320  1.00  0.00    -0.266 OA
BRANCH   9  12
HETATM   12  C3  UNL     1       3.479  -1.007   1.468  1.00  0.00     0.053 A 
HETATM   13  C2  UNL     1       3.917  -1.969   2.345  1.00  0.00     0.120 A 
HETATM   14  N1  UNL     1       5.286  -1.899   2.414  1.00  0.00    -0.354 N 
HETATM   15  C1  UNL     1       6.094  -2.768   3.246  1.00  0.00     0.156 C 
HETATM   16  C5  UNL     1       5.760  -0.893   1.586  1.00  0.00     0.105 A 
HETATM   17  C4  UNL     1       4.629  -0.335   0.994  1.00  0.00     0.066 A 
BRANCH  16  18
HETATM   18  C6  UNL     1       7.173  -0.552   1.424  1.00  0.00     0.274 C 
HETATM   19  N2  UNL     1       7.410   0.505   0.577  1.00  0.00    -0.306 N 
HETATM   20  H30 UNL     1       6.651   0.987   0.123  1.00  0.00     0.170 HD
HETATM   21  O1  UNL     1       8.061  -1.171   2.005  1.00  0.00    -0.266 OA
BRANCH  19  22
HETATM   22  C7  UNL     1       8.641   1.021   0.260  1.00  0.00     0.125 A 
HETATM   23  C9  UNL     1       9.927   0.638   0.688  1.00  0.00     0.086 A 
HETATM   24  C8  UNL     1      10.813   1.472   0.030  1.00  0.00     0.121 A 
HETATM   25  N4  UNL     1      10.014   2.344  -0.662  1.00  0.00    -0.290 N 
HETATM   26  C14 UNL     1      10.416   3.528  -1.386  1.00  0.00     0.178 C 
HETATM   27  N3  UNL     1       8.702   2.051  -0.587  1.00  0.00    -0.283 N 
ATOM     28  H3  UNL     1       7.930   2.512  -1.068  1.00  0.00     0.189 HD
BRANCH  24  29
HETATM   29  C10 UNL     1      12.249   1.475   0.107  1.00  0.00     0.269 C 
HETATM   30  N5  UNL     1      12.888   1.621  -1.105  1.00  0.00    -0.355 N 
HETATM   31  H31 UNL     1      12.340   1.507  -1.948  1.00  0.00     0.162 HD
HETATM   32  O2  UNL     1      12.869   1.310   1.153  1.00  0.00    -0.266 OA
BRANCH  30  33
HETATM   33  C11 UNL     1      14.335   1.566  -1.229  1.00  0.00     0.130 C 
BRANCH  33  34
HETATM   34  C12 UNL     1      14.857   0.169  -1.546  1.00  0.00     0.089 C 
BRANCH  34  35
HETATM   35  C13 UNL     1      14.916  -0.819  -0.394  1.00  0.00     0.049 C 
HETATM   36  N6  UNL     1      14.946  -2.093  -0.626  1.00  0.00    -0.393 N 
HETATM   37  H32 UNL     1      14.911  -2.282  -1.632  1.00  0.00     0.157 HD
ATOM     38  H6  UNL     1      14.998  -2.811   0.096  1.00  0.00     0.157 HD
BRANCH  35  39
HETATM   39  N7  UNL     1      15.001  -0.416   0.901  1.00  0.00    -0.293 NA
HETATM   40  H33 UNL     1      14.878  -1.208   1.526  1.00  0.00     0.125 HD
HETATM   41  H34 UNL     1      14.350   0.329   1.170  1.00  0.00     0.125 HD
ENDBRANCH  35  39
ENDBRANCH  34  35
ENDBRANCH  33  34
ENDBRANCH  30  33
ENDBRANCH  24  29
ENDBRANCH  19  22
ENDBRANCH  16  18
ENDBRANCH   9  12
ENDBRANCH   1   8
BRANCH   3  42
HETATM   42  N11 UNL     1      -3.282  -0.681   0.533  1.00  0.00    -0.305 N 
HETATM   43  C20 UNL     1      -3.612  -1.705   1.385  1.00  0.00     0.293 C 
HETATM   44  O4  UNL     1      -2.821  -2.378   2.041  1.00  0.00    -0.264 OA
HETATM   45  H36 UNL     1      -4.030  -0.198   0.044  1.00  0.00     0.170 HD
BRANCH  43  46
HETATM   46  C21 UNL     1      -5.034  -1.934   1.448  1.00  0.00     0.204 A 
HETATM   47  N12 UNL     1      -5.956  -1.264   0.788  1.00  0.00    -0.168 N 
HETATM   48  C22 UNL     1      -7.121  -1.854   1.177  1.00  0.00     0.701 A 
ATOM     49  H12 UNL     1      -5.828  -0.487   0.139  1.00  0.00     0.186 HD
HETATM   50  N13 UNL     1      -6.976  -2.853   2.054  1.00  0.00    -0.130 N 
HETATM   51  N14 UNL     1      -5.640  -2.887   2.207  1.00  0.00    -0.266 N 
ATOM     52  H13 UNL     1      -7.690  -3.435   2.491  1.00  0.00     0.205 HD
HETATM   53  H37 UNL     1      -5.210  -3.564   2.828  1.00  0.00     0.189 HD
BRANCH  48  54
HETATM   54  N15 UNL     1      -8.359  -1.482   0.743  1.00  0.00    -0.154 N 
HETATM   55  C23 UNL     1      -8.600  -0.504  -0.190  1.00  0.00     0.269 C 
HETATM   56  O5  UNL     1      -7.764   0.148  -0.807  1.00  0.00    -0.267 OA
HETATM   57  H38 UNL     1      -9.101  -2.046   1.125  1.00  0.00     0.187 HD
BRANCH  55  58
HETATM   58  C24 UNL     1     -10.041  -0.261  -0.488  1.00  0.00     0.033 A 
HETATM   59  C25 UNL     1     -11.036  -0.399   0.485  1.00  0.00     0.019 A 
HETATM   60  C26 UNL     1     -12.372  -0.153   0.154  1.00  0.00     0.024 A 
HETATM   61  C27 UNL     1     -12.737   0.241  -1.141  1.00  0.00     0.010 A 
HETATM   62  C28 UNL     1     -11.731   0.392  -2.103  1.00  0.00     0.024 A 
HETATM   63  C29 UNL     1     -10.393   0.148  -1.780  1.00  0.00     0.019 A 
BRANCH  61  64
HETATM   64  N16 UNL     1     -14.102   0.479  -1.403  1.00  0.00    -0.281 NA
BRANCH  64  65
HETATM   65  C30 UNL     1     -14.396   1.919  -1.625  1.00  0.00     0.110 C 
BRANCH  65  66
HETATM   66  C31 UNL     1     -14.244   2.778  -0.364  1.00  0.00     0.129 C 
HETATM   67 CL1  UNL     1     -15.425   2.325   0.896  1.00  0.00    -0.129 Cl
ENDBRANCH  65  66
ENDBRANCH  64  65
BRANCH  64  68
HETATM   68  C32 UNL     1     -14.664  -0.408  -2.452  1.00  0.00     0.110 C 
BRANCH  68  69
HETATM   69  C33 UNL     1     -14.695  -1.874  -2.011  1.00  0.00     0.129 C 
HETATM   70 CL2  UNL     1     -15.484  -2.883  -3.252  1.00  0.00    -0.129 Cl
ENDBRANCH  68  69
ENDBRANCH  64  68
ENDBRANCH  61  64
ENDBRANCH  55  58
ENDBRANCH  48  54
ENDBRANCH  43  46
ENDBRANCH   3  42
TORSDOF 18
