REMARK  24 active torsions:
REMARK  status: ('A' for Active; 'I' for Inactive)
REMARK    1  A    between atoms: C4_4  and  O11_74 
REMARK    2  A    between atoms: C7_7  and  C8_8 
REMARK    3  A    between atoms: C8_8  and  C9_9 
REMARK    4  A    between atoms: C9_9  and  C10_10 
REMARK    5  A    between atoms: C9_9  and  N8_83 
REMARK       I    between atoms: C10_10  and  N1_75 
REMARK    6  A    between atoms: C19_19  and  C20_20 
REMARK       I    between atoms: C20_20  and  N2_76 
REMARK    7  A    between atoms: C21_21  and  C22_22 
REMARK    8  A    between atoms: C21_21  and  N2_76 
REMARK    9  A    between atoms: C22_22  and  C23_23 
REMARK   10  A    between atoms: C23_23  and  C24_24 
REMARK   11  A    between atoms: C26_26  and  C28_28 
REMARK   12  A    between atoms: C28_28  and  C29_29 
REMARK   13  A    between atoms: C29_29  and  C30_30 
REMARK   14  A    between atoms: C30_30  and  N5_80 
REMARK   15  A    between atoms: C31_31  and  C32_32 
REMARK       I    between atoms: C31_31  and  N5_80 
REMARK   16  A    between atoms: C41_41  and  C42_42 
REMARK       I    between atoms: C41_41  and  N6_81 
REMARK   17  A    between atoms: C42_42  and  C43_43 
REMARK   18  A    between atoms: C42_42  and  N7_82 
REMARK   19  A    between atoms: C43_43  and  C44_44 
REMARK   20  A    between atoms: C47_47  and  O6_69 
REMARK   21  A    between atoms: C52_52  and  O8_71 
REMARK       I    between atoms: C52_52  and  N7_82 
REMARK   22  A    between atoms: C53_53  and  O8_71 
REMARK   23  A    between atoms: C58_58  and  O10_73 
REMARK       I    between atoms: C58_58  and  N8_83 
REMARK   24  A    between atoms: C59_59  and  O10_73 
ROOT
HETATM    1  C24 UNL     1      -0.313   1.360   0.767  1.00  0.00     0.034 A 
HETATM    2  C25 UNL     1      -0.770   1.488   2.037  1.00  0.00     0.028 A 
HETATM    3  C26 UNL     1       1.283   2.125   2.867  1.00  0.00     0.078 A 
HETATM    4  C27 UNL     1       1.886   2.055   1.472  1.00  0.00     0.268 A 
HETATM    5  C57 UNL     1      -2.201   1.263   2.461  1.00  0.00     0.070 C 
HETATM    6  O3  UNL     1       3.054   2.346   1.272  1.00  0.00    -0.266 OA
HETATM    7  N3  UNL     1       0.035   1.846   3.105  1.00  0.00    -0.357 N 
ATOM      8  H3  UNL     1      -0.340   1.890   4.052  1.00  0.00     0.166 HD
HETATM    9  N4  UNL     1       1.012   1.640   0.505  1.00  0.00    -0.324 N 
HETATM   10  H77 UNL     1       1.380   1.585  -0.438  1.00  0.00     0.169 HD
ENDROOT
BRANCH   1  11
HETATM   11  C23 UNL     1      -1.125   0.963  -0.447  1.00  0.00     0.061 C 
BRANCH  11  12
HETATM   12  C22 UNL     1      -0.726  -0.388  -1.056  1.00  0.00     0.026 C 
BRANCH  12  13
HETATM   13  C21 UNL     1      -0.793  -1.580  -0.098  1.00  0.00     0.123 C 
BRANCH  13  14
HETATM   14  N2  UNL     1      -2.078  -1.748   0.546  1.00  0.00    -0.359 N 
HETATM   15  C20 UNL     1      -3.203  -2.153  -0.145  1.00  0.00     0.240 C 
HETATM   16  O2  UNL     1      -3.180  -2.415  -1.347  1.00  0.00    -0.271 OA
HETATM   17  H76 UNL     1      -2.161  -1.471   1.516  1.00  0.00     0.162 HD
BRANCH  15  18
HETATM   18  C19 UNL     1      -4.485  -2.231   0.721  1.00  0.00     0.183 C 
HETATM   19  C18 UNL     1      -4.436  -3.387   1.722  1.00  0.00     0.074 C 
HETATM   20  C17 UNL     1      -4.680  -4.720   1.071  1.00  0.00    -0.048 A 
HETATM   21  C12 UNL     1      -5.429  -4.791  -0.113  1.00  0.00    -0.034 A 
HETATM   22  C16 UNL     1      -4.208  -5.895   1.671  1.00  0.00     0.008 A 
HETATM   23  C11 UNL     1      -5.983  -3.558  -0.785  1.00  0.00     0.165 C 
HETATM   24  C13 UNL     1      -5.671  -6.047  -0.693  1.00  0.00     0.009 A 
HETATM   25  N1  UNL     1      -5.677  -2.283  -0.136  1.00  0.00    -0.332 N 
HETATM   26  C10 UNL     1      -6.164  -1.063  -0.597  1.00  0.00     0.244 C 
HETATM   27  O1  UNL     1      -5.758   0.007  -0.124  1.00  0.00    -0.271 OA
HETATM   28  C14 UNL     1      -5.185  -7.211  -0.099  1.00  0.00     0.001 A 
HETATM   29  C15 UNL     1      -4.456  -7.135   1.084  1.00  0.00     0.001 A 
BRANCH  26  30
HETATM   30  C9  UNL     1      -7.187  -1.042  -1.756  1.00  0.00     0.183 C 
BRANCH  30  31
HETATM   31  C8  UNL     1      -6.414  -0.824  -3.071  1.00  0.00     0.074 C 
BRANCH  31  32
HETATM   32  C7  UNL     1      -7.287  -0.829  -4.320  1.00  0.00    -0.044 A 
HETATM   33  C2  UNL     1      -7.730  -2.054  -4.885  1.00  0.00    -0.052 A 
HETATM   34  C1  UNL     1      -7.343  -3.399  -4.330  1.00  0.00     0.049 C 
HETATM   35  C3  UNL     1      -8.573  -2.036  -6.009  1.00  0.00     0.043 A 
HETATM   36  C4  UNL     1      -8.957  -0.837  -6.584  1.00  0.00     0.066 A 
HETATM   37  C5  UNL     1      -8.512   0.370  -6.065  1.00  0.00     0.043 A 
HETATM   38  C6  UNL     1      -7.675   0.391  -4.936  1.00  0.00    -0.052 A 
HETATM   39  C63 UNL     1      -7.201   1.734  -4.442  1.00  0.00     0.049 C 
BRANCH  36  40
HETATM   40  O11 UNL     1      -9.774  -0.886  -7.675  1.00  0.00    -0.361 OA
HETATM   41  H75 UNL     1      -9.971   0.023  -7.953  1.00  0.00     0.217 HD
ENDBRANCH  36  40
ENDBRANCH  31  32
ENDBRANCH  30  31
BRANCH  30  42
HETATM   42  N8  UNL     1      -8.106   0.053  -1.465  1.00  0.00    -0.323 N 
HETATM   43  C58 UNL     1      -9.232  -0.157  -0.730  1.00  0.00     0.362 C 
HETATM   44  O9  UNL     1      -9.690  -1.254  -0.453  1.00  0.00    -0.238 OA
HETATM   45  H80 UNL     1      -7.708   0.973  -1.329  1.00  0.00     0.165 HD
BRANCH  43  46
HETATM   46  O10 UNL     1      -9.726   1.040  -0.344  1.00  0.00    -0.294 OA
BRANCH  46  47
HETATM   47  C59 UNL     1     -10.925   1.119   0.467  1.00  0.00     0.061 C 
HETATM   48  C60 UNL     1     -12.137   0.539  -0.271  1.00  0.00     0.046 C 
HETATM   49  C61 UNL     1     -11.154   2.623   0.680  1.00  0.00     0.046 C 
HETATM   50  C62 UNL     1     -10.717   0.458   1.835  1.00  0.00     0.046 C 
ENDBRANCH  46  47
ENDBRANCH  43  46
ENDBRANCH  30  42
ENDBRANCH  26  30
ENDBRANCH  15  18
ENDBRANCH  13  14
ENDBRANCH  12  13
ENDBRANCH  11  12
ENDBRANCH   1  11
BRANCH   3  51
HETATM   51  C28 UNL     1       2.207   2.530   3.990  1.00  0.00     0.064 C 
BRANCH  51  52
HETATM   52  C29 UNL     1       3.237   1.434   4.272  1.00  0.00     0.026 C 
BRANCH  52  53
HETATM   53  C30 UNL     1       4.657   1.969   4.422  1.00  0.00     0.123 C 
BRANCH  53  54
HETATM   54  N5  UNL     1       5.154   2.608   3.220  1.00  0.00    -0.359 N 
HETATM   55  C31 UNL     1       6.441   3.089   3.173  1.00  0.00     0.240 C 
HETATM   56  O4  UNL     1       7.167   3.154   4.165  1.00  0.00    -0.271 OA
HETATM   57  H78 UNL     1       4.687   2.410   2.331  1.00  0.00     0.162 HD
BRANCH  55  58
HETATM   58  C32 UNL     1       6.905   3.656   1.818  1.00  0.00     0.183 C 
HETATM   59  C33 UNL     1       6.982   5.193   1.992  1.00  0.00     0.074 C 
HETATM   60  C34 UNL     1       6.968   5.916   0.672  1.00  0.00    -0.048 A 
HETATM   61  C35 UNL     1       7.739   7.056   0.432  1.00  0.00     0.008 A 
HETATM   62  C39 UNL     1       6.095   5.436  -0.318  1.00  0.00    -0.034 A 
HETATM   63  C36 UNL     1       7.654   7.701  -0.801  1.00  0.00     0.001 A 
HETATM   64  C37 UNL     1       6.794   7.220  -1.789  1.00  0.00     0.001 A 
HETATM   65  C38 UNL     1       6.010   6.091  -1.549  1.00  0.00     0.009 A 
HETATM   66  C40 UNL     1       5.257   4.227   0.016  1.00  0.00     0.165 C 
HETATM   67  N6  UNL     1       6.094   3.210   0.653  1.00  0.00    -0.332 N 
HETATM   68  C41 UNL     1       6.210   1.975   0.025  1.00  0.00     0.244 C 
HETATM   69  O5  UNL     1       5.591   1.717  -1.016  1.00  0.00    -0.271 OA
BRANCH  68  70
HETATM   70  C42 UNL     1       7.167   0.910   0.613  1.00  0.00     0.183 C 
BRANCH  70  71
HETATM   71  C43 UNL     1       8.557   1.077  -0.030  1.00  0.00     0.074 C 
BRANCH  71  72
HETATM   72  C44 UNL     1       9.580   0.029   0.393  1.00  0.00    -0.044 A 
HETATM   73  C45 UNL     1       9.939  -1.021  -0.494  1.00  0.00    -0.052 A 
HETATM   74  C46 UNL     1      10.858  -1.999  -0.081  1.00  0.00     0.043 A 
HETATM   75  C51 UNL     1       9.388  -1.130  -1.893  1.00  0.00     0.049 C 
HETATM   76  C47 UNL     1      11.416  -1.951   1.185  1.00  0.00     0.066 A 
HETATM   77  C48 UNL     1      11.089  -0.928   2.062  1.00  0.00     0.043 A 
HETATM   78  C49 UNL     1      10.185   0.078   1.677  1.00  0.00    -0.052 A 
HETATM   79  C50 UNL     1       9.885   1.157   2.685  1.00  0.00     0.049 C 
BRANCH  76  80
HETATM   80  O6  UNL     1      12.295  -2.935   1.532  1.00  0.00    -0.361 OA
HETATM   81  H74 UNL     1      12.585  -2.779   2.446  1.00  0.00     0.217 HD
ENDBRANCH  76  80
ENDBRANCH  71  72
ENDBRANCH  70  71
BRANCH  70  82
HETATM   82  N7  UNL     1       6.579  -0.389   0.293  1.00  0.00    -0.323 N 
HETATM   83  C52 UNL     1       5.658  -0.975   1.102  1.00  0.00     0.362 C 
HETATM   84  O7  UNL     1       5.385  -0.612   2.235  1.00  0.00    -0.238 OA
HETATM   85  H79 UNL     1       6.448  -0.615  -0.684  1.00  0.00     0.165 HD
BRANCH  83  86
HETATM   86  O8  UNL     1       5.089  -2.000   0.430  1.00  0.00    -0.294 OA
BRANCH  86  87
HETATM   87  C53 UNL     1       4.073  -2.824   1.053  1.00  0.00     0.061 C 
HETATM   88  C54 UNL     1       2.824  -2.004   1.391  1.00  0.00     0.046 C 
HETATM   89  C55 UNL     1       3.701  -3.862  -0.017  1.00  0.00     0.046 C 
HETATM   90  C56 UNL     1       4.624  -3.559   2.279  1.00  0.00     0.046 C 
ENDBRANCH  86  87
ENDBRANCH  83  86
ENDBRANCH  70  82
ENDBRANCH  68  70
ENDBRANCH  55  58
ENDBRANCH  53  54
ENDBRANCH  52  53
ENDBRANCH  51  52
ENDBRANCH   3  51
TORSDOF 24
