REMARK  31 active torsions:
REMARK  status: ('A' for Active; 'I' for Inactive)
REMARK    1  A    between atoms: C2_2  and  C3_3 
REMARK    2  A    between atoms: C2_2  and  O12_50 
REMARK    3  A    between atoms: C3_3  and  C4_4 
REMARK    4  A    between atoms: C3_3  and  N8_58 
REMARK       I    between atoms: C4_4  and  N1_51 
REMARK    5  A    between atoms: C5_5  and  C6_6 
REMARK    6  A    between atoms: C5_5  and  C9_9 
REMARK    7  A    between atoms: C5_5  and  N1_51 
REMARK       I    between atoms: C9_9  and  N2_52 
REMARK    8  A    between atoms: C10_10  and  C11_11 
REMARK    9  A    between atoms: C10_10  and  C15_15 
REMARK   10  A    between atoms: C10_10  and  N2_52 
REMARK   11  A    between atoms: C11_11  and  C12_12 
REMARK       I    between atoms: C15_15  and  N3_53 
REMARK   12  A    between atoms: C16_16  and  C17_17 
REMARK   13  A    between atoms: C16_16  and  N3_53 
REMARK       I    between atoms: C17_17  and  N4_54 
REMARK   14  A    between atoms: C18_18  and  C19_19 
REMARK   15  A    between atoms: C18_18  and  C21_21 
REMARK   16  A    between atoms: C18_18  and  N4_54 
REMARK   17  A    between atoms: C19_19  and  C20_20 
REMARK       I    between atoms: C20_20  and  N5_55 
REMARK       I    between atoms: C21_21  and  N6_56 
REMARK   18  A    between atoms: C22_22  and  C23_23 
REMARK   19  A    between atoms: C22_22  and  C27_27 
REMARK   20  A    between atoms: C22_22  and  N6_56 
REMARK   21  A    between atoms: C23_23  and  C24_24 
REMARK       I    between atoms: C27_27  and  N7_57 
REMARK   22  A    between atoms: C28_28  and  C29_29 
REMARK   23  A    between atoms: C28_28  and  C30_30 
REMARK   24  A    between atoms: C28_28  and  N7_57 
REMARK   25  A    between atoms: C29_29  and  S1_61 
REMARK   26  A    between atoms: C30_30  and  O9_47 
REMARK   27  A    between atoms: C31_31  and  C32_32 
REMARK       I    between atoms: C31_31  and  N8_58 
REMARK   28  A    between atoms: C36_36  and  C37_37 
REMARK       I    between atoms: C36_36  and  N9_59 
REMARK   29  A    between atoms: C37_37  and  C38_38 
REMARK   30  A    between atoms: C37_37  and  N10_60 
REMARK   31  A    between atoms: C38_38  and  S2_62 
ROOT
HETATM    1  C10 UNL     1       1.131   1.423   2.072  1.00  0.00     0.177 C 
ENDROOT
BRANCH   1   2
HETATM    2  C11 UNL     1       2.079   1.346   3.285  1.00  0.00     0.038 C 
BRANCH   2   3
HETATM    3  C12 UNL     1       2.723   2.639   3.838  1.00  0.00    -0.020 C 
HETATM    4  C13 UNL     1       1.724   3.748   4.158  1.00  0.00     0.009 C 
HETATM    5  C14 UNL     1       3.854   3.180   2.961  1.00  0.00     0.009 C 
ENDBRANCH   2   3
ENDBRANCH   1   2
BRANCH   1   6
HETATM    6  C15 UNL     1      -0.275   1.960   2.426  1.00  0.00     0.240 C 
HETATM    7  O3  UNL     1      -0.803   1.813   3.524  1.00  0.00    -0.271 OA
HETATM    8  N3  UNL     1      -0.946   2.512   1.348  1.00  0.00    -0.351 N 
HETATM    9  H56 UNL     1      -0.633   2.175   0.443  1.00  0.00     0.163 HD
BRANCH   8  10
HETATM   10  C16 UNL     1      -2.366   2.796   1.450  1.00  0.00     0.225 C 
BRANCH  10  11
HETATM   11  C17 UNL     1      -3.161   1.555   1.040  1.00  0.00     0.236 C 
HETATM   12  O4  UNL     1      -2.702   0.689   0.296  1.00  0.00    -0.272 OA
HETATM   13  N4  UNL     1      -4.439   1.506   1.535  1.00  0.00    -0.346 N 
HETATM   14  H57 UNL     1      -4.810   2.269   2.100  1.00  0.00     0.163 HD
BRANCH  13  15
HETATM   15  C18 UNL     1      -5.370   0.424   1.208  1.00  0.00     0.185 C 
BRANCH  15  16
HETATM   16  C19 UNL     1      -5.021  -0.853   1.977  1.00  0.00     0.137 C 
BRANCH  16  17
HETATM   17  C20 UNL     1      -5.613  -2.078   1.321  1.00  0.00     0.217 C 
HETATM   18  O5  UNL     1      -6.500  -2.041   0.473  1.00  0.00    -0.274 OA
HETATM   19  N5  UNL     1      -5.153  -3.266   1.801  1.00  0.00    -0.370 N 
HETATM   20  H58 UNL     1      -5.485  -4.107   1.339  1.00  0.00     0.159 HD
HETATM   21  H59 UNL     1      -4.272  -3.333   2.296  1.00  0.00     0.159 HD
ENDBRANCH  16  17
ENDBRANCH  15  16
BRANCH  15  22
HETATM   22  C21 UNL     1      -6.779   0.943   1.580  1.00  0.00     0.241 C 
HETATM   23  O6  UNL     1      -6.944   2.001   2.187  1.00  0.00    -0.271 OA
HETATM   24  N6  UNL     1      -7.817   0.134   1.195  1.00  0.00    -0.346 N 
HETATM   25  H60 UNL     1      -7.607  -0.671   0.600  1.00  0.00     0.163 HD
BRANCH  24  26
HETATM   26  C22 UNL     1      -9.223   0.492   1.360  1.00  0.00     0.177 C 
BRANCH  26  27
HETATM   27  C23 UNL     1      -9.757   1.328   0.185  1.00  0.00     0.038 C 
BRANCH  27  28
HETATM   28  C24 UNL     1      -9.412   0.826  -1.236  1.00  0.00    -0.020 C 
HETATM   29  C25 UNL     1      -9.954  -0.570  -1.539  1.00  0.00     0.009 C 
HETATM   30  C26 UNL     1      -9.951   1.819  -2.272  1.00  0.00     0.009 C 
ENDBRANCH  27  28
ENDBRANCH  26  27
BRANCH  26  31
HETATM   31  C27 UNL     1     -10.077  -0.758   1.668  1.00  0.00     0.241 C 
HETATM   32  O7  UNL     1     -11.282  -0.836   1.447  1.00  0.00    -0.271 OA
HETATM   33  N7  UNL     1      -9.394  -1.746   2.341  1.00  0.00    -0.344 N 
HETATM   34  H61 UNL     1      -8.435  -1.571   2.630  1.00  0.00     0.163 HD
BRANCH  33  35
HETATM   35  C28 UNL     1     -10.041  -2.956   2.847  1.00  0.00     0.191 C 
BRANCH  35  36
HETATM   36  C29 UNL     1     -10.274  -4.005   1.753  1.00  0.00     0.106 C 
BRANCH  36  37
HETATM   37  S1  UNL     1      -8.739  -4.595   0.948  1.00  0.00    -0.180 SA
HETATM   38  H65 UNL     1      -8.309  -3.391   0.530  1.00  0.00     0.101 HD
ENDBRANCH  36  37
ENDBRANCH  35  36
BRANCH  35  39
HETATM   39  C30 UNL     1      -9.257  -3.557   4.014  1.00  0.00     0.164 C 
HETATM   40  O8  UNL     1      -9.564  -4.545   4.662  1.00  0.00    -0.648 OA
BRANCH  39  41
HETATM   41  O9  UNL     1      -8.121  -2.881   4.313  1.00  0.00    -0.775 OA
HETATM   42  H52 UNL     1      -7.752  -3.386   5.070  1.00  0.00     0.167 HD
ENDBRANCH  39  41
ENDBRANCH  35  39
ENDBRANCH  33  35
ENDBRANCH  26  31
ENDBRANCH  24  26
ENDBRANCH  15  22
ENDBRANCH  13  15
ENDBRANCH  10  11
ENDBRANCH   8  10
ENDBRANCH   1   6
BRANCH   1  43
HETATM   43  N2  UNL     1       1.704   2.115   0.919  1.00  0.00    -0.346 N 
HETATM   44  C9  UNL     1       2.639   1.512   0.110  1.00  0.00     0.241 C 
HETATM   45  O2  UNL     1       2.961   0.328   0.229  1.00  0.00    -0.271 OA
HETATM   46  H55 UNL     1       1.607   3.123   0.893  1.00  0.00     0.163 HD
BRANCH  44  47
HETATM   47  C5  UNL     1       3.266   2.417  -0.974  1.00  0.00     0.180 C 
BRANCH  47  48
HETATM   48  C6  UNL     1       2.365   2.655  -2.206  1.00  0.00     0.009 C 
HETATM   49  C7  UNL     1       1.224   3.632  -1.918  1.00  0.00     0.012 C 
HETATM   50  C8  UNL     1       1.811   1.357  -2.802  1.00  0.00     0.012 C 
ENDBRANCH  47  48
BRANCH  47  51
HETATM   51  N1  UNL     1       4.520   1.773  -1.356  1.00  0.00    -0.346 N 
HETATM   52  C4  UNL     1       5.595   2.464  -1.878  1.00  0.00     0.243 C 
HETATM   53  O1  UNL     1       5.550   3.675  -2.064  1.00  0.00    -0.271 OA
HETATM   54  H54 UNL     1       4.675   0.827  -1.015  1.00  0.00     0.163 HD
BRANCH  52  55
HETATM   55  C3  UNL     1       6.858   1.587  -2.049  1.00  0.00     0.205 C 
BRANCH  55  56
HETATM   56  C2  UNL     1       7.825   2.051  -3.163  1.00  0.00     0.146 C 
HETATM   57  C1  UNL     1       7.145   2.374  -4.488  1.00  0.00     0.042 C 
BRANCH  56  58
HETATM   58  O12 UNL     1       8.600   3.181  -2.757  1.00  0.00    -0.393 OA
HETATM   59  H53 UNL     1       9.188   2.890  -2.037  1.00  0.00     0.210 HD
ENDBRANCH  56  58
ENDBRANCH  55  56
BRANCH  55  60
HETATM   60  N8  UNL     1       6.454   0.182  -2.229  1.00  0.00    -0.344 N 
HETATM   61  C31 UNL     1       7.293  -0.849  -1.861  1.00  0.00     0.241 C 
HETATM   62  O10 UNL     1       8.356  -0.652  -1.275  1.00  0.00    -0.271 OA
HETATM   63  H62 UNL     1       5.727  -0.004  -2.911  1.00  0.00     0.163 HD
BRANCH  61  64
HETATM   64  C32 UNL     1       6.740  -2.255  -2.182  1.00  0.00     0.179 C 
HETATM   65  C33 UNL     1       5.740  -2.704  -1.118  1.00  0.00     0.037 C 
HETATM   66  C34 UNL     1       6.624  -3.403  -0.088  1.00  0.00     0.022 C 
HETATM   67  C35 UNL     1       7.681  -4.090  -0.941  1.00  0.00     0.127 C 
HETATM   68  N9  UNL     1       7.807  -3.246  -2.119  1.00  0.00    -0.337 N 
HETATM   69  C36 UNL     1       8.700  -3.367  -3.158  1.00  0.00     0.254 C 
HETATM   70  O11 UNL     1       8.574  -2.691  -4.183  1.00  0.00    -0.271 OA
BRANCH  69  71
HETATM   71  C37 UNL     1       9.874  -4.357  -2.989  1.00  0.00     0.318 C 
BRANCH  71  72
HETATM   72  C38 UNL     1      10.994  -3.724  -2.143  1.00  0.00     0.116 C 
BRANCH  72  73
HETATM   73  S2  UNL     1      11.878  -2.345  -2.960  1.00  0.00    -0.180 SA
HETATM   74  H66 UNL     1      10.818  -1.526  -3.069  1.00  0.00     0.101 HD
ENDBRANCH  72  73
ENDBRANCH  71  72
BRANCH  71  75
HETATM   75  N10 UNL     1      10.356  -4.806  -4.318  1.00  0.00     0.092 N 
HETATM   76  H63 UNL     1       9.544  -4.942  -4.923  1.00  0.00     0.313 HD
HETATM   77  H64 UNL     1      10.843  -4.008  -4.741  1.00  0.00     0.313 HD
ENDBRANCH  71  75
ENDBRANCH  69  71
ENDBRANCH  61  64
ENDBRANCH  55  60
ENDBRANCH  52  55
ENDBRANCH  47  51
ENDBRANCH  44  47
ENDBRANCH   1  43
TORSDOF 31
