REMARK  0 active torsions:
REMARK  status: ('A' for Active; 'I' for Inactive)
REMARK       I    between atoms: C2_2  and  C3_3 
REMARK       I    between atoms: C2_2  and  O13_60 
REMARK       I    between atoms: C3_3  and  C4_4 
REMARK       I    between atoms: C3_3  and  N12_74 
REMARK       I    between atoms: C4_4  and  N1_61 
REMARK       I    between atoms: C5_5  and  C6_6 
REMARK       I    between atoms: C5_5  and  N1_61 
REMARK       I    between atoms: C6_6  and  N2_62 
REMARK       I    between atoms: C7_7  and  C9_9 
REMARK       I    between atoms: C7_7  and  N2_62 
REMARK       I    between atoms: C9_9  and  N3_63 
REMARK       I    between atoms: C10_10  and  C11_11 
REMARK       I    between atoms: C10_10  and  C15_15 
REMARK       I    between atoms: C10_10  and  N3_63 
REMARK       I    between atoms: C11_11  and  C12_12 
REMARK       I    between atoms: C12_12  and  C13_13 
REMARK       I    between atoms: C13_13  and  N4_64 
REMARK       I    between atoms: C14_14  and  N5_66 
REMARK       I    between atoms: C14_14  and  N6_67 
REMARK       I    between atoms: C15_15  and  N7_68 
REMARK       I    between atoms: C16_16  and  C17_17 
REMARK       I    between atoms: C16_16  and  C21_21 
REMARK       I    between atoms: C16_16  and  N7_68 
REMARK       I    between atoms: C17_17  and  C18_18 
REMARK       I    between atoms: C18_18  and  C19_19 
REMARK       I    between atoms: C19_19  and  N8_69 
REMARK       I    between atoms: C20_20  and  N9_71 
REMARK       I    between atoms: C20_20  and  N10_72 
REMARK       I    between atoms: C21_21  and  N11_73 
REMARK       I    between atoms: C22_22  and  C23_23 
REMARK       I    between atoms: C22_22  and  C27_27 
REMARK       I    between atoms: C22_22  and  N11_73 
REMARK       I    between atoms: C23_23  and  C24_24 
REMARK       I    between atoms: C27_27  and  O7_54 
REMARK       I    between atoms: C28_28  and  C29_29 
REMARK       I    between atoms: C28_28  and  N12_74 
REMARK       I    between atoms: C29_29  and  C30_30 
REMARK       I    between atoms: C29_29  and  N13_75 
REMARK       I    between atoms: C30_30  and  C31_31 
REMARK       I    between atoms: C34_34  and  C35_35 
REMARK       I    between atoms: C34_34  and  N13_75 
REMARK       I    between atoms: C35_35  and  C36_36 
REMARK       I    between atoms: C35_35  and  N14_76 
REMARK       I    between atoms: C36_36  and  O10_57 
REMARK       I    between atoms: C37_37  and  C38_38 
REMARK       I    between atoms: C37_37  and  N14_76 
REMARK       I    between atoms: C42_42  and  C43_43 
REMARK       I    between atoms: C42_42  and  N15_77 
REMARK       I    between atoms: C43_43  and  C44_44 
REMARK       I    between atoms: C43_43  and  N19_82 
REMARK       I    between atoms: C44_44  and  C45_45 
REMARK       I    between atoms: C45_45  and  C46_46 
REMARK       I    between atoms: C46_46  and  N16_78 
REMARK       I    between atoms: C47_47  and  N17_80 
REMARK       I    between atoms: C47_47  and  N18_81 
ROOT
HETATM    1  C1  UNL     1       3.103   2.119   4.211  1.00  0.00     0.042 C 
HETATM    2  C2  UNL     1       1.645   1.676   4.136  1.00  0.00     0.146 C 
HETATM    3  C3  UNL     1       1.455   0.166   4.416  1.00  0.00     0.205 C 
HETATM    4  C4  UNL     1      -0.026  -0.212   4.602  1.00  0.00     0.243 C 
HETATM    5  C5  UNL     1      -2.026  -0.427   3.210  1.00  0.00     0.225 C 
HETATM    6  C6  UNL     1      -1.585  -1.391   2.096  1.00  0.00     0.236 C 
HETATM    7  C7  UNL     1      -2.377  -3.223   0.605  1.00  0.00     0.172 C 
HETATM    8  C8  UNL     1      -1.605  -4.407   1.182  1.00  0.00     0.042 C 
HETATM    9  C9  UNL     1      -3.712  -3.705  -0.006  1.00  0.00     0.240 C 
HETATM   10  C10 UNL     1      -6.026  -2.977  -0.565  1.00  0.00     0.176 C 
HETATM   11  C11 UNL     1      -6.833  -3.661   0.554  1.00  0.00     0.036 C 
HETATM   12  C12 UNL     1      -7.242  -2.817   1.770  1.00  0.00     0.022 C 
HETATM   13  C13 UNL     1      -6.103  -2.332   2.672  1.00  0.00     0.121 C 
HETATM   14  C14 UNL     1      -5.871  -0.064   2.045  1.00  0.00     0.121 C 
HETATM   15  C15 UNL     1      -6.625  -1.668  -1.147  1.00  0.00     0.241 C 
HETATM   16  C16 UNL     1      -8.650  -0.486  -1.915  1.00  0.00     0.176 C 
HETATM   17  C17 UNL     1     -10.019  -0.905  -2.471  1.00  0.00     0.036 C 
HETATM   18  C18 UNL     1     -10.703   0.173  -3.322  1.00  0.00     0.022 C 
HETATM   19  C19 UNL     1     -11.959  -0.352  -4.020  1.00  0.00     0.121 C 
HETATM   20  C20 UNL     1     -12.471  -1.941  -5.678  1.00  0.00     0.121 C 
HETATM   21  C21 UNL     1      -8.795   0.619  -0.839  1.00  0.00     0.241 C 
HETATM   22  C22 UNL     1      -9.080   3.088  -0.528  1.00  0.00     0.182 C 
HETATM   23  C23 UNL     1      -7.741   3.583   0.037  1.00  0.00     0.040 C 
HETATM   24  C24 UNL     1      -7.835   4.662   1.136  1.00  0.00    -0.020 C 
HETATM   25  C25 UNL     1      -8.606   4.182   2.366  1.00  0.00     0.009 C 
HETATM   26  C26 UNL     1      -6.426   5.097   1.550  1.00  0.00     0.009 C 
HETATM   27  C27 UNL     1      -9.742   4.173  -1.389  1.00  0.00     0.163 C 
HETATM   28  C28 UNL     1       3.229  -1.134   3.250  1.00  0.00     0.241 C 
HETATM   29  C29 UNL     1       3.537  -2.022   2.021  1.00  0.00     0.177 C 
HETATM   30  C30 UNL     1       2.842  -3.393   2.080  1.00  0.00     0.038 C 
HETATM   31  C31 UNL     1       2.812  -4.136   3.436  1.00  0.00    -0.020 C 
HETATM   32  C32 UNL     1       4.193  -4.466   3.997  1.00  0.00     0.009 C 
HETATM   33  C33 UNL     1       2.010  -5.435   3.284  1.00  0.00     0.009 C 
HETATM   34  C34 UNL     1       5.701  -1.036   1.445  1.00  0.00     0.243 C 
HETATM   35  C35 UNL     1       7.190  -1.023   1.845  1.00  0.00     0.200 C 
HETATM   36  C36 UNL     1       7.334  -0.873   3.367  1.00  0.00     0.199 C 
HETATM   37  C37 UNL     1       8.367  -0.075  -0.105  1.00  0.00     0.241 C 
HETATM   38  C38 UNL     1       8.715   1.255  -0.807  1.00  0.00     0.179 C 
HETATM   39  C39 UNL     1       7.431   1.861  -1.392  1.00  0.00     0.037 C 
HETATM   40  C40 UNL     1       7.823   2.305  -2.796  1.00  0.00     0.022 C 
HETATM   41  C41 UNL     1       8.888   1.299  -3.197  1.00  0.00     0.127 C 
HETATM   42  C42 UNL     1      10.904   0.674  -1.762  1.00  0.00     0.253 C 
HETATM   43  C43 UNL     1      11.817   0.363  -2.974  1.00  0.00     0.309 C 
HETATM   44  C44 UNL     1      12.389   1.627  -3.627  1.00  0.00     0.047 C 
HETATM   45  C45 UNL     1      13.326   2.394  -2.684  1.00  0.00     0.022 C 
HETATM   46  C46 UNL     1      13.937   3.629  -3.345  1.00  0.00     0.121 C 
HETATM   47  C47 UNL     1      15.516   4.100  -5.025  1.00  0.00     0.121 C 
HETATM   48  O1  UNL     1      -0.399  -1.050   5.419  1.00  0.00    -0.271 OA
HETATM   49  O2  UNL     1      -0.432  -1.430   1.664  1.00  0.00    -0.272 OA
HETATM   50  O3  UNL     1      -3.891  -4.847  -0.425  1.00  0.00    -0.271 OA
HETATM   51  O4  UNL     1      -5.921  -0.725  -1.514  1.00  0.00    -0.271 OA
HETATM   52  O5  UNL     1      -8.902   0.386   0.365  1.00  0.00    -0.271 OA
HETATM   53  O6  UNL     1     -10.182   5.243  -1.002  1.00  0.00    -0.648 OA
HETATM   54  O7  UNL     1      -9.779   3.871  -2.710  1.00  0.00    -0.775 OA
HETATM   55  O8  UNL     1       4.085  -0.852   4.093  1.00  0.00    -0.271 OA
HETATM   56  O9  UNL     1       5.165  -0.111   0.833  1.00  0.00    -0.271 OA
HETATM   57  O10 UNL     1       6.673   0.296   3.858  1.00  0.00    -0.398 OA
HETATM   58  O11 UNL     1       8.486  -1.181  -0.631  1.00  0.00    -0.271 OA
HETATM   59  O12 UNL     1      11.375   0.607  -0.620  1.00  0.00    -0.271 OA
HETATM   60  O13 UNL     1       1.116   2.014   2.839  1.00  0.00    -0.393 OA
HETATM   61  N1  UNL     1      -0.868   0.326   3.644  1.00  0.00    -0.350 N 
HETATM   62  N2  UNL     1      -2.597  -2.190   1.621  1.00  0.00    -0.347 N 
HETATM   63  N3  UNL     1      -4.656  -2.718  -0.148  1.00  0.00    -0.346 N 
HETATM   64  N4  UNL     1      -5.350  -1.235   2.055  1.00  0.00    -0.372 N 
ATOM     65  H4  UNL     1      -4.432  -1.400   1.643  1.00  0.00     0.161 HD
HETATM   66  N5  UNL     1      -5.244   0.957   1.428  1.00  0.00    -0.279 NA
HETATM   67  N6  UNL     1      -7.041   0.378   2.560  1.00  0.00    -0.279 NA
HETATM   68  N7  UNL     1      -7.992  -1.659  -1.337  1.00  0.00    -0.346 N 
HETATM   69  N8  UNL     1     -11.558  -1.309  -5.045  1.00  0.00    -0.372 N 
ATOM     70  H8  UNL     1     -10.572  -1.470  -5.252  1.00  0.00     0.161 HD
HETATM   71  N9  UNL     1     -12.134  -2.849  -6.618  1.00  0.00    -0.279 NA
HETATM   72  N10 UNL     1     -13.815  -1.867  -5.567  1.00  0.00    -0.279 NA
HETATM   73  N11 UNL     1      -8.860   1.895  -1.350  1.00  0.00    -0.345 N 
HETATM   74  N12 UNL     1       1.935  -0.693   3.330  1.00  0.00    -0.344 N 
HETATM   75  N13 UNL     1       4.990  -2.137   1.897  1.00  0.00    -0.346 N 
HETATM   76  N14 UNL     1       7.840   0.090   1.161  1.00  0.00    -0.344 N 
HETATM   77  N15 UNL     1       9.596   1.057  -1.955  1.00  0.00    -0.337 N 
HETATM   78  N16 UNL     1      14.845   3.204  -4.407  1.00  0.00    -0.372 N 
ATOM     79  H16 UNL     1      14.941   2.218  -4.649  1.00  0.00     0.161 HD
HETATM   80  N17 UNL     1      16.381   3.741  -5.997  1.00  0.00    -0.279 NA
HETATM   81  N18 UNL     1      15.527   5.442  -4.868  1.00  0.00    -0.279 NA
HETATM   82  N19 UNL     1      11.115  -0.472  -3.976  1.00  0.00     0.092 N 
HETATM   83  H63 UNL     1     -10.201   4.659  -3.115  1.00  0.00     0.167 HD
HETATM   84  H64 UNL     1       5.736   0.045   4.023  1.00  0.00     0.209 HD
HETATM   85  H65 UNL     1       1.551   2.836   2.548  1.00  0.00     0.210 HD
HETATM   86  H66 UNL     1      -0.390   0.867   2.921  1.00  0.00     0.163 HD
HETATM   87  H67 UNL     1      -3.528  -2.098   2.030  1.00  0.00     0.163 HD
HETATM   88  H68 UNL     1      -4.501  -1.815   0.294  1.00  0.00     0.163 HD
HETATM   89  H69 UNL     1      -5.308   1.835   1.926  1.00  0.00     0.126 HD
HETATM   90  H70 UNL     1      -4.307   0.745   1.113  1.00  0.00     0.126 HD
HETATM   91  H71 UNL     1      -7.632  -0.346   2.946  1.00  0.00     0.126 HD
HETATM   92  H72 UNL     1      -7.595   0.836   1.831  1.00  0.00     0.126 HD
HETATM   93  H73 UNL     1      -8.558  -2.239  -0.734  1.00  0.00     0.163 HD
HETATM   94  H74 UNL     1     -12.638  -3.721  -6.510  1.00  0.00     0.126 HD
HETATM   95  H75 UNL     1     -11.132  -3.015  -6.591  1.00  0.00     0.126 HD
HETATM   96  H76 UNL     1     -14.276  -1.969  -6.464  1.00  0.00     0.126 HD
HETATM   97  H77 UNL     1     -14.149  -1.042  -5.085  1.00  0.00     0.126 HD
HETATM   98  H78 UNL     1      -8.747   2.050  -2.348  1.00  0.00     0.163 HD
HETATM   99  H79 UNL     1       1.284  -0.897   2.568  1.00  0.00     0.163 HD
HETATM  100  H80 UNL     1       5.453  -2.728   2.571  1.00  0.00     0.163 HD
HETATM  101  H81 UNL     1       7.494   1.007   1.420  1.00  0.00     0.163 HD
HETATM  102  H82 UNL     1      16.483   2.730  -5.998  1.00  0.00     0.126 HD
HETATM  103  H83 UNL     1      17.284   4.183  -5.882  1.00  0.00     0.126 HD
HETATM  104  H84 UNL     1      14.743   5.802  -4.340  1.00  0.00     0.126 HD
HETATM  105  H85 UNL     1      15.616   5.925  -5.755  1.00  0.00     0.126 HD
HETATM  106  H86 UNL     1      11.803  -0.830  -4.637  1.00  0.00     0.313 HD
HETATM  107  H87 UNL     1      10.734  -1.288  -3.490  1.00  0.00     0.313 HD
ENDROOT
TORSDOF 40
