REMARK  24 active torsions:
REMARK  status: ('A' for Active; 'I' for Inactive)
REMARK    1  A    between atoms: C2_2  and  C3_3 
REMARK    2  A    between atoms: C2_2  and  N10_86 
REMARK       I    between atoms: C3_3  and  N1_77 
REMARK    3  A    between atoms: C4_4  and  C5_5 
REMARK    4  A    between atoms: C4_4  and  C62_62 
REMARK    5  A    between atoms: C4_4  and  N1_77 
REMARK       I    between atoms: C5_5  and  N2_78 
REMARK    6  A    between atoms: C10_10  and  C11_11 
REMARK       I    between atoms: C11_11  and  N3_79 
REMARK    7  A    between atoms: C12_12  and  C13_13 
REMARK    8  A    between atoms: C12_12  and  C15_15 
REMARK    9  A    between atoms: C12_12  and  N3_79 
REMARK   10  A    between atoms: C13_13  and  O4_70 
REMARK   11  A    between atoms: C23_23  and  C25_25 
REMARK   12  A    between atoms: C25_25  and  C61_61 
REMARK   13  A    between atoms: C28_28  and  C31_31 
REMARK       I    between atoms: C31_31  and  N4_80 
REMARK   14  A    between atoms: C32_32  and  N4_80 
REMARK   15  A    between atoms: C37_37  and  C49_49 
REMARK   16  A    between atoms: C39_39  and  C40_40 
REMARK       I    between atoms: C39_39  and  N5_81 
REMARK   17  A    between atoms: C40_40  and  C41_41 
REMARK   18  A    between atoms: C40_40  and  N6_82 
REMARK   19  A    between atoms: C45_45  and  C46_46 
REMARK       I    between atoms: C45_45  and  N6_82 
REMARK   20  A    between atoms: C46_46  and  N7_83 
REMARK       I    between atoms: C49_49  and  N8_84 
REMARK   21  A    between atoms: C50_50  and  C51_51 
REMARK   22  A    between atoms: C50_50  and  C53_53 
REMARK   23  A    between atoms: C50_50  and  N8_84 
REMARK   24  A    between atoms: C51_51  and  O9_75 
REMARK       I    between atoms: C61_61  and  N9_85 
ROOT
HETATM    1  C25 UNL     1      -2.059   1.432   2.117  1.00  0.00     0.088 C 
HETATM    2  C26 UNL     1      -1.814  -0.112   2.000  1.00  0.00     0.056 C 
HETATM    3  C27 UNL     1      -0.385  -0.533   1.770  1.00  0.00    -0.008 C 
HETATM    4  C28 UNL     1       0.560   0.331   1.367  1.00  0.00     0.028 C 
HETATM    5  C29 UNL     1       0.237   1.715   1.092  1.00  0.00     0.014 C 
HETATM    6  C30 UNL     1      -0.953   2.238   1.426  1.00  0.00    -0.001 C 
ENDROOT
BRANCH   1   7
HETATM    7  C23 UNL     1      -3.475   1.714   1.565  1.00  0.00    -0.036 A 
HETATM    8  C22 UNL     1      -3.682   2.221   0.271  1.00  0.00     0.009 A 
HETATM    9  C21 UNL     1      -4.971   2.442  -0.221  1.00  0.00     0.008 A 
HETATM   10  C8  UNL     1      -6.091   2.144   0.561  1.00  0.00    -0.048 A 
HETATM   11  C7  UNL     1      -5.910   1.588   1.848  1.00  0.00    -0.033 A 
HETATM   12  C9  UNL     1      -7.479   2.369  -0.017  1.00  0.00     0.074 C 
HETATM   13  C6  UNL     1      -7.105   1.228   2.723  1.00  0.00     0.166 C 
HETATM   14  C24 UNL     1      -4.610   1.386   2.335  1.00  0.00     0.018 A 
HETATM   15  N2  UNL     1      -8.286   1.003   1.887  1.00  0.00    -0.332 N 
HETATM   16  C5  UNL     1      -8.422  -0.326   1.458  1.00  0.00     0.244 C 
HETATM   17  C10 UNL     1      -8.556   2.202   1.059  1.00  0.00     0.184 C 
HETATM   18  O2  UNL     1      -7.772  -1.230   2.000  1.00  0.00    -0.271 OA
BRANCH  16  19
HETATM   19  C4  UNL     1      -9.304  -0.685   0.238  1.00  0.00     0.184 C 
BRANCH  19  20
HETATM   20  C62 UNL     1     -10.345  -1.823   0.523  1.00  0.00    -0.022 C 
HETATM   21  C63 UNL     1     -11.164  -1.503   1.788  1.00  0.00     0.017 C 
HETATM   22  C64 UNL     1      -9.706  -3.216   0.706  1.00  0.00     0.017 C 
HETATM   23  C65 UNL     1     -11.327  -1.918  -0.667  1.00  0.00     0.017 C 
ENDBRANCH  19  20
BRANCH  19  24
HETATM   24  N1  UNL     1      -8.341  -1.080  -0.791  1.00  0.00    -0.345 N 
HETATM   25  C3  UNL     1      -8.413  -0.668  -2.103  1.00  0.00     0.251 C 
HETATM   26  O1  UNL     1      -9.291   0.091  -2.501  1.00  0.00    -0.271 OA
HETATM   27  H78 UNL     1      -7.560  -1.658  -0.500  1.00  0.00     0.163 HD
BRANCH  25  28
HETATM   28  C2  UNL     1      -7.256  -1.192  -2.987  1.00  0.00     0.307 C 
HETATM   29  C1  UNL     1      -7.542  -0.933  -4.462  1.00  0.00     0.053 C 
BRANCH  28  30
HETATM   30  N10 UNL     1      -7.069  -2.646  -2.793  1.00  0.00     0.092 N 
HETATM   31  C66 UNL     1      -5.782  -2.971  -2.198  1.00  0.00     0.307 C 
HETATM   32  H86 UNL     1      -7.836  -3.034  -2.243  1.00  0.00     0.316 HD
ENDBRANCH  28  30
ENDBRANCH  25  28
ENDBRANCH  19  24
ENDBRANCH  16  19
BRANCH  17  33
HETATM   33  C11 UNL     1      -9.985   2.514   0.592  1.00  0.00     0.241 C 
HETATM   34  O3  UNL     1     -10.229   3.199  -0.396  1.00  0.00    -0.271 OA
HETATM   35  N3  UNL     1     -10.960   2.123   1.484  1.00  0.00    -0.349 N 
HETATM   36  H79 UNL     1     -10.682   1.674   2.349  1.00  0.00     0.163 HD
BRANCH  35  37
HETATM   37  C12 UNL     1     -12.350   2.555   1.341  1.00  0.00     0.141 C 
BRANCH  37  38
HETATM   38  C13 UNL     1     -13.058   1.837   0.160  1.00  0.00     0.197 C 
BRANCH  38  39
HETATM   39  O4  UNL     1     -14.403   2.277  -0.056  1.00  0.00    -0.394 OA
HETATM   40  C14 UNL     1     -14.476   3.518  -0.746  1.00  0.00     0.201 C 
ENDBRANCH  38  39
ENDBRANCH  37  38
BRANCH  37  41
HETATM   41  C15 UNL     1     -13.026   2.429   2.702  1.00  0.00    -0.033 A 
HETATM   42  C16 UNL     1     -13.848   1.349   3.053  1.00  0.00     0.009 A 
HETATM   43  C17 UNL     1     -14.409   1.263   4.331  1.00  0.00     0.001 A 
HETATM   44  C18 UNL     1     -14.151   2.251   5.278  1.00  0.00     0.000 A 
HETATM   45  C19 UNL     1     -13.333   3.328   4.950  1.00  0.00     0.001 A 
HETATM   46  C20 UNL     1     -12.773   3.415   3.674  1.00  0.00     0.009 A 
ENDBRANCH  37  41
ENDBRANCH  35  37
ENDBRANCH  17  33
ENDBRANCH   1   7
BRANCH   1  47
HETATM   47  C61 UNL     1      -1.941   1.878   3.609  1.00  0.00     0.232 C 
HETATM   48  O10 UNL     1      -1.501   1.176   4.516  1.00  0.00    -0.272 OA
HETATM   49  N9  UNL     1      -2.317   3.168   3.895  1.00  0.00    -0.369 N 
HETATM   50  H84 UNL     1      -2.312   3.435   4.871  1.00  0.00     0.159 HD
HETATM   51  H85 UNL     1      -2.900   3.698   3.260  1.00  0.00     0.159 HD
ENDBRANCH   1  47
BRANCH   4  52
HETATM   52  C31 UNL     1       1.949  -0.194   1.156  1.00  0.00     0.255 C 
HETATM   53  O5  UNL     1       2.143  -1.162   0.432  1.00  0.00    -0.267 OA
HETATM   54  N4  UNL     1       2.878   0.513   1.894  1.00  0.00    -0.323 N 
HETATM   55  H80 UNL     1       2.508   1.199   2.540  1.00  0.00     0.169 HD
BRANCH  54  56
HETATM   56  C32 UNL     1       4.275   0.332   1.909  1.00  0.00     0.035 A 
HETATM   57  C33 UNL     1       4.955  -0.534   1.050  1.00  0.00     0.039 A 
HETATM   58  C34 UNL     1       6.349  -0.653   1.121  1.00  0.00    -0.032 A 
HETATM   59  C35 UNL     1       7.068   0.093   2.066  1.00  0.00    -0.048 A 
HETATM   60  C38 UNL     1       7.111  -1.612   0.238  1.00  0.00     0.166 C 
HETATM   61  C36 UNL     1       8.555  -0.125   2.132  1.00  0.00     0.074 C 
HETATM   62  C59 UNL     1       6.395   0.954   2.931  1.00  0.00     0.010 A 
HETATM   63  C37 UNL     1       9.156  -0.230   0.717  1.00  0.00     0.184 C 
HETATM   64  N5  UNL     1       8.356  -1.016  -0.251  1.00  0.00    -0.332 N 
HETATM   65  C39 UNL     1       8.760  -0.960  -1.578  1.00  0.00     0.244 C 
HETATM   66  O6  UNL     1       9.747  -0.277  -1.894  1.00  0.00    -0.271 OA
HETATM   67  C60 UNL     1       5.006   1.078   2.843  1.00  0.00     0.030 A 
BRANCH  63  68
HETATM   68  C49 UNL     1      10.550  -0.874   0.852  1.00  0.00     0.241 C 
HETATM   69  O8  UNL     1      10.719  -2.008   1.297  1.00  0.00    -0.271 OA
HETATM   70  N8  UNL     1      11.572  -0.075   0.371  1.00  0.00    -0.349 N 
HETATM   71  H83 UNL     1      11.291   0.465  -0.449  1.00  0.00     0.163 HD
BRANCH  70  72
HETATM   72  C50 UNL     1      12.936  -0.587   0.275  1.00  0.00     0.141 C 
BRANCH  72  73
HETATM   73  C51 UNL     1      13.794   0.335  -0.626  1.00  0.00     0.197 C 
BRANCH  73  74
HETATM   74  O9  UNL     1      13.142   0.671  -1.860  1.00  0.00    -0.394 OA
HETATM   75  C52 UNL     1      13.134  -0.394  -2.801  1.00  0.00     0.201 C 
ENDBRANCH  73  74
ENDBRANCH  72  73
BRANCH  72  76
HETATM   76  C53 UNL     1      13.586  -0.729   1.643  1.00  0.00    -0.033 A 
HETATM   77  C54 UNL     1      14.170  -1.947   2.020  1.00  0.00     0.009 A 
HETATM   78  C55 UNL     1      14.786  -2.085   3.266  1.00  0.00     0.001 A 
HETATM   79  C56 UNL     1      14.827  -1.008   4.148  1.00  0.00     0.000 A 
HETATM   80  C57 UNL     1      14.247   0.207   3.790  1.00  0.00     0.001 A 
HETATM   81  C58 UNL     1      13.629   0.346   2.546  1.00  0.00     0.009 A 
ENDBRANCH  72  76
ENDBRANCH  70  72
ENDBRANCH  63  68
BRANCH  65  82
HETATM   82  C40 UNL     1       8.044  -1.813  -2.665  1.00  0.00     0.184 C 
BRANCH  82  83
HETATM   83  C41 UNL     1       8.637  -3.253  -2.821  1.00  0.00    -0.022 C 
HETATM   84  C42 UNL     1       8.409  -4.096  -1.553  1.00  0.00     0.017 C 
HETATM   85  C43 UNL     1       7.924  -3.976  -3.988  1.00  0.00     0.017 C 
HETATM   86  C44 UNL     1      10.150  -3.236  -3.115  1.00  0.00     0.017 C 
ENDBRANCH  82  83
BRANCH  82  87
HETATM   87  N6  UNL     1       8.168  -1.057  -3.916  1.00  0.00    -0.345 N 
HETATM   88  C45 UNL     1       7.255  -0.079  -4.255  1.00  0.00     0.251 C 
HETATM   89  O7  UNL     1       6.188   0.089  -3.673  1.00  0.00    -0.271 OA
HETATM   90  H81 UNL     1       9.111  -0.803  -4.211  1.00  0.00     0.163 HD
BRANCH  88  91
HETATM   91  C46 UNL     1       7.672   0.744  -5.491  1.00  0.00     0.307 C 
HETATM   92  C47 UNL     1       7.286  -0.034  -6.747  1.00  0.00     0.053 C 
BRANCH  91  93
HETATM   93  N7  UNL     1       9.142   0.973  -5.495  1.00  0.00     0.092 N 
HETATM   94  C48 UNL     1       9.516   2.008  -4.531  1.00  0.00     0.307 C 
HETATM   95  H82 UNL     1       9.419   1.294  -6.424  1.00  0.00     0.316 HD
ENDBRANCH  91  93
ENDBRANCH  88  91
ENDBRANCH  82  87
ENDBRANCH  65  82
ENDBRANCH  54  56
ENDBRANCH   4  52
TORSDOF 24
