REMARK  0 active torsions:
REMARK  status: ('A' for Active; 'I' for Inactive)
REMARK       I    between atoms: C6_6  and  C11_11 
REMARK       I    between atoms: C11_11  and  C12_12 
REMARK       I    between atoms: C12_12  and  C13_13 
REMARK       I    between atoms: C12_12  and  N6_86 
REMARK       I    between atoms: C13_13  and  N1_81 
REMARK       I    between atoms: C14_14  and  C15_15 
REMARK       I    between atoms: C14_14  and  C39_39 
REMARK       I    between atoms: C14_14  and  N1_81 
REMARK       I    between atoms: C15_15  and  C16_16 
REMARK       I    between atoms: C16_16  and  C17_17 
REMARK       I    between atoms: C17_17  and  C18_18 
REMARK       I    between atoms: C18_18  and  N2_82 
REMARK       I    between atoms: C19_19  and  C20_20 
REMARK       I    between atoms: C19_19  and  N2_82 
REMARK       I    between atoms: C20_20  and  C21_21 
REMARK       I    between atoms: C21_21  and  C22_22 
REMARK       I    between atoms: C22_22  and  C23_23 
REMARK       I    between atoms: C23_23  and  C24_24 
REMARK       I    between atoms: C24_24  and  C25_25 
REMARK       I    between atoms: C25_25  and  C26_26 
REMARK       I    between atoms: C26_26  and  N3_83 
REMARK       I    between atoms: C27_27  and  C28_28 
REMARK       I    between atoms: C27_27  and  N3_83 
REMARK       I    between atoms: C28_28  and  C29_29 
REMARK       I    between atoms: C29_29  and  C30_30 
REMARK       I    between atoms: C30_30  and  C31_31 
REMARK       I    between atoms: C31_31  and  C32_32 
REMARK       I    between atoms: C31_31  and  N4_84 
REMARK       I    between atoms: C32_32  and  O5_64 
REMARK       I    between atoms: C33_33  and  N4_84 
REMARK       I    between atoms: C33_33  and  N5_85 
REMARK       I    between atoms: C34_34  and  C35_35 
REMARK       I    between atoms: C34_34  and  C38_38 
REMARK       I    between atoms: C34_34  and  N5_85 
REMARK       I    between atoms: C35_35  and  C36_36 
REMARK       I    between atoms: C36_36  and  C37_37 
REMARK       I    between atoms: C37_37  and  O8_67 
REMARK       I    between atoms: C38_38  and  O10_69 
REMARK       I    between atoms: C39_39  and  O12_71 
REMARK       I    between atoms: C40_40  and  C41_41 
REMARK       I    between atoms: C40_40  and  N6_86 
REMARK       I    between atoms: C41_41  and  C42_42 
REMARK       I    between atoms: C41_41  and  N7_87 
REMARK       I    between atoms: C42_42  and  C43_43 
REMARK       I    between atoms: C46_46  and  O14_73 
REMARK       I    between atoms: C49_49  and  C50_50 
REMARK       I    between atoms: C49_49  and  N7_87 
REMARK       I    between atoms: C50_50  and  C51_51 
REMARK       I    between atoms: C50_50  and  N8_88 
REMARK       I    between atoms: C51_51  and  O16_75 
REMARK       I    between atoms: C52_52  and  C53_53 
REMARK       I    between atoms: C52_52  and  N8_88 
REMARK       I    between atoms: C53_53  and  C54_54 
REMARK       I    between atoms: C53_53  and  N9_89 
REMARK       I    between atoms: C54_54  and  O18_77 
REMARK       I    between atoms: C55_55  and  C56_56 
REMARK       I    between atoms: C55_55  and  N9_89 
REMARK       I    between atoms: C56_56  and  C57_57 
REMARK       I    between atoms: C56_56  and  N10_90 
REMARK       I    between atoms: C57_57  and  O20_79 
REMARK       I    between atoms: C58_58  and  C59_59 
REMARK       I    between atoms: C58_58  and  N10_90 
REMARK       I    between atoms: C59_59  and  S1_91 
ROOT
HETATM    1  C1  UNL     1       5.076  -4.013  -4.650  1.00  0.00     0.001 A 
HETATM    2  C2  UNL     1       3.804  -3.522  -4.925  1.00  0.00     0.001 A 
HETATM    3  C3  UNL     1       2.867  -3.400  -3.898  1.00  0.00     0.012 A 
HETATM    4  C4  UNL     1       3.193  -3.766  -2.582  1.00  0.00    -0.025 A 
HETATM    5  C5  UNL     1       2.267  -3.631  -1.534  1.00  0.00     0.019 A 
HETATM    6  C6  UNL     1       2.601  -3.979  -0.218  1.00  0.00    -0.055 A 
HETATM    7  C7  UNL     1       3.877  -4.490   0.043  1.00  0.00     0.008 A 
HETATM    8  C8  UNL     1       4.807  -4.634  -0.989  1.00  0.00     0.013 A 
HETATM    9  C9  UNL     1       4.483  -4.268  -2.304  1.00  0.00    -0.026 A 
HETATM   10  C10 UNL     1       5.414  -4.386  -3.348  1.00  0.00     0.012 A 
HETATM   11  C11 UNL     1       1.618  -3.749   0.907  1.00  0.00     0.073 C 
HETATM   12  C12 UNL     1       1.715  -2.325   1.461  1.00  0.00     0.180 C 
HETATM   13  C13 UNL     1       0.644  -2.111   2.543  1.00  0.00     0.241 C 
HETATM   14  C14 UNL     1      -1.158  -0.587   3.132  1.00  0.00     0.182 C 
HETATM   15  C15 UNL     1      -2.616  -0.321   2.761  1.00  0.00     0.036 C 
HETATM   16  C16 UNL     1      -3.495  -1.575   2.736  1.00  0.00     0.004 C 
HETATM   17  C17 UNL     1      -3.586  -2.354   4.053  1.00  0.00     0.020 C 
HETATM   18  C18 UNL     1      -4.052  -1.540   5.261  1.00  0.00     0.122 C 
HETATM   19  C19 UNL     1      -6.508  -1.510   4.994  1.00  0.00     0.217 C 
HETATM   20  C20 UNL     1      -7.671  -0.596   4.656  1.00  0.00     0.103 C 
HETATM   21  C21 UNL     1      -8.899  -1.347   4.146  1.00  0.00     0.009 C 
HETATM   22  C22 UNL     1      -8.718  -2.021   2.779  1.00  0.00     0.000 C 
HETATM   23  C23 UNL     1      -8.364  -1.038   1.658  1.00  0.00     0.000 C 
HETATM   24  C24 UNL     1      -8.579  -1.621   0.257  1.00  0.00     0.009 C 
HETATM   25  C25 UNL     1      -7.635  -2.763  -0.120  1.00  0.00     0.103 C 
HETATM   26  C26 UNL     1      -6.268  -2.293  -0.588  1.00  0.00     0.217 C 
HETATM   27  C27 UNL     1      -4.325  -3.020  -1.940  1.00  0.00     0.122 C 
HETATM   28  C28 UNL     1      -3.147  -2.791  -0.997  1.00  0.00     0.020 C 
HETATM   29  C29 UNL     1      -1.797  -2.702  -1.711  1.00  0.00     0.004 C 
HETATM   30  C30 UNL     1      -1.676  -1.627  -2.799  1.00  0.00     0.036 C 
HETATM   31  C31 UNL     1      -2.096  -0.205  -2.396  1.00  0.00     0.184 C 
HETATM   32  C32 UNL     1      -1.142   0.393  -1.349  1.00  0.00     0.163 C 
HETATM   33  C33 UNL     1      -3.158   0.640  -4.458  1.00  0.00     0.317 C 
HETATM   34  C34 UNL     1      -4.025   1.730  -6.465  1.00  0.00     0.184 C 
HETATM   35  C35 UNL     1      -4.181   3.173  -6.961  1.00  0.00     0.046 C 
HETATM   36  C36 UNL     1      -4.737   4.121  -5.897  1.00  0.00     0.112 C 
HETATM   37  C37 UNL     1      -3.747   4.509  -4.831  1.00  0.00     0.139 C 
HETATM   38  C38 UNL     1      -3.595   0.851  -7.647  1.00  0.00     0.163 C 
HETATM   39  C39 UNL     1      -0.368   0.726   3.126  1.00  0.00     0.163 C 
HETATM   40  C40 UNL     1       3.488  -0.802   2.250  1.00  0.00     0.241 C 
HETATM   41  C41 UNL     1       4.471  -0.580   3.422  1.00  0.00     0.180 C 
HETATM   42  C42 UNL     1       5.849  -1.199   3.144  1.00  0.00     0.073 C 
HETATM   43  C43 UNL     1       6.585  -0.550   1.993  1.00  0.00    -0.056 A 
HETATM   44  C44 UNL     1       7.373   0.591   2.211  1.00  0.00     0.010 A 
HETATM   45  C45 UNL     1       7.965   1.256   1.138  1.00  0.00     0.037 A 
HETATM   46  C46 UNL     1       7.771   0.776  -0.149  1.00  0.00     0.065 A 
HETATM   47  C47 UNL     1       7.046  -0.388  -0.379  1.00  0.00     0.037 A 
HETATM   48  C48 UNL     1       6.444  -1.047   0.691  1.00  0.00     0.010 A 
HETATM   49  C49 UNL     1       4.023   1.445   4.800  1.00  0.00     0.243 C 
HETATM   50  C50 UNL     1       3.969   2.978   4.738  1.00  0.00     0.200 C 
HETATM   51  C51 UNL     1       5.319   3.527   5.210  1.00  0.00     0.199 C 
HETATM   52  C52 UNL     1       2.394   3.505   2.876  1.00  0.00     0.243 C 
HETATM   53  C53 UNL     1       2.325   4.094   1.453  1.00  0.00     0.200 C 
HETATM   54  C54 UNL     1       0.972   3.852   0.766  1.00  0.00     0.199 C 
HETATM   55  C55 UNL     1       3.886   4.391  -0.432  1.00  0.00     0.243 C 
HETATM   56  C56 UNL     1       4.781   3.658  -1.450  1.00  0.00     0.200 C 
HETATM   57  C57 UNL     1       4.960   4.530  -2.705  1.00  0.00     0.199 C 
HETATM   58  C58 UNL     1       4.857   1.364  -2.417  1.00  0.00     0.227 C 
HETATM   59  C59 UNL     1       4.065   0.112  -2.773  1.00  0.00     0.173 C 
HETATM   60  O1  UNL     1       0.832  -2.473   3.706  1.00  0.00    -0.271 OA
HETATM   61  O2  UNL     1      -6.633  -2.703   5.246  1.00  0.00    -0.274 OA
HETATM   62  O3  UNL     1      -5.834  -1.161  -0.408  1.00  0.00    -0.274 OA
HETATM   63  O4  UNL     1      -0.790  -0.140  -0.304  1.00  0.00    -0.648 OA
HETATM   64  O5  UNL     1      -0.722   1.642  -1.673  1.00  0.00    -0.775 OA
HETATM   65  O6  UNL     1      -4.059  -0.185  -4.442  1.00  0.00    -0.247 OA
HETATM   66  O7  UNL     1      -3.978   4.603  -3.637  1.00  0.00    -0.650 OA
HETATM   67  O8  UNL     1      -2.539   4.854  -5.315  1.00  0.00    -0.776 OA
HETATM   68  O9  UNL     1      -4.264   0.604  -8.639  1.00  0.00    -0.648 OA
HETATM   69  O10 UNL     1      -2.318   0.411  -7.573  1.00  0.00    -0.775 OA
HETATM   70  O11 UNL     1       0.363   1.102   2.217  1.00  0.00    -0.648 OA
HETATM   71  O12 UNL     1      -0.529   1.479   4.228  1.00  0.00    -0.775 OA
HETATM   72  O13 UNL     1       3.208   0.087   1.442  1.00  0.00    -0.271 OA
HETATM   73  O14 UNL     1       8.278   1.496  -1.189  1.00  0.00    -0.361 OA
HETATM   74  O15 UNL     1       3.782   0.817   5.827  1.00  0.00    -0.271 OA
HETATM   75  O16 UNL     1       5.364   4.948   5.065  1.00  0.00    -0.398 OA
HETATM   76  O17 UNL     1       1.409   3.269   3.576  1.00  0.00    -0.271 OA
HETATM   77  O18 UNL     1       0.900   2.547   0.165  1.00  0.00    -0.398 OA
HETATM   78  O19 UNL     1       3.663   5.600  -0.485  1.00  0.00    -0.271 OA
HETATM   79  O20 UNL     1       5.684   5.728  -2.427  1.00  0.00    -0.398 OA
HETATM   80  O21 UNL     1       6.043   1.477  -2.732  1.00  0.00    -0.273 OA
HETATM   81  N1  UNL     1      -0.491  -1.441   2.142  1.00  0.00    -0.345 N 
HETATM   82  N2  UNL     1      -5.300  -0.846   5.030  1.00  0.00    -0.361 N 
HETATM   83  N3  UNL     1      -5.557  -3.292  -1.227  1.00  0.00    -0.361 N 
HETATM   84  N4  UNL     1      -2.118   0.673  -3.573  1.00  0.00    -0.329 N 
HETATM   85  N5  UNL     1      -3.053   1.654  -5.376  1.00  0.00    -0.329 N 
HETATM   86  N6  UNL     1       2.976  -2.084   2.180  1.00  0.00    -0.346 N 
HETATM   87  N7  UNL     1       4.535   0.858   3.663  1.00  0.00    -0.346 N 
HETATM   88  N8  UNL     1       3.684   3.408   3.362  1.00  0.00    -0.344 N 
HETATM   89  N9  UNL     1       3.432   3.612   0.616  1.00  0.00    -0.344 N 
HETATM   90  N10 UNL     1       4.176   2.360  -1.758  1.00  0.00    -0.345 N 
HETATM   91  S1  UNL     1       2.420   0.049  -2.012  1.00  0.00    -0.173 SA
HETATM   92  H64 UNL     1      -0.100   1.922  -0.949  1.00  0.00     0.167 HD
HETATM   93  H65 UNL     1      -2.052   5.152  -4.517  1.00  0.00     0.167 HD
HETATM   94  H66 UNL     1      -2.216  -0.130  -8.384  1.00  0.00     0.167 HD
HETATM   95  H67 UNL     1       0.115   2.227   4.111  1.00  0.00     0.167 HD
HETATM   96  H68 UNL     1       7.651   1.402  -1.941  1.00  0.00     0.217 HD
HETATM   97  H69 UNL     1       4.740   5.329   5.708  1.00  0.00     0.209 HD
HETATM   98  H70 UNL     1       0.887   1.908   0.925  1.00  0.00     0.209 HD
HETATM   99  H71 UNL     1       5.136   6.248  -1.803  1.00  0.00     0.209 HD
HETATM  100  H72 UNL     1      -0.460  -1.022   1.207  1.00  0.00     0.163 HD
HETATM  101  H73 UNL     1      -5.262   0.110   4.702  1.00  0.00     0.162 HD
HETATM  102  H74 UNL     1      -6.033  -4.161  -1.429  1.00  0.00     0.162 HD
HETATM  103  H75 UNL     1      -1.748   1.601  -3.395  1.00  0.00     0.165 HD
HETATM  104  H76 UNL     1      -2.093   1.810  -5.658  1.00  0.00     0.165 HD
HETATM  105  H77 UNL     1       3.042  -2.622   3.041  1.00  0.00     0.163 HD
HETATM  106  H78 UNL     1       4.517   1.433   2.825  1.00  0.00     0.163 HD
HETATM  107  H79 UNL     1       4.418   3.897   2.853  1.00  0.00     0.163 HD
HETATM  108  H80 UNL     1       3.503   2.602   0.502  1.00  0.00     0.163 HD
HETATM  109  H81 UNL     1       3.163   2.264  -1.705  1.00  0.00     0.163 HD
HETATM  110  H82 UNL     1       2.850  -0.058  -0.739  1.00  0.00     0.102 HD
ENDROOT
TORSDOF 53
