REMARK  0 active torsions:
REMARK  status: ('A' for Active; 'I' for Inactive)
REMARK       I    between atoms: C2_2  and  O11_48 
REMARK       I    between atoms: C6_6  and  N4_53 
REMARK       I    between atoms: C7_7  and  N4_53 
REMARK       I    between atoms: C8_8  and  N6_55 
REMARK       I    between atoms: C9_9  and  O6_43 
REMARK       I    between atoms: C10_10  and  O4_41 
REMARK       I    between atoms: C11_11  and  C12_12 
REMARK       I    between atoms: C12_12  and  O3_40 
REMARK       I    between atoms: C13_13  and  O4_41 
REMARK       I    between atoms: C13_13  and  N5_54 
REMARK       I    between atoms: C14_14  and  C15_15 
REMARK       I    between atoms: C14_14  and  N6_55 
REMARK       I    between atoms: C15_15  and  C16_16 
REMARK       I    between atoms: C16_16  and  C17_17 
REMARK       I    between atoms: C16_16  and  N14_63 
REMARK       I    between atoms: C17_17  and  C18_18 
REMARK       I    between atoms: C18_18  and  C19_19 
REMARK       I    between atoms: C19_19  and  N7_56 
REMARK       I    between atoms: C20_20  and  C21_21 
REMARK       I    between atoms: C20_20  and  N7_56 
REMARK       I    between atoms: C21_21  and  C22_22 
REMARK       I    between atoms: C22_22  and  C23_23 
REMARK       I    between atoms: C22_22  and  N13_62 
REMARK       I    between atoms: C23_23  and  C24_24 
REMARK       I    between atoms: C24_24  and  C25_25 
REMARK       I    between atoms: C25_25  and  N8_57 
REMARK       I    between atoms: C26_26  and  C27_27 
REMARK       I    between atoms: C26_26  and  N8_57 
REMARK       I    between atoms: C27_27  and  C28_28 
REMARK       I    between atoms: C28_28  and  C29_29 
REMARK       I    between atoms: C28_28  and  N12_61 
REMARK       I    between atoms: C29_29  and  C30_30 
REMARK       I    between atoms: C30_30  and  C31_31 
REMARK       I    between atoms: C31_31  and  N9_58 
REMARK       I    between atoms: C32_32  and  C33_33 
REMARK       I    between atoms: C32_32  and  N9_58 
REMARK       I    between atoms: C33_33  and  C34_34 
REMARK       I    between atoms: C34_34  and  C35_35 
REMARK       I    between atoms: C34_34  and  N11_60 
REMARK       I    between atoms: C35_35  and  C36_36 
REMARK       I    between atoms: C36_36  and  C37_37 
REMARK       I    between atoms: C37_37  and  N10_59 
ROOT
HETATM    1  C1  UNL     1      -8.702  -3.213  -7.063  1.00  0.00     0.156 C 
HETATM    2  C2  UNL     1      -9.140  -4.225  -6.017  1.00  0.00     0.156 C 
HETATM    3  C3  UNL     1      -7.903  -4.988  -5.521  1.00  0.00     0.124 C 
HETATM    4  C4  UNL     1      -6.771  -4.073  -5.040  1.00  0.00     0.196 C 
HETATM    5  C5  UNL     1      -6.689  -2.698  -5.700  1.00  0.00     0.242 C 
HETATM    6  C6  UNL     1      -7.767  -4.927  -3.268  1.00  0.00     0.130 C 
HETATM    7  C7  UNL     1      -7.689  -4.674  -0.859  1.00  0.00     0.226 C 
HETATM    8  C8  UNL     1      -6.413  -5.411  -0.371  1.00  0.00     0.159 C 
HETATM    9  C9  UNL     1      -6.792  -6.789   0.213  1.00  0.00     0.176 C 
HETATM   10  C10 UNL     1      -7.869  -6.635   1.300  1.00  0.00     0.195 C 
HETATM   11  C11 UNL     1      -9.072  -5.865   0.730  1.00  0.00     0.179 C 
HETATM   12  C12 UNL     1     -10.130  -5.586   1.811  1.00  0.00     0.198 C 
HETATM   13  C13 UNL     1      -7.522  -8.538   2.657  1.00  0.00     0.358 C 
HETATM   14  C14 UNL     1      -4.352  -4.845   0.905  1.00  0.00     0.220 C 
HETATM   15  C15 UNL     1      -3.806  -3.937   1.990  1.00  0.00     0.138 C 
HETATM   16  C16 UNL     1      -2.273  -3.972   2.072  1.00  0.00     0.226 C 
HETATM   17  C17 UNL     1      -1.633  -3.287   0.845  1.00  0.00     0.037 C 
HETATM   18  C18 UNL     1      -0.111  -3.477   0.769  1.00  0.00     0.022 C 
HETATM   19  C19 UNL     1       0.475  -2.927  -0.532  1.00  0.00     0.122 C 
HETATM   20  C20 UNL     1       1.222  -0.630   0.009  1.00  0.00     0.219 C 
HETATM   21  C21 UNL     1       0.806   0.826  -0.151  1.00  0.00     0.138 C 
HETATM   22  C22 UNL     1       1.657   1.923   0.508  1.00  0.00     0.226 C 
HETATM   23  C23 UNL     1       2.985   2.245  -0.215  1.00  0.00     0.037 C 
HETATM   24  C24 UNL     1       4.116   1.214  -0.219  1.00  0.00     0.022 C 
HETATM   25  C25 UNL     1       4.785   0.934   1.127  1.00  0.00     0.122 C 
HETATM   26  C26 UNL     1       5.269   3.074   2.321  1.00  0.00     0.219 C 
HETATM   27  C27 UNL     1       6.390   4.062   2.594  1.00  0.00     0.138 C 
HETATM   28  C28 UNL     1       5.933   5.471   3.012  1.00  0.00     0.226 C 
HETATM   29  C29 UNL     1       5.102   6.151   1.906  1.00  0.00     0.037 C 
HETATM   30  C30 UNL     1       4.826   7.644   2.140  1.00  0.00     0.022 C 
HETATM   31  C31 UNL     1       6.065   8.539   2.129  1.00  0.00     0.122 C 
HETATM   32  C32 UNL     1       7.747   7.817   0.445  1.00  0.00     0.219 C 
HETATM   33  C33 UNL     1       8.157   8.029  -1.004  1.00  0.00     0.138 C 
HETATM   34  C34 UNL     1       9.457   7.346  -1.465  1.00  0.00     0.226 C 
HETATM   35  C35 UNL     1      10.750   8.081  -1.048  1.00  0.00     0.037 C 
HETATM   36  C36 UNL     1      11.057   8.128   0.452  1.00  0.00     0.032 C 
HETATM   37  C37 UNL     1      12.377   8.834   0.779  1.00  0.00     0.267 C 
HETATM   38  O1  UNL     1      -5.767  -1.910  -5.496  1.00  0.00    -0.271 OA
HETATM   39  O2  UNL     1      -8.678  -4.603   0.176  1.00  0.00    -0.359 OA
HETATM   40  O3  UNL     1      -9.551  -4.931   2.939  1.00  0.00    -0.398 OA
HETATM   41  O4  UNL     1      -8.314  -7.938   1.742  1.00  0.00    -0.293 OA
HETATM   42  O5  UNL     1      -6.478  -8.100   3.108  1.00  0.00    -0.239 OA
HETATM   43  O6  UNL     1      -7.298  -7.644  -0.835  1.00  0.00    -0.391 OA
HETATM   44  O7  UNL     1      -3.701  -5.727   0.356  1.00  0.00    -0.274 OA
HETATM   45  O8  UNL     1       2.210  -1.034   0.608  1.00  0.00    -0.274 OA
HETATM   46  O9  UNL     1       4.141   3.191   2.790  1.00  0.00    -0.274 OA
HETATM   47  O10 UNL     1       8.283   7.010   1.198  1.00  0.00    -0.274 OA
HETATM   48  O11 UNL     1     -10.109  -5.131  -6.558  1.00  0.00    -0.392 OA
HETATM   49  N1  UNL     1      -7.692  -2.324  -6.553  1.00  0.00    -0.357 N 
HETATM   50  N2  UNL     1      -6.983  -3.933  -3.560  1.00  0.00    -0.356 N 
ATOM     51  H2  UNL     1      -6.602  -3.225  -2.932  1.00  0.00     0.162 HD
HETATM   52  N3  UNL     1      -8.220  -5.708  -4.287  1.00  0.00    -0.260 NA
HETATM   53  N4  UNL     1      -8.255  -5.274  -2.057  1.00  0.00    -0.240 NA
HETATM   54  N5  UNL     1      -8.051  -9.728   3.013  1.00  0.00    -0.346 N 
HETATM   55  N6  UNL     1      -5.676  -4.604   0.615  1.00  0.00    -0.350 N 
HETATM   56  N7  UNL     1       0.344  -1.488  -0.636  1.00  0.00    -0.361 N 
HETATM   57  N8  UNL     1       5.669   2.016   1.534  1.00  0.00    -0.361 N 
HETATM   58  N9  UNL     1       6.681   8.611   0.816  1.00  0.00    -0.361 N 
HETATM   59  N10 UNL     1      13.552   8.108   0.311  1.00  0.00     0.078 N 
HETATM   60  N11 UNL     1       9.494   5.917  -1.142  1.00  0.00     0.083 N 
HETATM   61  N12 UNL     1       5.197   5.482   4.284  1.00  0.00     0.083 N 
HETATM   62  N13 UNL     1       1.785   1.740   1.946  1.00  0.00     0.083 N 
HETATM   63  N14 UNL     1      -1.860  -3.284   3.305  1.00  0.00     0.083 N 
HETATM   64  H49 UNL     1     -10.287  -4.610   3.489  1.00  0.00     0.209 HD
HETATM   65  H50 UNL     1      -7.306  -8.546  -0.459  1.00  0.00     0.210 HD
HETATM   66  H51 UNL     1      -9.680  -5.684  -7.235  1.00  0.00     0.210 HD
HETATM   67  H52 UNL     1      -7.549  -1.417  -6.983  1.00  0.00     0.162 HD
HETATM   68  H53 UNL     1      -9.196  -5.974  -4.192  1.00  0.00     0.130 HD
HETATM   69  H54 UNL     1      -8.295  -6.289  -1.962  1.00  0.00     0.132 HD
HETATM   70  H55 UNL     1      -8.982  -9.973   2.716  1.00  0.00     0.161 HD
HETATM   71  H56 UNL     1      -7.614 -10.233   3.771  1.00  0.00     0.161 HD
HETATM   72  H57 UNL     1      -6.204  -3.969   1.206  1.00  0.00     0.163 HD
HETATM   73  H58 UNL     1      -0.531  -1.116  -0.981  1.00  0.00     0.162 HD
HETATM   74  H59 UNL     1       6.605   2.017   1.150  1.00  0.00     0.162 HD
HETATM   75  H60 UNL     1       6.220   9.173   0.112  1.00  0.00     0.162 HD
HETATM   76  H61 UNL     1      13.527   7.154   0.670  1.00  0.00     0.312 HD
HETATM   77  H62 UNL     1      13.539   8.032  -0.704  1.00  0.00     0.312 HD
HETATM   78  H63 UNL     1       9.321   5.810  -0.135  1.00  0.00     0.313 HD
HETATM   79  H64 UNL     1      10.428   5.544  -1.303  1.00  0.00     0.313 HD
HETATM   80  H65 UNL     1       5.750   5.010   5.000  1.00  0.00     0.313 HD
HETATM   81  H66 UNL     1       4.367   4.887   4.167  1.00  0.00     0.313 HD
HETATM   82  H67 UNL     1       2.500   2.377   2.327  1.00  0.00     0.313 HD
HETATM   83  H68 UNL     1       0.918   1.966   2.426  1.00  0.00     0.313 HD
HETATM   84  H69 UNL     1      -2.188  -3.812   4.114  1.00  0.00     0.313 HD
HETATM   85  H70 UNL     1      -0.843  -3.278   3.376  1.00  0.00     0.313 HD
ENDROOT
TORSDOF 37
