REMARK  24 active torsions:
REMARK  status: ('A' for Active; 'I' for Inactive)
REMARK    1  A    between atoms: C2_2  and  C3_3 
REMARK    2  A    between atoms: C2_2  and  N10_86 
REMARK       I    between atoms: C3_3  and  N1_77 
REMARK    3  A    between atoms: C4_4  and  C5_5 
REMARK    4  A    between atoms: C4_4  and  C62_62 
REMARK    5  A    between atoms: C4_4  and  N1_77 
REMARK       I    between atoms: C5_5  and  N2_78 
REMARK    6  A    between atoms: C10_10  and  C11_11 
REMARK       I    between atoms: C11_11  and  N3_79 
REMARK    7  A    between atoms: C12_12  and  C13_13 
REMARK    8  A    between atoms: C12_12  and  C15_15 
REMARK    9  A    between atoms: C12_12  and  N3_79 
REMARK   10  A    between atoms: C13_13  and  O4_70 
REMARK   11  A    between atoms: C23_23  and  N4_80 
REMARK   12  A    between atoms: C25_25  and  C26_26 
REMARK       I    between atoms: C25_25  and  N4_80 
REMARK   13  A    between atoms: C29_29  and  C32_32 
REMARK       I    between atoms: C32_32  and  N5_81 
REMARK   14  A    between atoms: C33_33  and  N5_81 
REMARK   15  A    between atoms: C38_38  and  C50_50 
REMARK   16  A    between atoms: C40_40  and  C41_41 
REMARK       I    between atoms: C40_40  and  N6_82 
REMARK   17  A    between atoms: C41_41  and  C42_42 
REMARK   18  A    between atoms: C41_41  and  N7_83 
REMARK   19  A    between atoms: C46_46  and  C47_47 
REMARK       I    between atoms: C46_46  and  N7_83 
REMARK   20  A    between atoms: C47_47  and  N8_84 
REMARK       I    between atoms: C50_50  and  N9_85 
REMARK   21  A    between atoms: C51_51  and  C52_52 
REMARK   22  A    between atoms: C51_51  and  C54_54 
REMARK   23  A    between atoms: C51_51  and  N9_85 
REMARK   24  A    between atoms: C52_52  and  O10_76 
ROOT
HETATM    1  C26 UNL     1       1.441   0.240   0.196  1.00  0.00     0.032 A 
HETATM    2  C27 UNL     1       0.544   0.549  -0.837  1.00  0.00     0.018 A 
HETATM    3  C28 UNL     1      -0.836   0.499  -0.608  1.00  0.00     0.018 A 
HETATM    4  C29 UNL     1      -1.325   0.139   0.656  1.00  0.00     0.032 A 
HETATM    5  C30 UNL     1      -0.429  -0.204   1.675  1.00  0.00     0.018 A 
HETATM    6  C31 UNL     1       0.948  -0.153   1.446  1.00  0.00     0.018 A 
ENDROOT
BRANCH   1   7
HETATM    7  C25 UNL     1       2.918   0.272  -0.009  1.00  0.00     0.256 C 
HETATM    8  O5  UNL     1       3.600  -0.556   0.582  1.00  0.00    -0.267 OA
HETATM    9  N4  UNL     1       3.370   1.280  -0.842  1.00  0.00    -0.323 N 
HETATM   10  H79 UNL     1       2.688   1.954  -1.162  1.00  0.00     0.169 HD
BRANCH   9  11
HETATM   11  C23 UNL     1       4.701   1.533  -1.237  1.00  0.00     0.035 A 
HETATM   12  C22 UNL     1       4.920   2.645  -2.057  1.00  0.00     0.030 A 
HETATM   13  C21 UNL     1       6.204   2.961  -2.508  1.00  0.00     0.010 A 
HETATM   14  C8  UNL     1       7.295   2.165  -2.147  1.00  0.00    -0.048 A 
HETATM   15  C7  UNL     1       7.092   1.055  -1.299  1.00  0.00    -0.032 A 
HETATM   16  C9  UNL     1       8.682   2.535  -2.638  1.00  0.00     0.074 C 
HETATM   17  C6  UNL     1       8.246   0.157  -0.882  1.00  0.00     0.166 C 
HETATM   18  C24 UNL     1       5.791   0.742  -0.867  1.00  0.00     0.039 A 
HETATM   19  N2  UNL     1       9.531   0.832  -1.056  1.00  0.00    -0.332 N 
HETATM   20  C5  UNL     1      10.065   1.596   0.001  1.00  0.00     0.244 C 
HETATM   21  C10 UNL     1       9.668   1.383  -2.416  1.00  0.00     0.184 C 
HETATM   22  O2  UNL     1      10.610   2.679  -0.216  1.00  0.00    -0.271 OA
BRANCH  20  23
HETATM   23  C4  UNL     1      10.045   0.953   1.425  1.00  0.00     0.184 C 
BRANCH  23  24
HETATM   24  C62 UNL     1      10.565   1.843   2.600  1.00  0.00    -0.022 C 
HETATM   25  C63 UNL     1      10.389   1.068   3.929  1.00  0.00     0.017 C 
HETATM   26  C64 UNL     1       9.725   3.131   2.712  1.00  0.00     0.017 C 
HETATM   27  C65 UNL     1      12.052   2.214   2.471  1.00  0.00     0.017 C 
ENDBRANCH  23  24
BRANCH  23  28
HETATM   28  N1  UNL     1      10.824  -0.282   1.299  1.00  0.00    -0.345 N 
HETATM   29  C3  UNL     1      10.262  -1.536   1.425  1.00  0.00     0.251 C 
HETATM   30  O1  UNL     1       9.137  -1.730   1.873  1.00  0.00    -0.271 OA
HETATM   31  H77 UNL     1      11.670  -0.253   0.734  1.00  0.00     0.163 HD
BRANCH  29  32
HETATM   32  C2  UNL     1      11.207  -2.658   0.938  1.00  0.00     0.307 C 
HETATM   33  C1  UNL     1      10.511  -4.015   1.014  1.00  0.00     0.053 C 
BRANCH  32  34
HETATM   34  N10 UNL     1      11.630  -2.309  -0.442  1.00  0.00     0.092 N 
HETATM   35  C66 UNL     1      12.796  -3.075  -0.865  1.00  0.00     0.307 C 
HETATM   36  H84 UNL     1      10.857  -2.509  -1.078  1.00  0.00     0.316 HD
ENDBRANCH  32  34
ENDBRANCH  29  32
ENDBRANCH  23  28
ENDBRANCH  20  23
BRANCH  21  37
HETATM   37  C11 UNL     1      11.100   1.717  -2.878  1.00  0.00     0.241 C 
HETATM   38  O3  UNL     1      11.337   2.557  -3.745  1.00  0.00    -0.271 OA
HETATM   39  N3  UNL     1      12.074   0.881  -2.375  1.00  0.00    -0.349 N 
HETATM   40  H78 UNL     1      11.795   0.049  -1.867  1.00  0.00     0.163 HD
BRANCH  39  41
HETATM   41  C12 UNL     1      13.458   0.967  -2.823  1.00  0.00     0.141 C 
BRANCH  41  42
HETATM   42  C13 UNL     1      13.634   0.266  -4.193  1.00  0.00     0.197 C 
BRANCH  42  43
HETATM   43  O4  UNL     1      13.193  -1.102  -4.140  1.00  0.00    -0.394 OA
HETATM   44  C14 UNL     1      13.298  -1.730  -5.410  1.00  0.00     0.201 C 
ENDBRANCH  42  43
ENDBRANCH  41  42
BRANCH  41  45
HETATM   45  C15 UNL     1      14.387   0.533  -1.697  1.00  0.00    -0.033 A 
HETATM   46  C16 UNL     1      15.255  -0.564  -1.781  1.00  0.00     0.009 A 
HETATM   47  C17 UNL     1      16.093  -0.899  -0.713  1.00  0.00     0.001 A 
HETATM   48  C18 UNL     1      16.078  -0.143   0.456  1.00  0.00     0.000 A 
HETATM   49  C19 UNL     1      15.225   0.952   0.559  1.00  0.00     0.001 A 
HETATM   50  C20 UNL     1      14.388   1.286  -0.507  1.00  0.00     0.009 A 
ENDBRANCH  41  45
ENDBRANCH  39  41
ENDBRANCH  21  37
ENDBRANCH   9  11
ENDBRANCH   1   7
BRANCH   4  51
HETATM   51  C32 UNL     1      -2.788   0.064   0.937  1.00  0.00     0.256 C 
HETATM   52  O6  UNL     1      -3.185  -0.806   1.701  1.00  0.00    -0.267 OA
HETATM   53  N5  UNL     1      -3.548   1.040   0.318  1.00  0.00    -0.323 N 
HETATM   54  H80 UNL     1      -3.049   1.779  -0.157  1.00  0.00     0.169 HD
BRANCH  53  55
HETATM   55  C33 UNL     1      -4.951   1.184   0.361  1.00  0.00     0.035 A 
HETATM   56  C34 UNL     1      -5.813   0.263   0.961  1.00  0.00     0.039 A 
HETATM   57  C35 UNL     1      -7.198   0.476   0.951  1.00  0.00    -0.032 A 
HETATM   58  C36 UNL     1      -7.728   1.621   0.339  1.00  0.00    -0.048 A 
HETATM   59  C39 UNL     1      -8.157  -0.488   1.606  1.00  0.00     0.166 C 
HETATM   60  C37 UNL     1      -9.215   1.835   0.416  1.00  0.00     0.074 C 
HETATM   61  C60 UNL     1      -6.873   2.549  -0.254  1.00  0.00     0.010 A 
HETATM   62  C38 UNL     1     -10.025   0.523   0.269  1.00  0.00     0.184 C 
HETATM   63  N6  UNL     1      -9.314  -0.698   0.729  1.00  0.00    -0.332 N 
HETATM   64  C40 UNL     1      -9.637  -2.007   0.390  1.00  0.00     0.244 C 
HETATM   65  O7  UNL     1      -9.112  -2.947   1.005  1.00  0.00    -0.271 OA
HETATM   66  C61 UNL     1      -5.494   2.324  -0.250  1.00  0.00     0.030 A 
BRANCH  62  67
HETATM   67  C50 UNL     1     -11.339   0.746   1.047  1.00  0.00     0.241 C 
HETATM   68  O9  UNL     1     -12.262   1.401   0.566  1.00  0.00    -0.271 OA
HETATM   69  N9  UNL     1     -11.321   0.297   2.351  1.00  0.00    -0.349 N 
HETATM   70  H83 UNL     1     -10.762  -0.542   2.489  1.00  0.00     0.163 HD
BRANCH  69  71
HETATM   71  C51 UNL     1     -12.505   0.348   3.205  1.00  0.00     0.141 C 
BRANCH  71  72
HETATM   72  C52 UNL     1     -12.254  -0.459   4.502  1.00  0.00     0.197 C 
BRANCH  72  73
HETATM   73  O10 UNL     1     -11.739  -1.766   4.216  1.00  0.00    -0.394 OA
HETATM   74  C53 UNL     1     -12.765  -2.716   3.957  1.00  0.00     0.201 C 
ENDBRANCH  72  73
ENDBRANCH  71  72
BRANCH  71  75
HETATM   75  C54 UNL     1     -12.902   1.772   3.562  1.00  0.00    -0.033 A 
HETATM   76  C55 UNL     1     -14.236   2.185   3.420  1.00  0.00     0.009 A 
HETATM   77  C56 UNL     1     -14.619   3.482   3.768  1.00  0.00     0.001 A 
HETATM   78  C57 UNL     1     -13.676   4.381   4.261  1.00  0.00     0.000 A 
HETATM   79  C58 UNL     1     -12.348   3.986   4.406  1.00  0.00     0.001 A 
HETATM   80  C59 UNL     1     -11.962   2.691   4.059  1.00  0.00     0.009 A 
ENDBRANCH  71  75
ENDBRANCH  69  71
ENDBRANCH  62  67
BRANCH  64  81
HETATM   81  C41 UNL     1     -10.486  -2.358  -0.878  1.00  0.00     0.184 C 
BRANCH  81  82
HETATM   82  C42 UNL     1      -9.594  -2.516  -2.167  1.00  0.00    -0.022 C 
HETATM   83  C43 UNL     1      -9.045  -1.177  -2.688  1.00  0.00     0.017 C 
HETATM   84  C44 UNL     1      -8.395  -3.452  -1.896  1.00  0.00     0.017 C 
HETATM   85  C45 UNL     1     -10.425  -3.172  -3.296  1.00  0.00     0.017 C 
ENDBRANCH  81  82
BRANCH  81  86
HETATM   86  N7  UNL     1     -11.658  -1.519  -1.117  1.00  0.00    -0.345 N 
HETATM   87  C46 UNL     1     -12.813  -1.697  -0.372  1.00  0.00     0.251 C 
HETATM   88  O8  UNL     1     -12.841  -2.314   0.686  1.00  0.00    -0.271 OA
HETATM   89  H81 UNL     1     -11.882  -1.255  -2.074  1.00  0.00     0.163 HD
BRANCH  87  90
HETATM   90  C47 UNL     1     -14.037  -1.000  -1.008  1.00  0.00     0.307 C 
HETATM   91  C48 UNL     1     -15.332  -1.332  -0.273  1.00  0.00     0.053 C 
BRANCH  90  92
HETATM   92  N8  UNL     1     -14.071  -1.269  -2.473  1.00  0.00     0.092 N 
HETATM   93  C49 UNL     1     -14.413  -2.651  -2.802  1.00  0.00     0.307 C 
HETATM   94  H82 UNL     1     -14.780  -0.660  -2.884  1.00  0.00     0.316 HD
ENDBRANCH  90  92
ENDBRANCH  87  90
ENDBRANCH  81  86
ENDBRANCH  64  81
ENDBRANCH  53  55
ENDBRANCH   4  51
TORSDOF 24
