REMARK  0 active torsions:
REMARK  status: ('A' for Active; 'I' for Inactive)
REMARK       I    between atoms: C2_2  and  C3_3 
REMARK       I    between atoms: C4_4  and  C5_5 
REMARK       I    between atoms: C5_5  and  O29_79 
REMARK       I    between atoms: C10_10  and  O2_52 
REMARK       I    between atoms: C18_18  and  O13_63 
REMARK       I    between atoms: C23_23  and  C24_24 
REMARK       I    between atoms: C23_23  and  O15_65 
REMARK       I    between atoms: C25_25  and  C26_26 
REMARK       I    between atoms: C35_35  and  O23_73 
REMARK       I    between atoms: C40_40  and  C41_41 
REMARK       I    between atoms: C40_40  and  O25_75 
REMARK       I    between atoms: C42_42  and  C43_43 
REMARK       I    between atoms: O2_52  and  C51_80 
REMARK       I    between atoms: O3_53  and  C51_80 
REMARK       I    between atoms: O4_54  and  C51_80 
REMARK       I    between atoms: O4_54  and  C52_81 
REMARK       I    between atoms: O5_55  and  C52_81 
REMARK       I    between atoms: O6_56  and  C52_81 
REMARK       I    between atoms: O6_56  and  C53_82 
REMARK       I    between atoms: O7_57  and  C53_82 
REMARK       I    between atoms: O8_58  and  C53_82 
REMARK       I    between atoms: O8_58  and  C54_83 
REMARK       I    between atoms: O9_59  and  C54_83 
REMARK       I    between atoms: O10_60  and  C54_83 
REMARK       I    between atoms: O10_60  and  C55_84 
REMARK       I    between atoms: O11_61  and  C55_84 
REMARK       I    between atoms: O12_62  and  C55_84 
REMARK       I    between atoms: O12_62  and  C56_85 
REMARK       I    between atoms: O13_63  and  C56_85 
REMARK       I    between atoms: O16_66  and  C56_85 
REMARK       I    between atoms: O16_66  and  C57_86 
REMARK       I    between atoms: O17_67  and  C57_86 
REMARK       I    between atoms: O18_68  and  C57_86 
REMARK       I    between atoms: O18_68  and  C58_87 
REMARK       I    between atoms: O19_69  and  C58_87 
REMARK       I    between atoms: O20_70  and  C58_87 
REMARK       I    between atoms: O20_70  and  C59_88 
REMARK       I    between atoms: O21_71  and  C59_88 
REMARK       I    between atoms: O22_72  and  C59_88 
REMARK       I    between atoms: O22_72  and  C60_89 
REMARK       I    between atoms: O23_73  and  C60_89 
REMARK       I    between atoms: O26_76  and  C60_89 
REMARK       I    between atoms: O26_76  and  C61_90 
REMARK       I    between atoms: O27_77  and  C61_90 
REMARK       I    between atoms: O28_78  and  C61_90 
ROOT
HETATM    1  C1  UNL     1       7.405   4.045   0.291  1.00  0.00     0.096 C 
HETATM    2  C2  UNL     1       7.957   2.898   1.098  1.00  0.00     0.145 C 
HETATM    3  C3  UNL     1       9.065   2.081   0.544  1.00  0.00     0.049 C 
HETATM    4  C4  UNL     1       9.282   1.942  -0.773  1.00  0.00     0.018 C 
HETATM    5  C5  UNL     1      10.337   1.057  -1.438  1.00  0.00     0.114 C 
HETATM    6  C6  UNL     1      11.480   1.989  -2.070  1.00  0.00    -0.010 C 
HETATM    7  C7  UNL     1      12.131   1.289  -3.282  1.00  0.00     0.012 C 
HETATM    8  C8  UNL     1      11.137   0.944  -4.392  1.00  0.00     0.004 C 
HETATM    9  C9  UNL     1       9.721   0.643  -3.901  1.00  0.00     0.041 C 
HETATM   10  C10 UNL     1       9.656   0.031  -2.483  1.00  0.00     0.098 C 
HETATM   11  C11 UNL     1      10.345  -1.361  -2.561  1.00  0.00     0.050 C 
HETATM   12  C12 UNL     1       8.196  -1.421   0.438  1.00  0.00     0.115 C 
HETATM   13  C13 UNL     1       3.772  -2.605  -1.232  1.00  0.00     0.115 C 
HETATM   14  C14 UNL     1       4.145   2.466  -2.205  1.00  0.00     0.115 C 
HETATM   15  C15 UNL     1       4.354   3.939   3.195  1.00  0.00     0.115 C 
HETATM   16  C16 UNL     1       0.746   3.032   4.682  1.00  0.00     0.115 C 
HETATM   17  C17 UNL     1       1.474  -1.094   4.950  1.00  0.00     0.116 C 
HETATM   18  C18 UNL     1      -0.006  -2.506   1.908  1.00  0.00     0.098 C 
HETATM   19  C19 UNL     1       1.247  -3.346   2.244  1.00  0.00     0.041 C 
HETATM   20  C20 UNL     1       0.951  -4.559   3.118  1.00  0.00     0.004 C 
HETATM   21  C21 UNL     1      -0.086  -5.478   2.478  1.00  0.00     0.012 C 
HETATM   22  C22 UNL     1      -1.415  -4.758   2.147  1.00  0.00    -0.010 C 
HETATM   23  C23 UNL     1      -1.135  -3.457   1.276  1.00  0.00     0.114 C 
HETATM   24  C24 UNL     1      -0.805  -3.824  -0.174  1.00  0.00     0.018 C 
HETATM   25  C25 UNL     1      -1.528  -3.451  -1.244  1.00  0.00     0.049 C 
HETATM   26  C26 UNL     1      -1.205  -3.768  -2.659  1.00  0.00     0.145 C 
HETATM   27  C27 UNL     1      -0.043  -4.669  -2.977  1.00  0.00     0.096 C 
HETATM   28  C28 UNL     1      -2.330  -5.755   1.385  1.00  0.00     0.018 C 
HETATM   29  C29 UNL     1      -2.168  -4.459   3.471  1.00  0.00     0.018 C 
HETATM   30  C30 UNL     1       0.393  -1.398   0.900  1.00  0.00     0.050 C 
HETATM   31  C31 UNL     1      -4.066  -1.040   4.621  1.00  0.00     0.115 C 
HETATM   32  C32 UNL     1      -5.696   2.215   3.619  1.00  0.00     0.115 C 
HETATM   33  C33 UNL     1      -2.062   1.637  -0.610  1.00  0.00     0.115 C 
HETATM   34  C34 UNL     1      -6.321  -1.324  -0.056  1.00  0.00     0.116 C 
HETATM   35  C35 UNL     1      -8.027   1.820  -0.974  1.00  0.00     0.098 C 
HETATM   36  C36 UNL     1      -8.455   1.289   0.414  1.00  0.00     0.041 C 
HETATM   37  C37 UNL     1      -9.711   1.966   0.962  1.00  0.00     0.004 C 
HETATM   38  C38 UNL     1     -10.900   1.855   0.009  1.00  0.00     0.012 C 
HETATM   39  C39 UNL     1     -10.610   2.376  -1.422  1.00  0.00    -0.010 C 
HETATM   40  C40 UNL     1      -9.274   1.740  -1.977  1.00  0.00     0.114 C 
HETATM   41  C41 UNL     1      -9.500   0.260  -2.340  1.00  0.00     0.018 C 
HETATM   42  C42 UNL     1      -9.324  -0.301  -3.549  1.00  0.00     0.049 C 
HETATM   43  C43 UNL     1      -9.501  -1.766  -3.743  1.00  0.00     0.145 C 
HETATM   44  C44 UNL     1      -9.253  -2.312  -5.123  1.00  0.00     0.096 C 
HETATM   45  C45 UNL     1     -10.595   3.924  -1.413  1.00  0.00     0.018 C 
HETATM   46  C46 UNL     1     -11.820   2.004  -2.326  1.00  0.00     0.018 C 
HETATM   47  C47 UNL     1      -7.433   3.241  -0.841  1.00  0.00     0.050 C 
HETATM   48  C48 UNL     1      -5.529  -2.892  -3.381  1.00  0.00     0.115 C 
HETATM   49  C49 UNL     1      10.973   3.380  -2.550  1.00  0.00     0.018 C 
HETATM   50  C50 UNL     1      12.599   2.292  -1.038  1.00  0.00     0.018 C 
HETATM   51  O1  UNL     1       7.495   2.601   2.200  1.00  0.00    -0.294 OA
HETATM   52  O2  UNL     1       8.233  -0.092  -2.237  1.00  0.00    -0.319 OA
HETATM   53  O3  UNL     1       7.402  -2.621  -2.062  1.00  0.00    -0.343 OA
HETATM   54  O4  UNL     1       5.887  -0.630  -1.099  1.00  0.00    -0.271 OA
HETATM   55  O5  UNL     1       4.684  -1.329   1.200  1.00  0.00    -0.343 OA
HETATM   56  O6  UNL     1       3.366   0.183  -0.581  1.00  0.00    -0.271 OA
HETATM   57  O7  UNL     1       1.679   2.234  -0.694  1.00  0.00    -0.343 OA
HETATM   58  O8  UNL     1       3.949   2.520   0.686  1.00  0.00    -0.271 OA
HETATM   59  O9  UNL     1       5.173   1.202   2.637  1.00  0.00    -0.343 OA
HETATM   60  O10 UNL     1       2.551   1.688   2.840  1.00  0.00    -0.271 OA
HETATM   61  O11 UNL     1       0.461   3.008   1.800  1.00  0.00    -0.343 OA
HETATM   62  O12 UNL     1       0.103   0.678   3.077  1.00  0.00    -0.271 OA
HETATM   63  O13 UNL     1      -0.627  -1.942   3.088  1.00  0.00    -0.318 OA
HETATM   64  O14 UNL     1      -1.901  -3.264  -3.542  1.00  0.00    -0.294 OA
HETATM   65  O15 UNL     1      -2.355  -2.691   1.238  1.00  0.00    -0.382 OA
HETATM   66  O16 UNL     1      -1.288  -0.334   5.134  1.00  0.00    -0.271 OA
HETATM   67  O17 UNL     1      -3.124   0.544   6.832  1.00  0.00    -0.343 OA
HETATM   68  O18 UNL     1      -2.932   1.684   4.449  1.00  0.00    -0.271 OA
HETATM   69  O19 UNL     1      -3.575   4.177   3.806  1.00  0.00    -0.343 OA
HETATM   70  O20 UNL     1      -3.370   2.386   1.874  1.00  0.00    -0.271 OA
HETATM   71  O21 UNL     1      -3.075  -0.216   1.371  1.00  0.00    -0.343 OA
HETATM   72  O22 UNL     1      -4.866   1.183  -0.015  1.00  0.00    -0.271 OA
HETATM   73  O23 UNL     1      -6.997   1.056  -1.652  1.00  0.00    -0.318 OA
HETATM   74  O24 UNL     1      -9.839  -2.501  -2.816  1.00  0.00    -0.294 OA
HETATM   75  O25 UNL     1      -8.910   2.408  -3.197  1.00  0.00    -0.382 OA
HETATM   76  O26 UNL     1      -4.779  -0.293  -2.270  1.00  0.00    -0.271 OA
HETATM   77  O27 UNL     1      -3.419  -1.178  -4.400  1.00  0.00    -0.344 OA
HETATM   78  O28 UNL     1      -5.897  -0.338  -4.720  1.00  0.00    -0.344 OA
HETATM   79  O29 UNL     1      10.912   0.268  -0.379  1.00  0.00    -0.382 OA
HETATM   80  C51 UNL     1       7.447  -1.172  -1.246  1.00  0.00     0.281 C 
HETATM   81  C52 UNL     1       4.445  -1.060  -0.420  1.00  0.00     0.284 C 
HETATM   82  C53 UNL     1       3.299   1.831  -0.670  1.00  0.00     0.284 C 
HETATM   83  C54 UNL     1       3.983   2.333   2.330  1.00  0.00     0.284 C 
HETATM   84  C55 UNL     1       0.967   2.093   3.089  1.00  0.00     0.284 C 
HETATM   85  C56 UNL     1      -0.097  -0.666   4.026  1.00  0.00     0.287 C 
HETATM   86  C57 UNL     1      -2.843   0.226   5.220  1.00  0.00     0.284 C 
HETATM   87  C58 UNL     1      -3.879   2.582   3.434  1.00  0.00     0.284 C 
HETATM   88  C59 UNL     1      -3.361   1.256   0.668  1.00  0.00     0.284 C 
HETATM   89  C60 UNL     1      -5.747   0.183  -1.001  1.00  0.00     0.287 C 
HETATM   90  C61 UNL     1      -4.909  -1.165  -3.672  1.00  0.00     0.278 C 
HETATM   91  H94 UNL     1       6.974  -3.352  -1.591  1.00  0.00     0.215 HD
HETATM   92  H95 UNL     1       4.827  -0.526   1.741  1.00  0.00     0.215 HD
HETATM   93  H96 UNL     1       1.181   1.829  -1.423  1.00  0.00     0.215 HD
HETATM   94  H97 UNL     1       6.076   1.588   2.637  1.00  0.00     0.215 HD
HETATM   95  H98 UNL     1       0.795   2.711   0.931  1.00  0.00     0.215 HD
HETATM   96  H99 UNL     1      -2.355  -2.212   2.098  1.00  0.00     0.211 HD
HETATM   97  HA0 UNL     1      -2.565   1.249   7.190  1.00  0.00     0.215 HD
HETATM   98  HA1 UNL     1      -2.728   4.492   3.455  1.00  0.00     0.215 HD
HETATM   99  HA2 UNL     1      -2.952  -0.962   0.756  1.00  0.00     0.215 HD
HETATM  100  HA3 UNL     1      -7.989   2.129  -3.368  1.00  0.00     0.211 HD
HETATM  101  HA4 UNL     1      -2.833  -1.917  -4.133  1.00  0.00     0.215 HD
HETATM  102  HA5 UNL     1      -5.402   0.278  -5.284  1.00  0.00     0.215 HD
HETATM  103  HA6 UNL     1      11.682  -0.205  -0.736  1.00  0.00     0.211 HD
ENDROOT
TORSDOF 45
