REMARK  20 active torsions:
REMARK  status: ('A' for Active; 'I' for Inactive)
REMARK    1  A    between atoms: C4_4  and  N2_63 
REMARK    2  A    between atoms: C7_7  and  N1_62 
REMARK    3  A    between atoms: C10_10  and  C11_11 
REMARK    4  A    between atoms: C10_10  and  N2_63 
REMARK    5  A    between atoms: C10_10  and  O6_84 
REMARK    6  A    between atoms: C12_12  and  C16_16 
REMARK       I    between atoms: C16_16  and  N4_67 
REMARK    7  A    between atoms: C17_17  and  N4_67 
REMARK    8  A    between atoms: C20_20  and  N5_68 
REMARK    9  A    between atoms: C25_25  and  C26_26 
REMARK       I    between atoms: C25_25  and  N5_68 
REMARK   10  A    between atoms: C30_30  and  C31_31 
REMARK   11  A    between atoms: C31_31  and  N7_71 
REMARK   12  A    between atoms: C31_31  and  O5_83 
REMARK   13  A    between atoms: C32_32  and  N7_71 
REMARK   14  A    between atoms: C35_35  and  N8_73 
REMARK   15  A    between atoms: C40_40  and  C41_41 
REMARK       I    between atoms: C40_40  and  N8_73 
REMARK   16  A    between atoms: C45_45  and  C46_46 
REMARK   17  A    between atoms: C46_46  and  N10_76 
REMARK   18  A    between atoms: C46_46  and  O4_82 
REMARK   19  A    between atoms: C47_47  and  N10_76 
REMARK   20  A    between atoms: C50_50  and  N11_78 
ROOT
HETATM    1  C26 UNL     1      -0.322   3.542  -4.812  1.00  0.00     0.101 A 
HETATM    2  C27 UNL     1      -0.907   3.870  -6.028  1.00  0.00     0.035 A 
HETATM    3  C28 UNL     1      -2.263   3.610  -6.197  1.00  0.00     0.005 A 
HETATM    4  C29 UNL     1      -2.981   3.032  -5.152  1.00  0.00     0.034 A 
HETATM    5  C30 UNL     1      -2.314   2.730  -3.968  1.00  0.00     0.084 A 
HETATM    6  N6  UNL     1      -0.993   2.974  -3.774  1.00  0.00    -0.348 N 
ATOM      7  H6  UNL     1      -0.528   2.744  -2.896  1.00  0.00     0.166 HD
ENDROOT
BRANCH   5   8
HETATM    8  C31 UNL     1      -3.062   2.101  -2.843  1.00  0.00     0.168 C 
BRANCH   8   9
HETATM    9  N7  UNL     1      -4.331   1.839  -2.886  1.00  0.00    -0.334 N 
ATOM     10  H7  UNL     1      -4.874   2.079  -3.715  1.00  0.00     0.168 HD
BRANCH   9  11
HETATM   11  C32 UNL     1      -4.959   1.223  -1.788  1.00  0.00     0.047 A 
HETATM   12  C33 UNL     1      -5.570   2.013  -0.792  1.00  0.00    -0.026 A 
HETATM   13  C34 UNL     1      -6.213   1.388   0.305  1.00  0.00    -0.026 A 
HETATM   14  C58 UNL     1      -5.601   3.517  -0.939  1.00  0.00     0.051 C 
HETATM   15  C35 UNL     1      -6.139  -0.019   0.445  1.00  0.00     0.048 A 
HETATM   16  C57 UNL     1      -6.993   2.234   1.286  1.00  0.00     0.051 C 
HETATM   17  C36 UNL     1      -5.524  -0.812  -0.549  1.00  0.00    -0.026 A 
HETATM   18  C37 UNL     1      -4.982  -0.186  -1.698  1.00  0.00    -0.026 A 
HETATM   19  C39 UNL     1      -5.374  -2.308  -0.392  1.00  0.00     0.051 C 
HETATM   20  C38 UNL     1      -4.353  -1.010  -2.799  1.00  0.00     0.051 C 
BRANCH  15  21
HETATM   21  N8  UNL     1      -6.741  -0.660   1.549  1.00  0.00    -0.321 N 
HETATM   22  C40 UNL     1      -6.382  -0.401   2.862  1.00  0.00     0.272 C 
HETATM   23  O3  UNL     1      -5.558   0.431   3.231  1.00  0.00    -0.266 OA
HETATM   24  H62 UNL     1      -7.186  -1.563   1.401  1.00  0.00     0.169 HD
BRANCH  22  25
HETATM   25  C41 UNL     1      -7.055  -1.281   3.869  1.00  0.00     0.101 A 
HETATM   26  C42 UNL     1      -6.584  -1.296   5.176  1.00  0.00     0.035 A 
HETATM   27  C43 UNL     1      -7.244  -2.091   6.102  1.00  0.00     0.005 A 
HETATM   28  C44 UNL     1      -8.363  -2.814   5.697  1.00  0.00     0.034 A 
HETATM   29  C45 UNL     1      -8.785  -2.735   4.367  1.00  0.00     0.084 A 
HETATM   30  N9  UNL     1      -8.124  -2.003   3.436  1.00  0.00    -0.348 N 
ATOM     31  H9  UNL     1      -8.414  -1.994   2.458  1.00  0.00     0.166 HD
BRANCH  29  32
HETATM   32  C46 UNL     1     -10.052  -3.412   3.948  1.00  0.00     0.168 C 
BRANCH  32  33
HETATM   33  N10 UNL     1     -10.646  -3.591   2.816  1.00  0.00    -0.334 N 
ATOM     34  H10 UNL     1     -11.550  -4.063   2.803  1.00  0.00     0.168 HD
BRANCH  33  35
HETATM   35  C47 UNL     1     -10.089  -3.158   1.603  1.00  0.00     0.047 A 
HETATM   36  C48 UNL     1      -9.441  -4.103   0.779  1.00  0.00    -0.027 A 
HETATM   37  C49 UNL     1      -8.917  -3.704  -0.473  1.00  0.00    -0.032 A 
HETATM   38  C56 UNL     1      -9.293  -5.533   1.243  1.00  0.00     0.051 C 
HETATM   39  C50 UNL     1      -9.032  -2.358  -0.889  1.00  0.00     0.019 A 
HETATM   40  C55 UNL     1      -8.255  -4.726  -1.371  1.00  0.00     0.050 C 
HETATM   41  C51 UNL     1      -9.727  -1.422  -0.089  1.00  0.00    -0.032 A 
HETATM   42  C52 UNL     1     -10.291  -1.837   1.145  1.00  0.00    -0.027 A 
HETATM   43  C54 UNL     1      -9.912  -0.001  -0.571  1.00  0.00     0.050 C 
HETATM   44  C53 UNL     1     -11.088  -0.866   1.985  1.00  0.00     0.051 C 
BRANCH  39  45
HETATM   45  N11 UNL     1      -8.644  -2.032  -2.210  1.00  0.00    -0.302 NA
HETATM   46  H63 UNL     1      -9.400  -2.253  -2.856  1.00  0.00     0.124 HD
HETATM   47  H64 UNL     1      -8.380  -1.058  -2.321  1.00  0.00     0.124 HD
ENDBRANCH  39  45
ENDBRANCH  33  35
ENDBRANCH  32  33
BRANCH  32  48
HETATM   48  O4  UNL     1     -10.719  -3.926   5.003  1.00  0.00    -0.344 OA
HETATM   49  H65 UNL     1     -11.530  -4.325   4.639  1.00  0.00     0.219 HD
ENDBRANCH  32  48
ENDBRANCH  29  32
ENDBRANCH  22  25
ENDBRANCH  15  21
ENDBRANCH   9  11
ENDBRANCH   8   9
BRANCH   8  50
HETATM   50  O5  UNL     1      -2.265   1.838  -1.784  1.00  0.00    -0.344 OA
HETATM   51  H66 UNL     1      -2.771   1.461  -1.048  1.00  0.00     0.219 HD
ENDBRANCH   8  50
ENDBRANCH   5   8
BRANCH   1  52
HETATM   52  C25 UNL     1       1.139   3.793  -4.579  1.00  0.00     0.272 C 
HETATM   53  N5  UNL     1       1.522   3.510  -3.279  1.00  0.00    -0.321 N 
HETATM   54  H61 UNL     1       0.804   3.003  -2.766  1.00  0.00     0.169 HD
HETATM   55  O2  UNL     1       1.848   4.154  -5.509  1.00  0.00    -0.266 OA
BRANCH  53  56
HETATM   56  C20 UNL     1       2.837   3.496  -2.756  1.00  0.00     0.048 C 
HETATM   57  C19 UNL     1       3.783   4.507  -3.032  1.00  0.00    -0.026 C 
HETATM   58  C18 UNL     1       5.114   4.381  -2.541  1.00  0.00    -0.026 C 
HETATM   59  C59 UNL     1       3.415   5.761  -3.794  1.00  0.00     0.051 C 
HETATM   60  C17 UNL     1       5.419   3.379  -1.594  1.00  0.00     0.048 C 
HETATM   61  C60 UNL     1       6.175   5.304  -3.098  1.00  0.00     0.051 C 
HETATM   62  C22 UNL     1       4.439   2.417  -1.241  1.00  0.00    -0.026 C 
HETATM   63  C21 UNL     1       3.171   2.433  -1.879  1.00  0.00    -0.026 C 
HETATM   64  C23 UNL     1       4.741   1.368  -0.190  1.00  0.00     0.051 C 
HETATM   65  C24 UNL     1       2.178   1.319  -1.615  1.00  0.00     0.051 C 
BRANCH  60  66
HETATM   66  N4  UNL     1       6.696   3.245  -1.001  1.00  0.00    -0.321 N 
HETATM   67  C16 UNL     1       7.491   4.253  -0.484  1.00  0.00     0.272 C 
HETATM   68  O1  UNL     1       7.281   5.459  -0.503  1.00  0.00    -0.266 OA
HETATM   69  H60 UNL     1       6.960   2.327  -0.650  1.00  0.00     0.169 HD
BRANCH  67  70
HETATM   70  C12 UNL     1       8.704   3.722   0.221  1.00  0.00     0.101 A 
HETATM   71  C13 UNL     1       9.667   4.591   0.717  1.00  0.00     0.035 A 
HETATM   72  C14 UNL     1      10.769   4.048   1.369  1.00  0.00     0.005 A 
HETATM   73  C15 UNL     1      10.868   2.665   1.505  1.00  0.00     0.034 A 
HETATM   74  C11 UNL     1       9.853   1.867   0.981  1.00  0.00     0.084 A 
HETATM   75  N3  UNL     1       8.768   2.368   0.339  1.00  0.00    -0.348 N 
ATOM     76  H3  UNL     1       8.038   1.761  -0.036  1.00  0.00     0.166 HD
BRANCH  74  77
HETATM   77  C10 UNL     1       9.937   0.386   1.124  1.00  0.00     0.168 C 
BRANCH  77  78
HETATM   78  N2  UNL     1      10.931  -0.224   1.689  1.00  0.00    -0.334 N 
ATOM     79  H2  UNL     1      11.713   0.313   2.064  1.00  0.00     0.168 HD
BRANCH  78  80
HETATM   80  C4  UNL     1      10.932  -1.628   1.785  1.00  0.00     0.047 C 
HETATM   81  C3  UNL     1      11.490  -2.400   0.745  1.00  0.00    -0.027 C 
HETATM   82  C2  UNL     1      11.406  -3.813   0.797  1.00  0.00    -0.032 C 
HETATM   83  C61 UNL     1      12.129  -1.707  -0.437  1.00  0.00     0.051 C 
HETATM   84  C1  UNL     1      11.915  -4.646  -0.358  1.00  0.00     0.050 C 
HETATM   85  C7  UNL     1      10.891  -4.443   1.956  1.00  0.00     0.019 C 
HETATM   86  C6  UNL     1      10.278  -3.664   2.968  1.00  0.00    -0.032 C 
HETATM   87  C5  UNL     1      10.362  -2.252   2.914  1.00  0.00    -0.027 C 
HETATM   88  C8  UNL     1       9.583  -4.339   4.129  1.00  0.00     0.050 C 
HETATM   89  C9  UNL     1       9.804  -1.401   4.032  1.00  0.00     0.051 C 
BRANCH  85  90
HETATM   90  N1  UNL     1      10.811  -5.852   2.011  1.00  0.00    -0.302 NA
HETATM   91  H58 UNL     1      10.777  -6.216   2.957  1.00  0.00     0.124 HD
HETATM   92  H59 UNL     1      11.541  -6.317   1.482  1.00  0.00     0.124 HD
ENDBRANCH  85  90
ENDBRANCH  78  80
ENDBRANCH  77  78
BRANCH  77  93
HETATM   93  O6  UNL     1       8.859  -0.238   0.600  1.00  0.00    -0.344 OA
HETATM   94  H67 UNL     1       8.932  -1.200   0.692  1.00  0.00     0.219 HD
ENDBRANCH  77  93
ENDBRANCH  74  77
ENDBRANCH  67  70
ENDBRANCH  60  66
ENDBRANCH  53  56
ENDBRANCH   1  52
TORSDOF 20
