REMARK  22 active torsions:
REMARK  status: ('A' for Active; 'I' for Inactive)
REMARK    1  A    between atoms: C4_4  and  C5_5 
REMARK       I    between atoms: C5_5  and  N3_48 
REMARK    2  A    between atoms: C6_6  and  N3_48 
REMARK    3  A    between atoms: C8_8  and  C10_10 
REMARK       I    between atoms: C10_10  and  N5_50 
REMARK    4  A    between atoms: C11_11  and  N5_50 
REMARK    5  A    between atoms: C13_13  and  C15_15 
REMARK       I    between atoms: C15_15  and  N7_52 
REMARK    6  A    between atoms: C16_16  and  C17_17 
REMARK    7  A    between atoms: C16_16  and  N7_52 
REMARK    8  A    between atoms: C17_17  and  C18_18 
REMARK    9  A    between atoms: C18_18  and  C19_19 
REMARK   10  A    between atoms: C18_18  and  N16_61 
REMARK       I    between atoms: C19_19  and  N8_53 
REMARK   11  A    between atoms: C20_20  and  N8_53 
REMARK   12  A    between atoms: C22_22  and  C24_24 
REMARK       I    between atoms: C24_24  and  N10_55 
REMARK   13  A    between atoms: C25_25  and  N10_55 
REMARK   14  A    between atoms: C27_27  and  C29_29 
REMARK       I    between atoms: C29_29  and  N12_57 
REMARK   15  A    between atoms: C30_30  and  N12_57 
REMARK   16  A    between atoms: C32_32  and  C34_34 
REMARK       I    between atoms: C34_34  and  N14_59 
REMARK   17  A    between atoms: C35_35  and  C36_36 
REMARK   18  A    between atoms: C35_35  and  N14_59 
REMARK   19  A    between atoms: C36_36  and  C37_37 
REMARK       I    between atoms: C37_37  and  N15_60 
REMARK   20  A    between atoms: C38_38  and  C39_39 
REMARK   21  A    between atoms: C38_38  and  N15_60 
REMARK   22  A    between atoms: C39_39  and  O9_70 
ROOT
HETATM    1  C19 UNL     1       2.419  -1.754   3.196  1.00  0.00     0.255 C 
HETATM    2  N8  UNL     1       2.123  -0.455   3.584  1.00  0.00    -0.324 N 
HETATM    3  O4  UNL     1       1.638  -2.548   2.683  1.00  0.00    -0.271 OA
HETATM    4  H47 UNL     1       2.834   0.080   4.064  1.00  0.00     0.169 HD
ENDROOT
BRANCH   2   5
HETATM    5  C20 UNL     1       0.900   0.162   3.412  1.00  0.00     0.052 A 
HETATM    6  C21 UNL     1       0.641   1.437   3.861  1.00  0.00     0.120 A 
HETATM    7  N9  UNL     1      -0.648   1.760   3.514  1.00  0.00    -0.354 N 
HETATM    8  C22 UNL     1      -1.247   0.687   2.887  1.00  0.00     0.105 A 
HETATM    9  C42 UNL     1      -1.241   3.066   3.715  1.00  0.00     0.156 C 
HETATM   10  C23 UNL     1      -0.277  -0.298   2.779  1.00  0.00     0.066 A 
BRANCH   8  11
HETATM   11  C24 UNL     1      -2.608   0.632   2.386  1.00  0.00     0.273 C 
HETATM   12  N10 UNL     1      -3.542   0.904   3.367  1.00  0.00    -0.320 N 
HETATM   13  H48 UNL     1      -3.219   0.982   4.321  1.00  0.00     0.169 HD
HETATM   14  O5  UNL     1      -2.863   0.347   1.222  1.00  0.00    -0.266 OA
BRANCH  12  15
HETATM   15  C25 UNL     1      -4.906   0.969   3.169  1.00  0.00     0.053 A 
HETATM   16  C26 UNL     1      -5.802   1.177   4.189  1.00  0.00     0.120 A 
HETATM   17  N11 UNL     1      -7.067   1.191   3.654  1.00  0.00    -0.354 N 
HETATM   18  C27 UNL     1      -7.013   0.988   2.285  1.00  0.00     0.105 A 
HETATM   19  C41 UNL     1      -8.271   1.374   4.439  1.00  0.00     0.156 C 
HETATM   20  C28 UNL     1      -5.661   0.861   1.978  1.00  0.00     0.066 A 
BRANCH  18  21
HETATM   21  C29 UNL     1      -8.182   0.944   1.407  1.00  0.00     0.273 C 
HETATM   22  N12 UNL     1      -7.914   0.483   0.131  1.00  0.00    -0.320 N 
HETATM   23  H49 UNL     1      -6.976   0.181  -0.088  1.00  0.00     0.169 HD
HETATM   24  O6  UNL     1      -9.297   1.283   1.796  1.00  0.00    -0.266 OA
BRANCH  22  25
HETATM   25  C30 UNL     1      -8.839   0.361  -0.888  1.00  0.00     0.053 A 
HETATM   26  C31 UNL     1      -8.513  -0.121  -2.132  1.00  0.00     0.120 A 
HETATM   27  N13 UNL     1      -9.647  -0.118  -2.906  1.00  0.00    -0.354 N 
HETATM   28  C32 UNL     1     -10.721   0.372  -2.183  1.00  0.00     0.104 A 
HETATM   29  C40 UNL     1      -9.684  -0.557  -4.286  1.00  0.00     0.156 C 
HETATM   30  C33 UNL     1     -10.219   0.665  -0.918  1.00  0.00     0.066 A 
BRANCH  28  31
HETATM   31  C34 UNL     1     -12.073   0.509  -2.703  1.00  0.00     0.268 C 
HETATM   32  N14 UNL     1     -12.949   1.191  -1.887  1.00  0.00    -0.355 N 
HETATM   33  H50 UNL     1     -12.591   1.640  -1.056  1.00  0.00     0.162 HD
HETATM   34  O7  UNL     1     -12.429   0.060  -3.790  1.00  0.00    -0.266 OA
BRANCH  32  35
HETATM   35  C35 UNL     1     -14.311   1.487  -2.291  1.00  0.00     0.132 C 
BRANCH  35  36
HETATM   36  C36 UNL     1     -15.210   0.259  -2.228  1.00  0.00     0.122 C 
BRANCH  36  37
HETATM   37  C37 UNL     1     -16.636   0.607  -2.588  1.00  0.00     0.219 C 
HETATM   38  N15 UNL     1     -17.452  -0.497  -2.707  1.00  0.00    -0.359 N 
HETATM   39  H51 UNL     1     -17.010  -1.408  -2.738  1.00  0.00     0.162 HD
HETATM   40  O8  UNL     1     -17.047   1.755  -2.719  1.00  0.00    -0.274 OA
BRANCH  38  41
HETATM   41  C38 UNL     1     -18.835  -0.408  -3.159  1.00  0.00     0.148 C 
BRANCH  41  42
HETATM   42  C39 UNL     1     -19.758   0.323  -2.177  1.00  0.00     0.183 C 
BRANCH  42  43
HETATM   43  O9  UNL     1     -19.692   1.737  -2.336  1.00  0.00    -0.399 OA
HETATM   44  H54 UNL     1     -18.742   1.972  -2.428  1.00  0.00     0.209 HD
ENDBRANCH  42  43
ENDBRANCH  41  42
ENDBRANCH  38  41
ENDBRANCH  36  37
ENDBRANCH  35  36
ENDBRANCH  32  35
ENDBRANCH  28  31
ENDBRANCH  22  25
ENDBRANCH  18  21
ENDBRANCH  12  15
ENDBRANCH   8  11
ENDBRANCH   2   5
BRANCH   1  45
HETATM   45  C18 UNL     1       3.900  -2.110   3.475  1.00  0.00     0.310 C 
BRANCH  45  46
HETATM   46  C17 UNL     1       4.178  -3.619   3.354  1.00  0.00     0.065 C 
BRANCH  46  47
HETATM   47  C16 UNL     1       4.245  -4.172   1.930  1.00  0.00     0.125 C 
BRANCH  47  48
HETATM   48  N7  UNL     1       5.478  -3.793   1.268  1.00  0.00    -0.356 N 
HETATM   49  C15 UNL     1       5.840  -4.321   0.050  1.00  0.00     0.268 C 
HETATM   50  O3  UNL     1       5.192  -5.222  -0.477  1.00  0.00    -0.266 OA
HETATM   51  H46 UNL     1       5.941  -2.956   1.601  1.00  0.00     0.162 HD
BRANCH  49  52
HETATM   52  C13 UNL     1       7.020  -3.722  -0.559  1.00  0.00     0.104 A 
HETATM   53  C14 UNL     1       7.883  -2.746  -0.067  1.00  0.00     0.066 A 
HETATM   54  C11 UNL     1       8.885  -2.489  -1.031  1.00  0.00     0.053 A 
HETATM   55  C12 UNL     1       8.629  -3.317  -2.098  1.00  0.00     0.120 A 
HETATM   56  N6  UNL     1       7.509  -4.057  -1.810  1.00  0.00    -0.354 N 
HETATM   57  C43 UNL     1       6.939  -5.040  -2.709  1.00  0.00     0.156 C 
BRANCH  54  58
HETATM   58  N5  UNL     1       9.954  -1.614  -1.007  1.00  0.00    -0.320 N 
HETATM   59  C10 UNL     1      10.243  -0.728   0.015  1.00  0.00     0.273 C 
HETATM   60  O2  UNL     1       9.549  -0.584   1.018  1.00  0.00    -0.266 OA
HETATM   61  H45 UNL     1      10.538  -1.612  -1.828  1.00  0.00     0.169 HD
BRANCH  59  62
HETATM   62  C8  UNL     1      11.455   0.060  -0.207  1.00  0.00     0.105 A 
HETATM   63  C9  UNL     1      12.481  -0.111  -1.133  1.00  0.00     0.066 A 
HETATM   64  C6  UNL     1      13.443   0.913  -0.951  1.00  0.00     0.053 A 
HETATM   65  C7  UNL     1      12.999   1.691   0.086  1.00  0.00     0.120 A 
HETATM   66  N4  UNL     1      11.813   1.172   0.540  1.00  0.00    -0.354 N 
HETATM   67  C44 UNL     1      11.056   1.740   1.638  1.00  0.00     0.156 C 
BRANCH  64  68
HETATM   68  N3  UNL     1      14.594   1.059  -1.694  1.00  0.00    -0.319 N 
HETATM   69  C5  UNL     1      15.556   2.041  -1.549  1.00  0.00     0.290 C 
HETATM   70  O1  UNL     1      15.537   2.952  -0.726  1.00  0.00    -0.264 OA
HETATM   71  H44 UNL     1      14.780   0.385  -2.432  1.00  0.00     0.169 HD
BRANCH  69  72
HETATM   72  C4  UNL     1      16.634   1.868  -2.518  1.00  0.00     0.176 A 
HETATM   73  N1  UNL     1      17.754   2.654  -2.658  1.00  0.00    -0.342 N 
HETATM   74  C1  UNL     1      18.088   3.814  -1.867  1.00  0.00     0.157 C 
HETATM   75  C2  UNL     1      18.504   2.144  -3.682  1.00  0.00     0.109 A 
HETATM   76  C3  UNL     1      17.802   1.052  -4.131  1.00  0.00     0.107 A 
HETATM   77  N2  UNL     1      16.648   0.885  -3.411  1.00  0.00    -0.346 N 
ATOM     78  H2  UNL     1      15.945   0.156  -3.535  1.00  0.00     0.167 HD
ENDBRANCH  69  72
ENDBRANCH  64  68
ENDBRANCH  59  62
ENDBRANCH  54  58
ENDBRANCH  49  52
ENDBRANCH  47  48
ENDBRANCH  46  47
ENDBRANCH  45  46
BRANCH  45  79
HETATM   79  N16 UNL     1       4.786  -1.297   2.611  1.00  0.00     0.092 N 
HETATM   80  H52 UNL     1       4.485  -1.426   1.639  1.00  0.00     0.313 HD
HETATM   81  H53 UNL     1       4.641  -0.305   2.791  1.00  0.00     0.313 HD
ENDBRANCH  45  79
ENDBRANCH   1  45
TORSDOF 22
