REMARK  23 active torsions:
REMARK  status: ('A' for Active; 'I' for Inactive)
REMARK    1  A    between atoms: C3_3  and  N13_61 
REMARK    2  A    between atoms: C5_5  and  C6_6 
REMARK       I    between atoms: C6_6  and  N2_48 
REMARK    3  A    between atoms: C7_7  and  N2_48 
REMARK    4  A    between atoms: C9_9  and  C10_10 
REMARK       I    between atoms: C10_10  and  N5_52 
REMARK    5  A    between atoms: C11_11  and  N5_52 
REMARK    6  A    between atoms: C13_13  and  C14_14 
REMARK       I    between atoms: C14_14  and  N8_56 
REMARK    7  A    between atoms: C15_15  and  N8_56 
REMARK    8  A    between atoms: C17_17  and  C19_19 
REMARK       I    between atoms: C19_19  and  N10_58 
REMARK    9  A    between atoms: C20_20  and  C21_21 
REMARK   10  A    between atoms: C20_20  and  N10_58 
REMARK   11  A    between atoms: C21_21  and  C22_22 
REMARK       I    between atoms: C22_22  and  N11_59 
REMARK   12  A    between atoms: C23_23  and  C24_24 
REMARK   13  A    between atoms: C23_23  and  N11_59 
REMARK   14  A    between atoms: C24_24  and  C25_25 
REMARK   15  A    between atoms: C25_25  and  N12_60 
REMARK   16  A    between atoms: C31_31  and  C32_32 
REMARK       I    between atoms: C31_31  and  N13_61 
REMARK   17  A    between atoms: C32_32  and  C33_33 
REMARK   18  A    between atoms: C33_33  and  C34_34 
REMARK   19  A    between atoms: C34_34  and  N14_62 
REMARK   20  A    between atoms: C35_35  and  C36_36 
REMARK       I    between atoms: C35_35  and  N14_62 
REMARK   21  A    between atoms: C38_38  and  N16_64 
REMARK   22  A    between atoms: C41_41  and  C42_42 
REMARK       I    between atoms: C41_41  and  N16_64 
REMARK   23  A    between atoms: C44_44  and  N18_66 
ROOT
HETATM    1  C7  UNL     1      -0.876  -0.977   0.194  1.00  0.00     0.125 A 
HETATM    2  C8  UNL     1      -0.511  -1.627  -0.962  1.00  0.00     0.140 A 
HETATM    3  C9  UNL     1       1.190  -0.481  -0.119  1.00  0.00     0.178 A 
HETATM    4  C30 UNL     1       1.638  -1.750  -2.241  1.00  0.00     0.157 C 
HETATM    5  N3  UNL     1       0.806  -1.303  -1.151  1.00  0.00    -0.339 N 
HETATM    6  N4  UNL     1       0.172  -0.278   0.705  1.00  0.00    -0.323 N 
ATOM      7  H4  UNL     1       0.174   0.289   1.553  1.00  0.00     0.169 HD
ENDROOT
BRANCH   1   8
HETATM    8  N2  UNL     1      -2.125  -1.029   0.757  1.00  0.00    -0.306 N 
HETATM    9  C6  UNL     1      -2.499  -0.360   1.906  1.00  0.00     0.274 C 
HETATM   10  O1  UNL     1      -1.766   0.380   2.556  1.00  0.00    -0.266 OA
HETATM   11  H51 UNL     1      -2.810  -1.579   0.265  1.00  0.00     0.170 HD
BRANCH   9  12
HETATM   12  C5  UNL     1      -3.891  -0.595   2.297  1.00  0.00     0.105 A 
HETATM   13  C4  UNL     1      -4.811  -1.523   1.818  1.00  0.00     0.066 A 
HETATM   14  C3  UNL     1      -6.035  -1.359   2.506  1.00  0.00     0.052 A 
HETATM   15  C2  UNL     1      -5.848  -0.341   3.409  1.00  0.00     0.120 A 
HETATM   16  N1  UNL     1      -4.557   0.111   3.287  1.00  0.00    -0.354 N 
HETATM   17  C1  UNL     1      -4.002   1.187   4.083  1.00  0.00     0.156 C 
BRANCH  14  18
HETATM   18  N13 UNL     1      -7.231  -2.035   2.372  1.00  0.00    -0.326 N 
HETATM   19  C31 UNL     1      -7.463  -3.058   1.468  1.00  0.00     0.222 C 
HETATM   20  O6  UNL     1      -6.648  -3.528   0.681  1.00  0.00    -0.273 OA
HETATM   21  H56 UNL     1      -7.984  -1.737   2.977  1.00  0.00     0.169 HD
BRANCH  19  22
HETATM   22  C32 UNL     1      -8.882  -3.593   1.582  1.00  0.00     0.105 C 
BRANCH  22  23
HETATM   23  C33 UNL     1      -9.269  -4.521   0.429  1.00  0.00     0.029 C 
BRANCH  23  24
HETATM   24  C34 UNL     1      -9.435  -3.787  -0.901  1.00  0.00     0.123 C 
BRANCH  24  25
HETATM   25  N14 UNL     1     -10.560  -2.873  -0.870  1.00  0.00    -0.356 N 
HETATM   26  C35 UNL     1     -10.681  -1.860  -1.799  1.00  0.00     0.268 C 
HETATM   27  O7  UNL     1      -9.798  -1.613  -2.615  1.00  0.00    -0.266 OA
HETATM   28  H57 UNL     1     -11.418  -3.201  -0.449  1.00  0.00     0.162 HD
BRANCH  26  29
HETATM   29  C36 UNL     1     -11.940  -1.134  -1.742  1.00  0.00     0.104 A 
HETATM   30  C37 UNL     1     -12.915  -1.128  -0.748  1.00  0.00     0.066 A 
HETATM   31  C38 UNL     1     -13.965  -0.268  -1.141  1.00  0.00     0.053 A 
HETATM   32  C39 UNL     1     -13.615   0.255  -2.362  1.00  0.00     0.120 A 
HETATM   33  N15 UNL     1     -12.392  -0.261  -2.716  1.00  0.00    -0.354 N 
HETATM   34  C40 UNL     1     -11.700   0.062  -3.948  1.00  0.00     0.156 C 
BRANCH  31  35
HETATM   35  N16 UNL     1     -15.140   0.059  -0.494  1.00  0.00    -0.320 N 
HETATM   36  C41 UNL     1     -15.563  -0.484   0.704  1.00  0.00     0.273 C 
HETATM   37  O8  UNL     1     -14.997  -1.383   1.315  1.00  0.00    -0.266 OA
HETATM   38  H58 UNL     1     -15.763   0.681  -0.988  1.00  0.00     0.169 HD
BRANCH  36  39
HETATM   39  C42 UNL     1     -16.813   0.088   1.178  1.00  0.00     0.105 A 
HETATM   40  C43 UNL     1     -17.907  -0.616   1.667  1.00  0.00     0.073 A 
HETATM   41  C44 UNL     1     -18.918   0.316   2.015  1.00  0.00     0.120 A 
HETATM   42  C45 UNL     1     -18.407   1.575   1.765  1.00  0.00     0.127 A 
HETATM   43  N17 UNL     1     -17.123   1.430   1.299  1.00  0.00    -0.354 N 
HETATM   44  C46 UNL     1     -16.221   2.541   1.071  1.00  0.00     0.156 C 
BRANCH  41  45
HETATM   45  N18 UNL     1     -20.230   0.031   2.540  1.00  0.00    -0.114 N 
HETATM   46  O9  UNL     1     -20.524  -1.162   2.690  1.00  0.00    -0.532 OA
HETATM   47  O10 UNL     1     -20.960   0.998   2.794  1.00  0.00    -0.532 OA
ENDBRANCH  41  45
ENDBRANCH  36  39
ENDBRANCH  31  35
ENDBRANCH  26  29
ENDBRANCH  24  25
ENDBRANCH  23  24
ENDBRANCH  22  23
ENDBRANCH  19  22
ENDBRANCH  14  18
ENDBRANCH   9  12
ENDBRANCH   1   8
BRANCH   3  48
HETATM   48  C10 UNL     1       2.502   0.115   0.101  1.00  0.00     0.291 C 
HETATM   49  N5  UNL     1       2.502   0.878   1.248  1.00  0.00    -0.305 N 
HETATM   50  H52 UNL     1       1.621   0.914   1.754  1.00  0.00     0.170 HD
HETATM   51  O2  UNL     1       3.447  -0.067  -0.660  1.00  0.00    -0.264 OA
BRANCH  49  52
HETATM   52  C11 UNL     1       3.571   1.570   1.739  1.00  0.00     0.125 A 
HETATM   53  C12 UNL     1       3.557   2.327   2.885  1.00  0.00     0.140 A 
HETATM   54  N6  UNL     1       4.825   2.831   2.994  1.00  0.00    -0.339 N 
HETATM   55  C13 UNL     1       5.555   2.370   1.924  1.00  0.00     0.178 A 
HETATM   56  C29 UNL     1       5.303   3.693   4.046  1.00  0.00     0.157 C 
HETATM   57  N7  UNL     1       4.800   1.601   1.154  1.00  0.00    -0.323 N 
ATOM     58  H7  UNL     1       5.082   1.128   0.296  1.00  0.00     0.169 HD
BRANCH  55  59
HETATM   59  C14 UNL     1       6.954   2.647   1.621  1.00  0.00     0.290 C 
HETATM   60  N8  UNL     1       7.347   2.011   0.459  1.00  0.00    -0.319 N 
HETATM   61  H53 UNL     1       6.622   1.459   0.003  1.00  0.00     0.169 HD
HETATM   62  O3  UNL     1       7.661   3.358   2.330  1.00  0.00    -0.264 OA
BRANCH  60  63
HETATM   63  C15 UNL     1       8.593   2.052  -0.125  1.00  0.00     0.053 A 
HETATM   64  C16 UNL     1       9.713   2.719   0.306  1.00  0.00     0.120 A 
HETATM   65  N9  UNL     1      10.738   2.460  -0.571  1.00  0.00    -0.354 N 
HETATM   66  C17 UNL     1      10.279   1.677  -1.614  1.00  0.00     0.104 A 
HETATM   67  C28 UNL     1      12.103   2.884  -0.338  1.00  0.00     0.156 C 
HETATM   68  C18 UNL     1       8.955   1.381  -1.316  1.00  0.00     0.066 A 
BRANCH  66  69
HETATM   69  C19 UNL     1      11.020   1.195  -2.761  1.00  0.00     0.268 C 
HETATM   70  N10 UNL     1      11.889   2.106  -3.311  1.00  0.00    -0.355 N 
HETATM   71  H54 UNL     1      11.915   3.049  -2.950  1.00  0.00     0.162 HD
HETATM   72  O4  UNL     1      10.873   0.071  -3.230  1.00  0.00    -0.266 OA
BRANCH  70  73
HETATM   73  C20 UNL     1      12.777   1.788  -4.411  1.00  0.00     0.132 C 
BRANCH  73  74
HETATM   74  C21 UNL     1      13.908   0.844  -4.021  1.00  0.00     0.122 C 
BRANCH  74  75
HETATM   75  C22 UNL     1      14.824   1.435  -2.969  1.00  0.00     0.219 C 
HETATM   76  N11 UNL     1      15.728   0.515  -2.479  1.00  0.00    -0.361 N 
HETATM   77  H55 UNL     1      15.480  -0.467  -2.589  1.00  0.00     0.162 HD
HETATM   78  O5  UNL     1      14.776   2.604  -2.599  1.00  0.00    -0.274 OA
BRANCH  76  79
HETATM   79  C23 UNL     1      16.533   0.788  -1.307  1.00  0.00     0.124 C 
BRANCH  79  80
HETATM   80  C24 UNL     1      15.815   0.385  -0.017  1.00  0.00     0.050 C 
BRANCH  80  81
HETATM   81  C25 UNL     1      15.637  -1.137   0.134  1.00  0.00     0.273 C 
BRANCH  81  82
HETATM   82  N12 UNL     1      14.832  -1.768  -0.931  1.00  0.00     0.080 N 
HETATM   83  C26 UNL     1      13.404  -1.446  -0.784  1.00  0.00     0.309 C 
HETATM   84  C27 UNL     1      14.998  -3.226  -0.885  1.00  0.00     0.309 C 
ENDBRANCH  81  82
ENDBRANCH  80  81
ENDBRANCH  79  80
ENDBRANCH  76  79
ENDBRANCH  74  75
ENDBRANCH  73  74
ENDBRANCH  70  73
ENDBRANCH  66  69
ENDBRANCH  60  63
ENDBRANCH  55  59
ENDBRANCH  49  52
ENDBRANCH   3  48
TORSDOF 23
