REMARK  20 active torsions:
REMARK  status: ('A' for Active; 'I' for Inactive)
REMARK    1  A    between atoms: C2_2  and  C3_3 
REMARK    2  A    between atoms: C3_3  and  C5_5 
REMARK    3  A    between atoms: C19_19  and  C48_48 
REMARK    4  A    between atoms: C25_25  and  C27_27 
REMARK    5  A    between atoms: C27_27  and  C28_28 
REMARK       I    between atoms: C28_28  and  N8_80 
REMARK    6  A    between atoms: C29_29  and  C30_30 
REMARK    7  A    between atoms: C29_29  and  N8_80 
REMARK    8  A    between atoms: C33_33  and  N9_81 
REMARK    9  A    between atoms: C36_36  and  C37_37 
REMARK       I    between atoms: C36_36  and  N9_81 
REMARK   10  A    between atoms: C37_37  and  N10_82 
REMARK   11  A    between atoms: C39_39  and  C40_40 
REMARK       I    between atoms: C39_39  and  N10_82 
REMARK   12  A    between atoms: C40_40  and  N11_83 
REMARK   13  A    between atoms: C41_41  and  C42_42 
REMARK       I    between atoms: C41_41  and  N11_83 
REMARK   14  A    between atoms: C42_42  and  C43_43 
REMARK   15  A    between atoms: C43_43  and  N12_84 
REMARK   16  A    between atoms: C46_46  and  S2_87 
REMARK   17  A    between atoms: C48_48  and  C50_50 
REMARK   18  A    between atoms: C50_50  and  C51_51 
REMARK   19  A    between atoms: C50_50  and  O15_72 
REMARK   20  A    between atoms: C51_51  and  O14_71 
ROOT
HETATM    1  C5  UNL     1      -8.838   2.553  -1.782  1.00  0.00     0.180 C 
HETATM    2  C6  UNL     1      -7.393   3.045  -2.099  1.00  0.00     0.241 C 
HETATM    3  C7  UNL     1      -5.332   2.571  -3.365  1.00  0.00     0.225 C 
HETATM    4  C8  UNL     1      -4.246   2.070  -2.410  1.00  0.00     0.236 C 
HETATM    5  C9  UNL     1      -2.346   2.797  -0.959  1.00  0.00     0.186 C 
HETATM    6  C10 UNL     1      -2.445   1.694   0.108  1.00  0.00     0.116 C 
HETATM    7  C11 UNL     1      -3.879   0.505   2.073  1.00  0.00     0.077 A 
HETATM    8  C12 UNL     1      -4.720  -0.522   1.696  1.00  0.00    -0.010 A 
HETATM    9  C13 UNL     1      -5.732  -0.470   0.594  1.00  0.00     0.077 C 
HETATM   10  C14 UNL     1      -5.650  -1.572  -0.470  1.00  0.00     0.180 C 
HETATM   11  C15 UNL     1      -6.764  -1.275  -1.501  1.00  0.00     0.241 C 
HETATM   12  C16 UNL     1      -9.173  -1.283  -1.954  1.00  0.00     0.225 C 
HETATM   13  C17 UNL     1      -9.454   0.188  -2.311  1.00  0.00     0.236 C 
HETATM   14  C18 UNL     1      -3.897  -2.796  -1.673  1.00  0.00     0.223 C 
HETATM   15  C19 UNL     1      -2.882  -2.672  -2.824  1.00  0.00     0.085 C 
HETATM   16  C20 UNL     1      -1.632  -1.858  -2.392  1.00  0.00     0.034 C 
HETATM   17  C21 UNL     1      -0.703  -1.597  -3.578  1.00  0.00     0.067 C 
HETATM   18  C22 UNL     1       0.493  -2.528  -3.817  1.00  0.00     0.035 C 
HETATM   19  C23 UNL     1       1.286  -1.281  -4.193  1.00  0.00     0.100 C 
HETATM   20  C24 UNL     1       0.701   0.060  -2.209  1.00  0.00     0.223 C 
HETATM   21  C25 UNL     1       1.037   1.561  -2.322  1.00  0.00     0.179 C 
HETATM   22  C26 UNL     1      -1.210   2.532  -1.988  1.00  0.00     0.241 C 
HETATM   23  C52 UNL     1      -4.472  -1.597   2.618  1.00  0.00    -0.000 A 
HETATM   24  C53 UNL     1      -5.000  -2.895   2.791  1.00  0.00     0.014 A 
HETATM   25  C54 UNL     1      -4.520  -3.709   3.824  1.00  0.00     0.001 A 
HETATM   26  C55 UNL     1      -3.532  -3.251   4.690  1.00  0.00     0.002 A 
HETATM   27  C56 UNL     1      -2.996  -1.969   4.550  1.00  0.00     0.030 A 
HETATM   28  C57 UNL     1      -3.485  -1.169   3.510  1.00  0.00     0.043 A 
HETATM   29  O1  UNL     1      -6.964   4.149  -1.770  1.00  0.00    -0.271 OA
HETATM   30  O2  UNL     1      -4.009   0.871  -2.266  1.00  0.00    -0.272 OA
HETATM   31  O3  UNL     1      -6.560  -0.759  -2.600  1.00  0.00    -0.271 OA
HETATM   32  O4  UNL     1     -10.261   0.500  -3.182  1.00  0.00    -0.272 OA
HETATM   33  O5  UNL     1      -4.289  -3.872  -1.227  1.00  0.00    -0.273 OA
HETATM   34  O6  UNL     1       0.689  -0.519  -1.123  1.00  0.00    -0.277 OA
HETATM   35  O7  UNL     1      -1.371   2.678  -3.201  1.00  0.00    -0.271 OA
HETATM   36  N1  UNL     1      -6.656   2.204  -2.907  1.00  0.00    -0.351 N 
HETATM   37  N2  UNL     1      -3.589   3.056  -1.702  1.00  0.00    -0.346 N 
HETATM   38  N3  UNL     1      -8.054  -1.478  -1.037  1.00  0.00    -0.351 N 
HETATM   39  N4  UNL     1      -8.789   1.112  -1.535  1.00  0.00    -0.346 N 
HETATM   40  N5  UNL     1      -4.387  -1.600  -1.199  1.00  0.00    -0.347 N 
HETATM   41  N6  UNL     1       0.295  -0.496  -3.413  1.00  0.00    -0.247 NA
HETATM   42  N7  UNL     1       0.025   2.202  -1.461  1.00  0.00    -0.346 N 
HETATM   43  N13 UNL     1      -3.149   0.115   3.155  1.00  0.00    -0.350 N 
HETATM   44  S1  UNL     1      -3.638   2.097   1.433  1.00  0.00    -0.109 SA
HETATM   45  H64 UNL     1      -6.926   1.223  -2.982  1.00  0.00     0.163 HD
HETATM   46  H65 UNL     1      -3.764   4.014  -1.981  1.00  0.00     0.163 HD
HETATM   47  H66 UNL     1      -8.168  -2.195  -0.330  1.00  0.00     0.163 HD
HETATM   48  H67 UNL     1      -8.135   0.766  -0.847  1.00  0.00     0.163 HD
HETATM   49  H68 UNL     1      -4.203  -0.766  -1.766  1.00  0.00     0.163 HD
HETATM   50  H69 UNL     1       0.068   1.897  -0.498  1.00  0.00     0.163 HD
HETATM   51  H74 UNL     1      -2.472   0.691   3.632  1.00  0.00     0.166 HD
ENDROOT
BRANCH  21  52
HETATM   52  C27 UNL     1       2.427   1.833  -1.757  1.00  0.00     0.137 C 
BRANCH  52  53
HETATM   53  C28 UNL     1       3.516   1.441  -2.728  1.00  0.00     0.220 C 
HETATM   54  O8  UNL     1       3.309   1.114  -3.890  1.00  0.00    -0.274 OA
HETATM   55  N8  UNL     1       4.773   1.494  -2.173  1.00  0.00    -0.357 N 
HETATM   56  H70 UNL     1       4.898   1.963  -1.283  1.00  0.00     0.162 HD
BRANCH  55  57
HETATM   57  C29 UNL     1       5.953   1.238  -2.969  1.00  0.00     0.161 C 
BRANCH  57  58
HETATM   58  C30 UNL     1       7.142   1.039  -2.071  1.00  0.00    -0.040 A 
HETATM   59  C31 UNL     1       7.410  -0.221  -1.521  1.00  0.00     0.011 A 
HETATM   60  C32 UNL     1       8.450  -0.389  -0.602  1.00  0.00     0.030 A 
HETATM   61  C33 UNL     1       9.225   0.702  -0.208  1.00  0.00     0.034 A 
HETATM   62  C34 UNL     1       8.993   1.950  -0.792  1.00  0.00     0.030 A 
HETATM   63  C35 UNL     1       7.952   2.122  -1.708  1.00  0.00     0.011 A 
BRANCH  61  64
HETATM   64  N9  UNL     1      10.225   0.628   0.779  1.00  0.00    -0.325 N 
HETATM   65  C36 UNL     1      10.368  -0.356   1.749  1.00  0.00     0.244 C 
HETATM   66  O9  UNL     1       9.587  -1.288   1.934  1.00  0.00    -0.271 OA
HETATM   67  H71 UNL     1      10.758   1.485   0.951  1.00  0.00     0.169 HD
BRANCH  65  68
HETATM   68  C37 UNL     1      11.563  -0.079   2.690  1.00  0.00     0.172 C 
HETATM   69  C38 UNL     1      12.006  -1.353   3.397  1.00  0.00     0.042 C 
BRANCH  68  70
HETATM   70  N10 UNL     1      11.167   0.931   3.667  1.00  0.00    -0.347 N 
HETATM   71  C39 UNL     1      11.074   2.269   3.362  1.00  0.00     0.236 C 
HETATM   72  O10 UNL     1      11.322   2.701   2.237  1.00  0.00    -0.272 OA
HETATM   73  H72 UNL     1      10.983   0.647   4.631  1.00  0.00     0.163 HD
BRANCH  71  74
HETATM   74  C40 UNL     1      10.694   3.174   4.537  1.00  0.00     0.225 C 
BRANCH  74  75
HETATM   75  N11 UNL     1       9.430   2.801   5.151  1.00  0.00    -0.352 N 
HETATM   76  C41 UNL     1       9.331   1.782   6.064  1.00  0.00     0.219 C 
HETATM   77  O11 UNL     1      10.285   1.071   6.367  1.00  0.00    -0.274 OA
HETATM   78  H73 UNL     1       8.569   3.089   4.683  1.00  0.00     0.162 HD
BRANCH  76  79
HETATM   79  C42 UNL     1       7.949   1.583   6.637  1.00  0.00     0.123 C 
BRANCH  79  80
HETATM   80  C43 UNL     1       7.363   0.238   6.231  1.00  0.00     0.144 C 
BRANCH  80  81
HETATM   81  N12 UNL     1       7.082   0.010   4.816  1.00  0.00    -0.287 N 
HETATM   82  C44 UNL     1       6.771  -1.249   4.373  1.00  0.00     0.228 C 
HETATM   83  C45 UNL     1       6.338  -1.197   2.940  1.00  0.00     0.128 C 
HETATM   84  O12 UNL     1       6.772  -2.269   5.047  1.00  0.00    -0.273 OA
HETATM   85  C46 UNL     1       6.554   0.253   2.552  1.00  0.00     0.145 C 
HETATM   86  C47 UNL     1       6.856   0.955   3.854  1.00  0.00     0.240 C 
HETATM   87  O13 UNL     1       6.932   2.169   3.999  1.00  0.00    -0.272 OA
BRANCH  85  88
HETATM   88  S2  UNL     1       5.121   0.967   1.695  1.00  0.00    -0.167 SA
HETATM   89  H75 UNL     1       5.216   0.195   0.600  1.00  0.00     0.102 HD
ENDBRANCH  85  88
ENDBRANCH  80  81
ENDBRANCH  79  80
ENDBRANCH  76  79
ENDBRANCH  74  75
ENDBRANCH  71  74
ENDBRANCH  68  70
ENDBRANCH  65  68
ENDBRANCH  61  64
ENDBRANCH  57  58
ENDBRANCH  55  57
ENDBRANCH  52  53
ENDBRANCH  21  52
BRANCH  15  90
HETATM   90  C48 UNL     1      -2.553  -4.058  -3.482  1.00  0.00     0.025 C 
HETATM   91  C49 UNL     1      -1.798  -5.008  -2.544  1.00  0.00     0.013 C 
BRANCH  90  92
HETATM   92  C50 UNL     1      -3.812  -4.714  -4.124  1.00  0.00     0.146 C 
BRANCH  92  93
HETATM   93  C51 UNL     1      -3.540  -6.026  -4.883  1.00  0.00     0.196 C 
BRANCH  93  94
HETATM   94  O14 UNL     1      -3.273  -7.123  -4.021  1.00  0.00    -0.398 OA
HETATM   95  H62 UNL     1      -4.000  -7.170  -3.375  1.00  0.00     0.209 HD
ENDBRANCH  93  94
ENDBRANCH  92  93
BRANCH  92  96
HETATM   96  O15 UNL     1      -4.402  -3.785  -5.041  1.00  0.00    -0.393 OA
HETATM   97  H63 UNL     1      -3.761  -3.609  -5.751  1.00  0.00     0.210 HD
ENDBRANCH  92  96
ENDBRANCH  90  92
ENDBRANCH  15  90
BRANCH   1  98
HETATM   98  C3  UNL     1      -9.476   3.332  -0.596  1.00  0.00     0.013 C 
HETATM   99  C4  UNL     1      -9.942   4.720  -1.068  1.00  0.00     0.012 C 
BRANCH  98 100
HETATM  100  C2  UNL     1     -10.655   2.562   0.048  1.00  0.00     0.002 C 
HETATM  101  C1  UNL     1     -11.301   3.283   1.225  1.00  0.00     0.005 C 
ENDBRANCH  98 100
ENDBRANCH   1  98
TORSDOF 20
