REMARK  0 active torsions:
REMARK  status: ('A' for Active; 'I' for Inactive)
REMARK       I    between atoms: C2_2  and  C3_3 
REMARK       I    between atoms: C2_2  and  N14_76 
REMARK       I    between atoms: C3_3  and  N1_62 
REMARK       I    between atoms: C4_4  and  C5_5 
REMARK       I    between atoms: C4_4  and  C9_9 
REMARK       I    between atoms: C4_4  and  N1_62 
REMARK       I    between atoms: C5_5  and  C6_6 
REMARK       I    between atoms: C6_6  and  C7_7 
REMARK       I    between atoms: C7_7  and  N2_63 
REMARK       I    between atoms: C8_8  and  N3_65 
REMARK       I    between atoms: C8_8  and  N4_66 
REMARK       I    between atoms: C9_9  and  N5_67 
REMARK       I    between atoms: C13_13  and  C14_14 
REMARK       I    between atoms: C14_14  and  N6_68 
REMARK       I    between atoms: C15_15  and  C16_16 
REMARK       I    between atoms: C15_15  and  C20_20 
REMARK       I    between atoms: C15_15  and  N6_68 
REMARK       I    between atoms: C16_16  and  C17_17 
REMARK       I    between atoms: C20_20  and  N7_69 
REMARK       I    between atoms: C21_21  and  C23_23 
REMARK       I    between atoms: C21_21  and  N7_69 
REMARK       I    between atoms: C23_23  and  N8_70 
REMARK       I    between atoms: C24_24  and  C25_25 
REMARK       I    between atoms: C24_24  and  C29_29 
REMARK       I    between atoms: C24_24  and  N8_70 
REMARK       I    between atoms: C25_25  and  C26_26 
REMARK       I    between atoms: C29_29  and  N9_71 
REMARK       I    between atoms: C30_30  and  C31_31 
REMARK       I    between atoms: C30_30  and  C45_45 
REMARK       I    between atoms: C30_30  and  N9_71 
REMARK       I    between atoms: C31_31  and  C32_32 
REMARK       I    between atoms: C32_32  and  C33_33 
REMARK       I    between atoms: C33_33  and  C34_34 
REMARK       I    between atoms: C34_34  and  N10_72 
REMARK       I    between atoms: C35_35  and  C36_36 
REMARK       I    between atoms: C35_35  and  N10_72 
REMARK       I    between atoms: C36_36  and  C37_37 
REMARK       I    between atoms: C37_37  and  C38_38 
REMARK       I    between atoms: C38_38  and  C39_39 
REMARK       I    between atoms: C39_39  and  C40_40 
REMARK       I    between atoms: C45_45  and  N13_75 
REMARK       I    between atoms: C46_46  and  C47_47 
REMARK       I    between atoms: C46_46  and  N14_76 
REMARK       I    between atoms: C47_47  and  C48_48 
REMARK       I    between atoms: C47_47  and  N15_77 
REMARK       I    between atoms: C48_48  and  C49_49 
ROOT
HETATM    1  C1  UNL     1      -7.961  -3.269  -0.096  1.00  0.00     0.042 C 
HETATM    2  C2  UNL     1      -7.967  -1.748   0.005  1.00  0.00     0.172 C 
HETATM    3  C3  UNL     1      -6.530  -1.186   0.041  1.00  0.00     0.240 C 
HETATM    4  C4  UNL     1      -5.278   0.961   0.034  1.00  0.00     0.176 C 
HETATM    5  C5  UNL     1      -4.716   1.685  -1.199  1.00  0.00     0.036 C 
HETATM    6  C6  UNL     1      -3.775   0.835  -2.066  1.00  0.00     0.022 C 
HETATM    7  C7  UNL     1      -4.443  -0.313  -2.821  1.00  0.00     0.121 C 
HETATM    8  C8  UNL     1      -6.540  -0.435  -3.910  1.00  0.00     0.121 C 
HETATM    9  C9  UNL     1      -5.754   2.024   1.054  1.00  0.00     0.243 C 
HETATM   10  C10 UNL     1      -5.170   3.653   2.807  1.00  0.00     0.127 C 
HETATM   11  C11 UNL     1      -3.933   3.877   3.666  1.00  0.00     0.022 C 
HETATM   12  C12 UNL     1      -2.792   3.346   2.800  1.00  0.00     0.037 C 
HETATM   13  C13 UNL     1      -3.430   2.156   2.084  1.00  0.00     0.179 C 
HETATM   14  C14 UNL     1      -3.303   0.892   2.966  1.00  0.00     0.241 C 
HETATM   15  C15 UNL     1      -1.712  -0.892   3.660  1.00  0.00     0.177 C 
HETATM   16  C16 UNL     1      -2.114  -2.271   3.112  1.00  0.00     0.038 C 
HETATM   17  C17 UNL     1      -3.601  -2.643   3.275  1.00  0.00    -0.020 C 
HETATM   18  C18 UNL     1      -4.011  -2.783   4.742  1.00  0.00     0.009 C 
HETATM   19  C19 UNL     1      -3.887  -3.956   2.540  1.00  0.00     0.009 C 
HETATM   20  C20 UNL     1      -0.180  -0.759   3.772  1.00  0.00     0.241 C 
HETATM   21  C21 UNL     1       1.743  -0.251   2.361  1.00  0.00     0.172 C 
HETATM   22  C22 UNL     1       2.604  -0.951   1.320  1.00  0.00     0.042 C 
HETATM   23  C23 UNL     1       1.349   1.163   1.871  1.00  0.00     0.240 C 
HETATM   24  C24 UNL     1       2.156   3.488   1.549  1.00  0.00     0.177 C 
HETATM   25  C25 UNL     1       1.320   4.276   2.573  1.00  0.00     0.038 C 
HETATM   26  C26 UNL     1       1.934   4.479   3.976  1.00  0.00    -0.020 C 
HETATM   27  C27 UNL     1       1.136   5.557   4.721  1.00  0.00     0.009 C 
HETATM   28  C28 UNL     1       1.949   3.204   4.820  1.00  0.00     0.009 C 
HETATM   29  C29 UNL     1       3.500   4.180   1.229  1.00  0.00     0.241 C 
HETATM   30  C30 UNL     1       5.736   3.835   0.224  1.00  0.00     0.176 C 
HETATM   31  C31 UNL     1       6.818   2.748   0.253  1.00  0.00     0.035 C 
HETATM   32  C32 UNL     1       7.207   2.359   1.684  1.00  0.00     0.004 C 
HETATM   33  C33 UNL     1       8.417   1.423   1.748  1.00  0.00     0.020 C 
HETATM   34  C34 UNL     1       8.151   0.043   1.148  1.00  0.00     0.122 C 
HETATM   35  C35 UNL     1      10.368  -0.781   0.443  1.00  0.00     0.217 C 
HETATM   36  C36 UNL     1      11.482  -1.736   0.834  1.00  0.00     0.103 C 
HETATM   37  C37 UNL     1      12.655  -1.775  -0.147  1.00  0.00     0.009 C 
HETATM   38  C38 UNL     1      12.492  -2.774  -1.302  1.00  0.00     0.002 C 
HETATM   39  C39 UNL     1      11.370  -2.411  -2.281  1.00  0.00     0.017 C 
HETATM   40  C40 UNL     1      11.262  -3.363  -3.483  1.00  0.00     0.072 C 
HETATM   41  C41 UNL     1      10.060  -3.003  -4.364  1.00  0.00     0.123 C 
HETATM   42  C42 UNL     1      10.445  -1.928  -5.404  1.00  0.00     0.119 C 
HETATM   43  C43 UNL     1      11.967  -1.805  -5.509  1.00  0.00     0.101 C 
HETATM   44  C44 UNL     1       9.368  -3.711  -6.481  1.00  0.00     0.316 C 
HETATM   45  C45 UNL     1       5.477   4.306  -1.219  1.00  0.00     0.238 C 
HETATM   46  C46 UNL     1     -10.093  -1.043  -1.062  1.00  0.00     0.251 C 
HETATM   47  C47 UNL     1     -10.739  -0.579  -2.384  1.00  0.00     0.309 C 
HETATM   48  C48 UNL     1     -10.869  -1.737  -3.383  1.00  0.00     0.049 C 
HETATM   49  C49 UNL     1     -11.752  -2.911  -2.908  1.00  0.00    -0.020 C 
HETATM   50  C50 UNL     1     -11.729  -4.029  -3.954  1.00  0.00     0.009 C 
HETATM   51  C51 UNL     1     -13.196  -2.484  -2.642  1.00  0.00     0.009 C 
HETATM   52  O1  UNL     1      -5.559  -1.837   0.419  1.00  0.00    -0.271 OA
HETATM   53  O2  UNL     1      -6.924   2.424   1.035  1.00  0.00    -0.271 OA
HETATM   54  O3  UNL     1      -4.152   0.553   3.785  1.00  0.00    -0.271 OA
HETATM   55  O4  UNL     1       0.388  -0.379   4.793  1.00  0.00    -0.271 OA
HETATM   56  O5  UNL     1       0.215   1.425   1.464  1.00  0.00    -0.271 OA
HETATM   57  O6  UNL     1       3.671   5.396   1.278  1.00  0.00    -0.271 OA
HETATM   58  O7  UNL     1      10.409  -0.039  -0.532  1.00  0.00    -0.274 OA
HETATM   59  O8  UNL     1       8.826  -4.372  -7.346  1.00  0.00    -0.247 OA
HETATM   60  O9  UNL     1       5.579   3.584  -2.205  1.00  0.00    -0.271 OA
HETATM   61  O10 UNL     1     -10.769  -1.325  -0.075  1.00  0.00    -0.271 OA
HETATM   62  N1  UNL     1      -6.446   0.150  -0.291  1.00  0.00    -0.346 N 
HETATM   63  N2  UNL     1      -5.478   0.235  -3.689  1.00  0.00    -0.372 N 
ATOM     64  H2  UNL     1      -5.353   1.152  -4.118  1.00  0.00     0.161 HD
HETATM   65  N3  UNL     1      -7.530   0.102  -4.655  1.00  0.00    -0.279 NA
HETATM   66  N4  UNL     1      -6.903  -1.670  -3.495  1.00  0.00    -0.279 NA
HETATM   67  N5  UNL     1      -4.821   2.567   1.908  1.00  0.00    -0.337 N 
HETATM   68  N6  UNL     1      -2.118   0.212   2.781  1.00  0.00    -0.346 N 
HETATM   69  N7  UNL     1       0.496  -0.970   2.577  1.00  0.00    -0.346 N 
HETATM   70  N8  UNL     1       2.370   2.084   1.899  1.00  0.00    -0.346 N 
HETATM   71  N9  UNL     1       4.467   3.319   0.739  1.00  0.00    -0.346 N 
HETATM   72  N10 UNL     1       9.292  -0.834   1.306  1.00  0.00    -0.361 N 
HETATM   73  N11 UNL     1       9.841  -2.426  -6.623  1.00  0.00    -0.336 N 
HETATM   74  N12 UNL     1       9.586  -4.106  -5.179  1.00  0.00    -0.335 N 
HETATM   75  N13 UNL     1       4.994   5.581  -1.326  1.00  0.00    -0.368 N 
HETATM   76  N14 UNL     1      -8.724  -1.157  -1.092  1.00  0.00    -0.346 N 
HETATM   77  N15 UNL     1      -9.915   0.493  -3.011  1.00  0.00     0.092 N 
HETATM   78  S1  UNL     1      12.681  -3.207  -4.614  1.00  0.00    -0.160 SA
HETATM   79  H75 UNL     1      -7.327   0.653  -0.358  1.00  0.00     0.163 HD
HETATM   80  H76 UNL     1      -7.294   1.068  -4.864  1.00  0.00     0.126 HD
HETATM   81  H77 UNL     1      -8.420   0.100  -4.146  1.00  0.00     0.126 HD
HETATM   82  H78 UNL     1      -6.116  -2.242  -3.209  1.00  0.00     0.126 HD
HETATM   83  H79 UNL     1      -7.432  -2.148  -4.218  1.00  0.00     0.126 HD
HETATM   84  H80 UNL     1      -1.391   0.686   2.243  1.00  0.00     0.163 HD
HETATM   85  H81 UNL     1      -0.098  -1.046   1.758  1.00  0.00     0.163 HD
HETATM   86  H82 UNL     1       3.204   1.868   2.434  1.00  0.00     0.163 HD
HETATM   87  H83 UNL     1       4.114   2.472   0.305  1.00  0.00     0.163 HD
HETATM   88  H84 UNL     1       9.382  -1.361   2.165  1.00  0.00     0.162 HD
HETATM   89  H85 UNL     1       9.788  -1.951  -7.514  1.00  0.00     0.164 HD
HETATM   90  H86 UNL     1       9.151  -4.955  -4.843  1.00  0.00     0.164 HD
HETATM   91  H87 UNL     1       4.557   6.012  -0.512  1.00  0.00     0.159 HD
HETATM   92  H88 UNL     1       4.663   5.870  -2.236  1.00  0.00     0.159 HD
HETATM   93  H89 UNL     1      -8.251  -1.026  -1.987  1.00  0.00     0.163 HD
HETATM   94  H90 UNL     1      -9.773   1.216  -2.297  1.00  0.00     0.313 HD
HETATM   95  H91 UNL     1     -10.500   0.947  -3.718  1.00  0.00     0.313 HD
ENDROOT
TORSDOF 35
