REMARK  0 active torsions:
REMARK  status: ('A' for Active; 'I' for Inactive)
REMARK       I    between atoms: C1_1  and  C14_14 
REMARK       I    between atoms: C7_7  and  O2_83 
REMARK       I    between atoms: C15_15  and  C16_16 
REMARK       I    between atoms: C16_16  and  O5_86 
REMARK       I    between atoms: C18_18  and  N1_98 
REMARK       I    between atoms: C19_19  and  N1_98 
REMARK       I    between atoms: C19_19  and  N2_99 
REMARK       I    between atoms: C20_20  and  C21_21 
REMARK       I    between atoms: C20_20  and  N2_99 
REMARK       I    between atoms: C21_21  and  C22_22 
REMARK       I    between atoms: C22_22  and  N3_100 
REMARK       I    between atoms: C23_23  and  N3_100 
REMARK       I    between atoms: C24_24  and  C27_27 
REMARK       I    between atoms: C27_27  and  N6_104 
REMARK       I    between atoms: C28_28  and  N6_104 
REMARK       I    between atoms: C29_29  and  C32_32 
REMARK       I    between atoms: C32_32  and  N9_108 
REMARK       I    between atoms: C33_33  and  N9_108 
REMARK       I    between atoms: C35_35  and  C38_38 
REMARK       I    between atoms: C38_38  and  N11_110 
REMARK       I    between atoms: C39_39  and  N11_110 
REMARK       I    between atoms: C41_41  and  C44_44 
REMARK       I    between atoms: C44_44  and  N13_112 
REMARK       I    between atoms: C45_45  and  C46_46 
REMARK       I    between atoms: C45_45  and  N13_112 
REMARK       I    between atoms: C46_46  and  C47_47 
REMARK       I    between atoms: C47_47  and  C48_48 
REMARK       I    between atoms: C48_48  and  N14_113 
REMARK       I    between atoms: C49_49  and  N14_113 
REMARK       I    between atoms: C50_50  and  C53_53 
REMARK       I    between atoms: C53_53  and  N17_117 
REMARK       I    between atoms: C54_54  and  N17_117 
REMARK       I    between atoms: C56_56  and  C59_59 
REMARK       I    between atoms: C59_59  and  N19_119 
REMARK       I    between atoms: C60_60  and  N19_119 
REMARK       I    between atoms: C62_62  and  C65_65 
REMARK       I    between atoms: C65_65  and  N21_121 
REMARK       I    between atoms: C66_66  and  N21_121 
REMARK       I    between atoms: C68_68  and  C71_71 
REMARK       I    between atoms: C71_71  and  N23_123 
REMARK       I    between atoms: C72_72  and  C73_73 
REMARK       I    between atoms: C72_72  and  N23_123 
REMARK       I    between atoms: C73_73  and  C74_74 
REMARK       I    between atoms: C74_74  and  N24_124 
REMARK       I    between atoms: C75_75  and  C76_76 
REMARK       I    between atoms: C75_75  and  N24_124 
REMARK       I    between atoms: C76_76  and  C77_77 
REMARK       I    between atoms: C77_77  and  N25_125 
ROOT
HETATM    1  C1  UNL     1     -18.935   0.452   4.405  1.00  0.00     0.001 A 
HETATM    2  C2  UNL     1     -18.269   1.484   4.992  1.00  0.00     0.010 A 
HETATM    3  C3  UNL     1     -17.166   1.226   5.933  1.00  0.00     0.091 A 
HETATM    4  C4  UNL     1     -17.472  -1.118   5.672  1.00  0.00     0.087 A 
HETATM    5  C5  UNL     1     -18.519  -0.930   4.768  1.00  0.00     0.013 A 
HETATM    6  C6  UNL     1     -19.146  -2.069   4.233  1.00  0.00     0.051 A 
HETATM    7  C7  UNL     1     -18.723  -3.345   4.607  1.00  0.00     0.066 A 
HETATM    8  C8  UNL     1     -17.677  -3.518   5.502  1.00  0.00     0.039 A 
HETATM    9  C9  UNL     1     -17.048  -2.398   6.039  1.00  0.00     0.041 A 
HETATM   10  C10 UNL     1     -16.483   2.230   6.500  1.00  0.00     0.092 A 
HETATM   11  C11 UNL     1     -16.812   3.638   6.207  1.00  0.00     0.174 A 
HETATM   12  C12 UNL     1     -17.944   3.902   5.295  1.00  0.00     0.056 A 
HETATM   13  C13 UNL     1     -18.620   2.890   4.734  1.00  0.00     0.019 A 
HETATM   14  C14 UNL     1     -20.027   0.717   3.427  1.00  0.00    -0.007 A 
HETATM   15  C15 UNL     1     -21.393   0.650   3.745  1.00  0.00     0.051 A 
HETATM   16  C16 UNL     1     -21.894   0.332   5.096  1.00  0.00     0.177 C 
HETATM   17  C17 UNL     1     -22.365   0.834   2.747  1.00  0.00     0.048 A 
HETATM   18  C18 UNL     1     -21.995   1.096   1.424  1.00  0.00     0.035 A 
HETATM   19  C19 UNL     1     -23.041   1.358  -0.872  1.00  0.00     0.172 C 
HETATM   20  C20 UNL     1     -21.824   0.694  -2.974  1.00  0.00     0.131 C 
HETATM   21  C21 UNL     1     -20.380   0.391  -3.349  1.00  0.00     0.123 C 
HETATM   22  C22 UNL     1     -20.212   0.239  -4.848  1.00  0.00     0.224 C 
HETATM   23  C23 UNL     1     -18.412  -0.063  -6.471  1.00  0.00     0.125 A 
HETATM   24  C24 UNL     1     -16.896  -0.324  -7.970  1.00  0.00     0.178 A 
HETATM   25  C25 UNL     1     -19.085  -0.138  -7.663  1.00  0.00     0.140 A 
HETATM   26  C26 UNL     1     -18.341  -0.435 -10.029  1.00  0.00     0.157 C 
HETATM   27  C27 UNL     1     -15.585  -0.480  -8.591  1.00  0.00     0.291 C 
HETATM   28  C28 UNL     1     -13.237  -0.559  -7.903  1.00  0.00     0.125 A 
HETATM   29  C29 UNL     1     -11.152  -0.636  -7.387  1.00  0.00     0.178 A 
HETATM   30  C30 UNL     1     -12.572  -0.738  -9.088  1.00  0.00     0.140 A 
HETATM   31  C31 UNL     1     -10.152  -0.968  -9.673  1.00  0.00     0.157 C 
HETATM   32  C32 UNL     1      -9.929  -0.622  -6.593  1.00  0.00     0.290 C 
HETATM   33  C33 UNL     1      -9.271  -0.408  -4.234  1.00  0.00     0.053 A 
HETATM   34  C34 UNL     1      -7.864  -0.531  -4.276  1.00  0.00     0.066 A 
HETATM   35  C35 UNL     1      -7.370  -0.384  -2.987  1.00  0.00     0.105 A 
HETATM   36  C36 UNL     1      -9.617  -0.227  -2.914  1.00  0.00     0.120 A 
HETATM   37  C37 UNL     1      -8.448  -0.216  -0.715  1.00  0.00     0.156 C 
HETATM   38  C38 UNL     1      -5.979  -0.424  -2.577  1.00  0.00     0.273 C 
HETATM   39  C39 UNL     1      -4.374   0.875  -1.256  1.00  0.00     0.053 A 
HETATM   40  C40 UNL     1      -3.232   0.041  -1.242  1.00  0.00     0.066 A 
HETATM   41  C41 UNL     1      -2.208   0.686  -0.555  1.00  0.00     0.104 A 
HETATM   42  C42 UNL     1      -4.041   2.014  -0.565  1.00  0.00     0.120 A 
HETATM   43  C43 UNL     1      -2.040   2.918   0.609  1.00  0.00     0.156 C 
HETATM   44  C44 UNL     1      -0.851   0.242  -0.281  1.00  0.00     0.268 C 
HETATM   45  C45 UNL     1       0.850  -1.505  -0.795  1.00  0.00     0.123 C 
HETATM   46  C46 UNL     1       1.839  -1.053  -1.869  1.00  0.00     0.029 C 
HETATM   47  C47 UNL     1       2.306   0.397  -1.752  1.00  0.00     0.105 C 
HETATM   48  C48 UNL     1       3.269   0.592  -0.594  1.00  0.00     0.223 C 
HETATM   49  C49 UNL     1       3.276   1.210   1.758  1.00  0.00     0.125 A 
HETATM   50  C50 UNL     1       4.843   1.409   3.212  1.00  0.00     0.178 A 
HETATM   51  C51 UNL     1       2.649   1.555   2.931  1.00  0.00     0.140 A 
HETATM   52  C52 UNL     1       3.495   2.026   5.240  1.00  0.00     0.157 C 
HETATM   53  C53 UNL     1       6.183   1.414   3.784  1.00  0.00     0.290 C 
HETATM   54  C54 UNL     1       8.485   0.979   3.007  1.00  0.00     0.053 A 
HETATM   55  C55 UNL     1       9.410   0.623   1.995  1.00  0.00     0.066 A 
HETATM   56  C56 UNL     1      10.696   0.632   2.531  1.00  0.00     0.105 A 
HETATM   57  C57 UNL     1       9.213   1.194   4.148  1.00  0.00     0.120 A 
HETATM   58  C58 UNL     1      11.599   1.115   4.841  1.00  0.00     0.156 C 
HETATM   59  C59 UNL     1      11.982   0.336   1.901  1.00  0.00     0.273 C 
HETATM   60  C60 UNL     1      12.996  -0.065  -0.301  1.00  0.00     0.053 A 
HETATM   61  C61 UNL     1      14.347  -0.343   0.010  1.00  0.00     0.066 A 
HETATM   62  C62 UNL     1      15.050  -0.570  -1.170  1.00  0.00     0.105 A 
HETATM   63  C63 UNL     1      12.884  -0.135  -1.668  1.00  0.00     0.120 A 
HETATM   64  C64 UNL     1      14.378  -0.596  -3.604  1.00  0.00     0.156 C 
HETATM   65  C65 UNL     1      16.463  -0.893  -1.378  1.00  0.00     0.273 C 
HETATM   66  C66 UNL     1      18.599  -1.028  -0.151  1.00  0.00     0.053 A 
HETATM   67  C67 UNL     1      19.374  -0.881   1.024  1.00  0.00     0.066 A 
HETATM   68  C68 UNL     1      20.683  -1.252   0.747  1.00  0.00     0.104 A 
HETATM   69  C69 UNL     1      19.457  -1.452  -1.135  1.00  0.00     0.120 A 
HETATM   70  C70 UNL     1      21.899  -1.820  -1.395  1.00  0.00     0.156 C 
HETATM   71  C71 UNL     1      21.785  -1.266   1.687  1.00  0.00     0.268 C 
HETATM   72  C72 UNL     1      23.700  -2.592   2.506  1.00  0.00     0.132 C 
HETATM   73  C73 UNL     1      24.828  -1.569   2.453  1.00  0.00     0.122 C 
HETATM   74  C74 UNL     1      25.941  -1.937   3.410  1.00  0.00     0.219 C 
HETATM   75  C75 UNL     1      27.971  -1.072   4.493  1.00  0.00     0.124 C 
HETATM   76  C76 UNL     1      29.134  -0.127   4.194  1.00  0.00     0.050 C 
HETATM   77  C77 UNL     1      29.879  -0.530   2.912  1.00  0.00     0.273 C 
HETATM   78  C78 UNL     1      32.129   0.208   3.516  1.00  0.00     0.309 C 
HETATM   79  C79 UNL     1      30.697   1.679   2.257  1.00  0.00     0.309 C 
HETATM   80  C80 UNL     1     -20.638   1.203   1.115  1.00  0.00     0.030 A 
HETATM   81  C81 UNL     1     -19.664   1.000   2.100  1.00  0.00     0.015 A 
HETATM   82  O1  UNL     1     -16.801  -0.074   6.248  1.00  0.00    -0.309 OA
HETATM   83  O2  UNL     1     -19.320  -4.465   4.109  1.00  0.00    -0.361 OA
HETATM   84  O3  UNL     1     -16.172   4.557   6.704  1.00  0.00    -0.288 OA
HETATM   85  O4  UNL     1     -22.787  -0.457   5.340  1.00  0.00    -0.646 OA
HETATM   86  O5  UNL     1     -21.316   1.082   6.045  1.00  0.00    -0.773 OA
HETATM   87  O6  UNL     1     -21.167   0.227  -5.616  1.00  0.00    -0.273 OA
HETATM   88  O7  UNL     1     -15.431  -0.622  -9.800  1.00  0.00    -0.264 OA
HETATM   89  O8  UNL     1      -8.811  -0.739  -7.086  1.00  0.00    -0.264 OA
HETATM   90  O9  UNL     1      -5.226  -1.331  -2.915  1.00  0.00    -0.266 OA
HETATM   91  O10 UNL     1      -0.080   0.841   0.467  1.00  0.00    -0.266 OA
HETATM   92  O11 UNL     1       4.468   0.376  -0.751  1.00  0.00    -0.273 OA
HETATM   93  O12 UNL     1       6.407   1.688   4.959  1.00  0.00    -0.264 OA
HETATM   94  O13 UNL     1      13.015   0.216   2.555  1.00  0.00    -0.266 OA
HETATM   95  O14 UNL     1      16.893  -1.225  -2.479  1.00  0.00    -0.266 OA
HETATM   96  O15 UNL     1      21.911  -0.438   2.583  1.00  0.00    -0.266 OA
HETATM   97  O16 UNL     1      26.008  -3.015   3.988  1.00  0.00    -0.274 OA
HETATM   98  N1  UNL     1     -23.035   1.292   0.494  1.00  0.00    -0.333 N 
HETATM   99  N2  UNL     1     -21.972   0.806  -1.521  1.00  0.00    -0.367 N 
HETATM  100  N3  UNL     1     -18.885   0.101  -5.197  1.00  0.00    -0.312 N 
HETATM  101  N4  UNL     1     -17.064  -0.178  -6.659  1.00  0.00    -0.323 N 
ATOM    102  H4  UNL     1     -16.338  -0.156  -5.943  1.00  0.00     0.169 HD
HETATM  103  N5  UNL     1     -18.114  -0.305  -8.610  1.00  0.00    -0.339 N 
HETATM  104  N6  UNL     1     -14.575  -0.443  -7.657  1.00  0.00    -0.305 N 
HETATM  105  N7  UNL     1     -12.362  -0.495  -6.855  1.00  0.00    -0.323 N 
ATOM    106  H7  UNL     1     -12.590  -0.366  -5.869  1.00  0.00     0.169 HD
HETATM  107  N8  UNL     1     -11.248  -0.787  -8.751  1.00  0.00    -0.339 N 
HETATM  108  N9  UNL     1     -10.200  -0.455  -5.249  1.00  0.00    -0.319 N 
HETATM  109  N10 UNL     1      -8.468  -0.248  -2.163  1.00  0.00    -0.354 N 
HETATM  110  N11 UNL     1      -5.619   0.671  -1.815  1.00  0.00    -0.320 N 
HETATM  111  N12 UNL     1      -2.739   1.896  -0.144  1.00  0.00    -0.354 N 
HETATM  112  N13 UNL     1      -0.457  -0.896  -0.947  1.00  0.00    -0.356 N 
HETATM  113  N14 UNL     1       2.638   0.982   0.567  1.00  0.00    -0.312 N 
HETATM  114  N15 UNL     1       4.622   1.124   1.938  1.00  0.00    -0.323 N 
ATOM    115  H15 UNL     1       5.320   0.888   1.233  1.00  0.00     0.169 HD
HETATM  116  N16 UNL     1       3.656   1.679   3.850  1.00  0.00    -0.339 N 
HETATM  117  N17 UNL     1       7.124   1.075   2.831  1.00  0.00    -0.319 N 
HETATM  118  N18 UNL     1      10.538   0.978   3.864  1.00  0.00    -0.354 N 
HETATM  119  N19 UNL     1      11.926   0.223   0.523  1.00  0.00    -0.320 N 
HETATM  120  N20 UNL     1      14.117  -0.444  -2.187  1.00  0.00    -0.354 N 
HETATM  121  N21 UNL     1      17.242  -0.776  -0.240  1.00  0.00    -0.320 N 
HETATM  122  N22 UNL     1      20.719  -1.545  -0.602  1.00  0.00    -0.354 N 
HETATM  123  N23 UNL     1      22.655  -2.326   1.532  1.00  0.00    -0.355 N 
HETATM  124  N24 UNL     1      26.895  -0.945   3.530  1.00  0.00    -0.361 N 
HETATM  125  N25 UNL     1      31.043   0.290   2.544  1.00  0.00     0.080 N 
HETATM  126  S1  UNL     1     -24.375   2.054  -1.599  1.00  0.00    -0.041 SA
HETATM  127  H73 UNL     1     -20.102  -4.208   3.595  1.00  0.00     0.217 HD
HETATM  128  H74 UNL     1     -21.739   0.797   6.882  1.00  0.00     0.167 HD
HETATM  129  H75 UNL     1     -23.948   1.501   0.888  1.00  0.00     0.168 HD
HETATM  130  H76 UNL     1     -21.569   0.039  -0.997  1.00  0.00     0.161 HD
HETATM  131  H77 UNL     1     -18.160   0.125  -4.494  1.00  0.00     0.170 HD
HETATM  132  H78 UNL     1     -14.844  -0.318  -6.689  1.00  0.00     0.170 HD
HETATM  133  H79 UNL     1     -11.183  -0.363  -5.009  1.00  0.00     0.169 HD
HETATM  134  H80 UNL     1      -6.284   1.426  -1.729  1.00  0.00     0.169 HD
HETATM  135  H81 UNL     1      -1.092  -1.317  -1.611  1.00  0.00     0.162 HD
HETATM  136  H82 UNL     1       1.621   1.064   0.580  1.00  0.00     0.170 HD
HETATM  137  H83 UNL     1       6.741   0.879   1.906  1.00  0.00     0.169 HD
HETATM  138  H84 UNL     1      11.046   0.390   0.059  1.00  0.00     0.169 HD
HETATM  139  H85 UNL     1      16.804  -0.456   0.610  1.00  0.00     0.169 HD
HETATM  140  H86 UNL     1      22.291  -3.122   1.025  1.00  0.00     0.162 HD
HETATM  141  H87 UNL     1      26.622  -0.010   3.250  1.00  0.00     0.162 HD
ENDROOT
TORSDOF 37
