REMARK  0 active torsions:
REMARK  status: ('A' for Active; 'I' for Inactive)
REMARK       I    between atoms: C2_2  and  C3_3 
REMARK       I    between atoms: C2_2  and  O15_70 
REMARK       I    between atoms: C3_3  and  C4_4 
REMARK       I    between atoms: C3_3  and  N25_99 
REMARK       I    between atoms: C4_4  and  N1_71 
REMARK       I    between atoms: C8_8  and  C9_9 
REMARK       I    between atoms: C9_9  and  N2_72 
REMARK       I    between atoms: C10_10  and  C11_11 
REMARK       I    between atoms: C10_10  and  C15_15 
REMARK       I    between atoms: C10_10  and  N2_72 
REMARK       I    between atoms: C11_11  and  C12_12 
REMARK       I    between atoms: C12_12  and  C13_13 
REMARK       I    between atoms: C13_13  and  N3_73 
REMARK       I    between atoms: C14_14  and  N4_75 
REMARK       I    between atoms: C14_14  and  N5_76 
REMARK       I    between atoms: C15_15  and  N6_77 
REMARK       I    between atoms: C16_16  and  C17_17 
REMARK       I    between atoms: C16_16  and  C20_20 
REMARK       I    between atoms: C16_16  and  N6_77 
REMARK       I    between atoms: C17_17  and  C18_18 
REMARK       I    between atoms: C18_18  and  C19_19 
REMARK       I    between atoms: C19_19  and  O5_60 
REMARK       I    between atoms: C20_20  and  N7_78 
REMARK       I    between atoms: C21_21  and  C22_22 
REMARK       I    between atoms: C21_21  and  C26_26 
REMARK       I    between atoms: C21_21  and  N7_78 
REMARK       I    between atoms: C22_22  and  C23_23 
REMARK       I    between atoms: C23_23  and  C24_24 
REMARK       I    between atoms: C24_24  and  N8_79 
REMARK       I    between atoms: C25_25  and  N9_81 
REMARK       I    between atoms: C25_25  and  N10_82 
REMARK       I    between atoms: C26_26  and  N11_83 
REMARK       I    between atoms: C27_27  and  C28_28 
REMARK       I    between atoms: C27_27  and  C32_32 
REMARK       I    between atoms: C27_27  and  N11_83 
REMARK       I    between atoms: C28_28  and  C29_29 
REMARK       I    between atoms: C29_29  and  C30_30 
REMARK       I    between atoms: C30_30  and  N12_84 
REMARK       I    between atoms: C31_31  and  N13_86 
REMARK       I    between atoms: C31_31  and  N14_87 
REMARK       I    between atoms: C32_32  and  N15_88 
REMARK       I    between atoms: C33_33  and  C35_35 
REMARK       I    between atoms: C33_33  and  N15_88 
REMARK       I    between atoms: C35_35  and  N16_89 
REMARK       I    between atoms: C36_36  and  C37_37 
REMARK       I    between atoms: C36_36  and  C41_41 
REMARK       I    between atoms: C36_36  and  N16_89 
REMARK       I    between atoms: C37_37  and  C38_38 
REMARK       I    between atoms: C38_38  and  C39_39 
REMARK       I    between atoms: C39_39  and  C40_40 
REMARK       I    between atoms: C40_40  and  N17_90 
REMARK       I    between atoms: C41_41  and  N18_91 
REMARK       I    between atoms: C42_42  and  C43_43 
REMARK       I    between atoms: C42_42  and  C47_47 
REMARK       I    between atoms: C42_42  and  N18_91 
REMARK       I    between atoms: C43_43  and  C44_44 
REMARK       I    between atoms: C44_44  and  C45_45 
REMARK       I    between atoms: C45_45  and  C46_46 
REMARK       I    between atoms: C46_46  and  N19_92 
REMARK       I    between atoms: C47_47  and  N20_93 
REMARK       I    between atoms: C48_48  and  C49_49 
REMARK       I    between atoms: C48_48  and  C53_53 
REMARK       I    between atoms: C48_48  and  N20_93 
REMARK       I    between atoms: C49_49  and  C50_50 
REMARK       I    between atoms: C50_50  and  C51_51 
REMARK       I    between atoms: C51_51  and  N21_94 
REMARK       I    between atoms: C52_52  and  N22_96 
REMARK       I    between atoms: C52_52  and  N23_97 
REMARK       I    between atoms: C53_53  and  N24_98 
REMARK       I    between atoms: C54_54  and  C55_55 
REMARK       I    between atoms: C54_54  and  N24_98 
REMARK       I    between atoms: C55_55  and  O14_69 
ROOT
HETATM    1  C1  UNL     1      -1.044  -3.527  -9.305  1.00  0.00     0.042 C 
HETATM    2  C2  UNL     1       0.053  -3.760  -8.274  1.00  0.00     0.155 C 
HETATM    3  C3  UNL     1      -0.227  -3.016  -6.945  1.00  0.00     0.331 C 
HETATM    4  C4  UNL     1       0.796  -3.501  -5.891  1.00  0.00     0.236 C 
HETATM    5  C5  UNL     1      -0.692  -4.761  -4.469  1.00  0.00     0.099 C 
HETATM    6  C6  UNL     1       0.084  -5.936  -3.848  1.00  0.00     0.017 C 
HETATM    7  C7  UNL     1       1.467  -5.379  -3.487  1.00  0.00     0.031 C 
HETATM    8  C8  UNL     1       1.228  -3.882  -3.497  1.00  0.00     0.158 C 
HETATM    9  C9  UNL     1       2.457  -2.965  -3.458  1.00  0.00     0.236 C 
HETATM   10  C10 UNL     1       3.153  -0.609  -3.760  1.00  0.00     0.176 C 
HETATM   11  C11 UNL     1       2.655   0.629  -4.513  1.00  0.00     0.036 C 
HETATM   12  C12 UNL     1       1.620   1.515  -3.803  1.00  0.00     0.022 C 
HETATM   13  C13 UNL     1       0.353   0.837  -3.278  1.00  0.00     0.121 C 
HETATM   14  C14 UNL     1      -1.551  -0.125  -4.244  1.00  0.00     0.121 C 
HETATM   15  C15 UNL     1       3.682  -0.248  -2.354  1.00  0.00     0.241 C 
HETATM   16  C16 UNL     1       5.757   0.070  -1.028  1.00  0.00     0.177 C 
HETATM   17  C17 UNL     1       7.246  -0.268  -1.234  1.00  0.00     0.045 C 
HETATM   18  C18 UNL     1       7.501  -1.774  -1.381  1.00  0.00     0.112 C 
HETATM   19  C19 UNL     1       6.641  -2.378  -2.457  1.00  0.00     0.139 C 
HETATM   20  C20 UNL     1       5.576   1.450  -0.355  1.00  0.00     0.241 C 
HETATM   21  C21 UNL     1       3.863   2.890   0.750  1.00  0.00     0.176 C 
HETATM   22  C22 UNL     1       3.483   3.878  -0.372  1.00  0.00     0.036 C 
HETATM   23  C23 UNL     1       4.269   5.196  -0.327  1.00  0.00     0.022 C 
HETATM   24  C24 UNL     1       3.761   6.211   0.699  1.00  0.00     0.121 C 
HETATM   25  C25 UNL     1       4.079   6.506   3.018  1.00  0.00     0.121 C 
HETATM   26  C26 UNL     1       2.659   2.556   1.665  1.00  0.00     0.241 C 
HETATM   27  C27 UNL     1       1.021   3.473   3.292  1.00  0.00     0.176 C 
HETATM   28  C28 UNL     1       0.635   4.865   3.819  1.00  0.00     0.036 C 
HETATM   29  C29 UNL     1      -0.423   4.924   4.924  1.00  0.00     0.022 C 
HETATM   30  C30 UNL     1      -0.130   4.031   6.129  1.00  0.00     0.121 C 
HETATM   31  C31 UNL     1      -2.306   3.549   6.930  1.00  0.00     0.121 C 
HETATM   32  C32 UNL     1      -0.234   2.678   2.825  1.00  0.00     0.241 C 
HETATM   33  C33 UNL     1      -1.505   1.865   0.843  1.00  0.00     0.172 C 
HETATM   34  C34 UNL     1      -2.129   2.679  -0.285  1.00  0.00     0.042 C 
HETATM   35  C35 UNL     1      -1.061   0.469   0.335  1.00  0.00     0.240 C 
HETATM   36  C36 UNL     1       0.555  -1.392   0.515  1.00  0.00     0.176 C 
HETATM   37  C37 UNL     1       1.855  -1.761   1.252  1.00  0.00     0.035 C 
HETATM   38  C38 UNL     1       1.709  -1.932   2.770  1.00  0.00     0.004 C 
HETATM   39  C39 UNL     1       3.072  -2.158   3.432  1.00  0.00     0.030 C 
HETATM   40  C40 UNL     1       2.928  -2.318   4.945  1.00  0.00     0.267 C 
HETATM   41  C41 UNL     1      -0.419  -2.591   0.582  1.00  0.00     0.241 C 
HETATM   42  C42 UNL     1      -2.324  -3.553   1.862  1.00  0.00     0.176 C 
HETATM   43  C43 UNL     1      -2.474  -3.886   3.357  1.00  0.00     0.035 C 
HETATM   44  C44 UNL     1      -2.384  -2.723   4.355  1.00  0.00     0.004 C 
HETATM   45  C45 UNL     1      -3.456  -1.646   4.193  1.00  0.00     0.030 C 
HETATM   46  C46 UNL     1      -3.318  -0.587   5.289  1.00  0.00     0.267 C 
HETATM   47  C47 UNL     1      -3.689  -3.252   1.202  1.00  0.00     0.241 C 
HETATM   48  C48 UNL     1      -4.997  -1.631  -0.146  1.00  0.00     0.176 C 
HETATM   49  C49 UNL     1      -5.332  -0.157   0.094  1.00  0.00     0.036 C 
HETATM   50  C50 UNL     1      -6.046   0.026   1.442  1.00  0.00     0.022 C 
HETATM   51  C51 UNL     1      -6.197   1.492   1.835  1.00  0.00     0.121 C 
HETATM   52  C52 UNL     1      -4.857   3.168   2.785  1.00  0.00     0.121 C 
HETATM   53  C53 UNL     1      -4.738  -1.959  -1.633  1.00  0.00     0.240 C 
HETATM   54  C54 UNL     1      -4.428  -3.823  -3.218  1.00  0.00     0.232 C 
HETATM   55  C55 UNL     1      -5.777  -4.196  -3.816  1.00  0.00     0.158 C 
HETATM   56  O1  UNL     1       1.994  -3.591  -6.165  1.00  0.00    -0.277 OA
HETATM   57  O2  UNL     1       3.583  -3.342  -3.135  1.00  0.00    -0.272 OA
HETATM   58  O3  UNL     1       2.968  -0.185  -1.353  1.00  0.00    -0.271 OA
HETATM   59  O4  UNL     1       6.532  -1.938  -3.592  1.00  0.00    -0.650 OA
HETATM   60  O5  UNL     1       5.891  -3.392  -1.994  1.00  0.00    -0.776 OA
HETATM   61  O6  UNL     1       6.451   2.309  -0.311  1.00  0.00    -0.271 OA
HETATM   62  O7  UNL     1       2.249   1.412   1.867  1.00  0.00    -0.271 OA
HETATM   63  O8  UNL     1      -1.039   2.189   3.619  1.00  0.00    -0.271 OA
HETATM   64  O9  UNL     1      -1.695  -0.144  -0.527  1.00  0.00    -0.271 OA
HETATM   65  O10 UNL     1      -0.317  -3.572  -0.151  1.00  0.00    -0.271 OA
HETATM   66  O11 UNL     1      -4.616  -4.062   1.209  1.00  0.00    -0.271 OA
HETATM   67  O12 UNL     1      -4.751  -1.124  -2.534  1.00  0.00    -0.271 OA
HETATM   68  O13 UNL     1      -5.957  -4.604  -4.954  1.00  0.00    -0.649 OA
HETATM   69  O14 UNL     1      -6.818  -4.098  -2.962  1.00  0.00    -0.775 OA
HETATM   70  O15 UNL     1       1.291  -3.319  -8.856  1.00  0.00    -0.393 OA
HETATM   71  N1  UNL     1       0.282  -3.688  -4.601  1.00  0.00    -0.238 NA
HETATM   72  N2  UNL     1       2.138  -1.640  -3.673  1.00  0.00    -0.346 N 
HETATM   73  N3  UNL     1      -0.282   0.057  -4.345  1.00  0.00    -0.372 N 
ATOM     74  H3  UNL     1       0.254  -0.321  -5.126  1.00  0.00     0.161 HD
HETATM   75  N4  UNL     1      -2.393   0.229  -3.248  1.00  0.00    -0.279 NA
HETATM   76  N5  UNL     1      -2.246  -0.737  -5.229  1.00  0.00    -0.279 NA
HETATM   77  N6  UNL     1       5.028   0.052  -2.304  1.00  0.00    -0.346 N 
HETATM   78  N7  UNL     1       4.320   1.630   0.178  1.00  0.00    -0.346 N 
HETATM   79  N8  UNL     1       3.944   5.680   2.048  1.00  0.00    -0.372 N 
ATOM     80  H8  UNL     1       3.964   4.674   2.214  1.00  0.00     0.161 HD
HETATM   81  N9  UNL     1       4.008   7.853   3.035  1.00  0.00    -0.279 NA
HETATM   82  N10 UNL     1       4.328   6.040   4.260  1.00  0.00    -0.279 NA
HETATM   83  N11 UNL     1       2.011   3.643   2.212  1.00  0.00    -0.346 N 
HETATM   84  N12 UNL     1      -1.190   4.144   7.129  1.00  0.00    -0.372 N 
ATOM     85  H12 UNL     1      -1.042   4.691   7.977  1.00  0.00     0.161 HD
HETATM   86  N13 UNL     1      -2.727   2.830   5.868  1.00  0.00    -0.279 NA
HETATM   87  N14 UNL     1      -3.289   3.642   7.850  1.00  0.00    -0.279 NA
HETATM   88  N15 UNL     1      -0.435   2.637   1.465  1.00  0.00    -0.346 N 
HETATM   89  N16 UNL     1      -0.037  -0.144   1.034  1.00  0.00    -0.346 N 
HETATM   90  N17 UNL     1       4.232  -2.538   5.558  1.00  0.00     0.078 N 
HETATM   91  N18 UNL     1      -1.317  -2.526   1.626  1.00  0.00    -0.346 N 
HETATM   92  N19 UNL     1      -4.329   0.461   5.167  1.00  0.00     0.078 N 
HETATM   93  N20 UNL     1      -3.808  -2.013   0.617  1.00  0.00    -0.346 N 
HETATM   94  N21 UNL     1      -4.895   1.996   2.271  1.00  0.00    -0.372 N 
ATOM     95  H21 UNL     1      -4.049   1.435   2.169  1.00  0.00     0.161 HD
HETATM   96  N22 UNL     1      -5.852   4.059   2.986  1.00  0.00    -0.279 NA
HETATM   97  N23 UNL     1      -3.691   3.680   3.230  1.00  0.00    -0.279 NA
HETATM   98  N24 UNL     1      -4.512  -3.301  -1.866  1.00  0.00    -0.349 N 
HETATM   99  N25 UNL     1      -0.081  -1.544  -7.108  1.00  0.00     0.094 N 
HETATM  100  H70 UNL     1       5.150  -3.528  -2.644  1.00  0.00     0.167 HD
HETATM  101  H71 UNL     1      -7.592  -4.369  -3.499  1.00  0.00     0.167 HD
HETATM  102  H72 UNL     1       1.981  -3.449  -8.171  1.00  0.00     0.210 HD
HETATM  103  H73 UNL     1       1.186  -1.417  -3.967  1.00  0.00     0.163 HD
HETATM  104  H74 UNL     1      -1.971   0.215  -2.320  1.00  0.00     0.126 HD
HETATM  105  H75 UNL     1      -3.243  -0.338  -3.203  1.00  0.00     0.126 HD
HETATM  106  H76 UNL     1      -3.127  -0.277  -5.423  1.00  0.00     0.126 HD
HETATM  107  H77 UNL     1      -1.698  -0.817  -6.088  1.00  0.00     0.126 HD
HETATM  108  H78 UNL     1       5.569  -0.195  -3.133  1.00  0.00     0.163 HD
HETATM  109  H79 UNL     1       3.610   0.932  -0.059  1.00  0.00     0.163 HD
HETATM  110  H80 UNL     1       3.585   8.274   2.217  1.00  0.00     0.126 HD
HETATM  111  H81 UNL     1       3.594   8.220   3.884  1.00  0.00     0.126 HD
HETATM  112  H82 UNL     1       5.029   6.590   4.744  1.00  0.00     0.126 HD
HETATM  113  H83 UNL     1       4.620   5.067   4.230  1.00  0.00     0.126 HD
HETATM  114  H84 UNL     1       2.611   4.472   2.279  1.00  0.00     0.163 HD
HETATM  115  H85 UNL     1      -3.357   2.052   6.084  1.00  0.00     0.126 HD
HETATM  116  H86 UNL     1      -1.991   2.484   5.251  1.00  0.00     0.126 HD
HETATM  117  H87 UNL     1      -4.204   3.781   7.444  1.00  0.00     0.126 HD
HETATM  118  H88 UNL     1      -3.065   4.352   8.538  1.00  0.00     0.126 HD
HETATM  119  H89 UNL     1       0.317   2.982   0.881  1.00  0.00     0.163 HD
HETATM  120  H90 UNL     1       0.632   0.501   1.461  1.00  0.00     0.163 HD
HETATM  121  H91 UNL     1       4.839  -1.741   5.370  1.00  0.00     0.312 HD
HETATM  122  H92 UNL     1       4.126  -2.587   6.570  1.00  0.00     0.312 HD
HETATM  123  H93 UNL     1      -1.411  -1.620   2.073  1.00  0.00     0.163 HD
HETATM  124  H94 UNL     1      -4.307   0.849   4.213  1.00  0.00     0.312 HD
HETATM  125  H95 UNL     1      -5.256   0.037   5.234  1.00  0.00     0.312 HD
HETATM  126  H96 UNL     1      -2.939  -1.556   0.343  1.00  0.00     0.163 HD
HETATM  127  H97 UNL     1      -5.528   5.015   2.893  1.00  0.00     0.126 HD
HETATM  128  H98 UNL     1      -6.683   3.898   2.433  1.00  0.00     0.126 HD
HETATM  129  H99 UNL     1      -3.759   3.981   4.202  1.00  0.00     0.126 HD
HETATM  130  HA0 UNL     1      -2.962   2.968   3.218  1.00  0.00     0.126 HD
HETATM  131  HA1 UNL     1      -4.779  -3.944  -1.124  1.00  0.00     0.163 HD
HETATM  132  HA2 UNL     1       0.720  -1.396  -7.732  1.00  0.00     0.314 HD
HETATM  133  HA3 UNL     1       0.213  -1.136  -6.209  1.00  0.00     0.314 HD
ENDROOT
TORSDOF 54
