REMARK  24 active torsions:
REMARK  status: ('A' for Active; 'I' for Inactive)
REMARK    1  A    between atoms: C4_4  and  O3_117 
REMARK    2  A    between atoms: C5_5  and  C7_7 
REMARK    3  A    between atoms: C8_8  and  C9_9 
REMARK       I    between atoms: C8_8  and  N2_91 
REMARK    4  A    between atoms: C14_14  and  O2_116 
REMARK    5  A    between atoms: C15_15  and  O3_117 
REMARK    6  A    between atoms: C26_26  and  O10_124 
REMARK    7  A    between atoms: C33_33  and  O4_118 
REMARK    8  A    between atoms: C37_37  and  O4_118 
REMARK    9  A    between atoms: C42_42  and  C43_43 
REMARK   10  A    between atoms: C44_44  and  C45_45 
REMARK       I    between atoms: C44_44  and  N7_99 
REMARK   11  A    between atoms: C50_50  and  O6_120 
REMARK   12  A    between atoms: C55_55  and  O7_121 
REMARK   13  A    between atoms: C59_59  and  O7_121 
REMARK   14  A    between atoms: C64_64  and  C65_65 
REMARK   15  A    between atoms: C66_66  and  C67_67 
REMARK       I    between atoms: C66_66  and  N11_106 
REMARK   16  A    between atoms: C72_72  and  O9_123 
REMARK   17  A    between atoms: C75_75  and  O10_124 
REMARK   18  A    between atoms: C80_80  and  C81_81 
REMARK   19  A    between atoms: C82_82  and  C83_83 
REMARK       I    between atoms: C82_82  and  N16_114 
REMARK   20  A    between atoms: C88_88  and  O12_126 
REMARK   21  A    between atoms: N1_89  and  N2_91 
REMARK   22  A    between atoms: N6_97  and  N7_99 
REMARK   23  A    between atoms: N10_104  and  N11_106 
REMARK   24  A    between atoms: N15_112  and  N16_114 
ROOT
HETATM    1  C15 UNL     1      -3.830  -3.680   1.230  1.00  0.00     0.077 A 
HETATM    2  C16 UNL     1      -3.440  -2.350   1.068  1.00  0.00     0.053 A 
HETATM    3  C17 UNL     1      -2.403  -2.066   0.198  1.00  0.00     0.025 A 
HETATM    4  C18 UNL     1      -1.775  -3.094  -0.505  1.00  0.00     0.022 A 
HETATM    5  C19 UNL     1      -2.136  -4.422  -0.333  1.00  0.00     0.019 A 
HETATM    6  C20 UNL     1      -3.166  -4.722   0.560  1.00  0.00     0.038 A 
HETATM    7  C21 UNL     1      -0.710  -2.480  -1.288  1.00  0.00     0.119 A 
HETATM    8  C22 UNL     1       1.292  -2.743  -2.579  1.00  0.00     0.119 A 
HETATM    9  C23 UNL     1       2.199  -3.415  -3.371  1.00  0.00     0.022 A 
HETATM   10  C24 UNL     1       2.108  -4.737  -3.810  1.00  0.00     0.019 A 
HETATM   11  C25 UNL     1       3.287  -5.146  -4.478  1.00  0.00     0.038 A 
HETATM   12  C26 UNL     1       4.417  -4.275  -4.692  1.00  0.00     0.077 A 
HETATM   13  C27 UNL     1       4.456  -2.907  -4.345  1.00  0.00     0.053 A 
HETATM   14  C28 UNL     1       3.322  -2.551  -3.622  1.00  0.00     0.025 A 
HETATM   15  C29 UNL     1       3.152  -1.375  -2.925  1.00  0.00     0.119 A 
HETATM   16  C30 UNL     1       3.849   0.759  -2.091  1.00  0.00     0.119 A 
HETATM   17  C31 UNL     1       4.907   1.731  -1.836  1.00  0.00     0.025 A 
HETATM   18  C32 UNL     1       4.351   2.756  -1.063  1.00  0.00     0.056 A 
HETATM   19  C33 UNL     1       5.125   3.876  -0.766  1.00  0.00     0.091 A 
HETATM   20  C34 UNL     1       6.480   3.894  -1.157  1.00  0.00     0.038 A 
HETATM   21  C35 UNL     1       7.031   2.834  -1.893  1.00  0.00     0.004 A 
HETATM   22  C36 UNL     1       6.232   1.749  -2.249  1.00  0.00     0.016 A 
HETATM   23  C51 UNL     1       2.956   2.349  -0.831  1.00  0.00     0.122 A 
HETATM   24  C52 UNL     1       0.791   2.711   0.133  1.00  0.00     0.119 A 
HETATM   25  C53 UNL     1      -0.200   3.520   0.644  1.00  0.00     0.025 A 
HETATM   26  C54 UNL     1      -1.454   2.789   0.696  1.00  0.00     0.056 A 
HETATM   27  C55 UNL     1      -2.655   3.422   1.098  1.00  0.00     0.091 A 
HETATM   28  C56 UNL     1      -2.473   4.770   1.508  1.00  0.00     0.038 A 
HETATM   29  C57 UNL     1      -1.219   5.455   1.469  1.00  0.00     0.004 A 
HETATM   30  C58 UNL     1      -0.028   4.858   1.015  1.00  0.00     0.016 A 
HETATM   31  C73 UNL     1      -1.189   1.476   0.325  1.00  0.00     0.122 A 
HETATM   32  C74 UNL     1      -1.696  -0.830  -0.141  1.00  0.00     0.119 A 
HETATM   33  N3  UNL     1       0.119  -3.236  -2.067  1.00  0.00    -0.327 N 
ATOM     34  H3  UNL     1      -0.143  -4.200  -2.275  1.00  0.00     0.169 HD
HETATM   35  N4  UNL     1       1.882  -1.492  -2.338  1.00  0.00    -0.327 N 
HETATM   36  N5  UNL     1       4.082  -0.377  -2.796  1.00  0.00    -0.327 N 
ATOM     37  H5  UNL     1       4.988  -0.493  -3.249  1.00  0.00     0.169 HD
HETATM   38  N8  UNL     1       2.701   1.177  -1.490  1.00  0.00    -0.327 N 
ATOM     39  H8  UNL     1       1.802   0.697  -1.525  1.00  0.00     0.169 HD
HETATM   40  N9  UNL     1       2.091   3.088  -0.092  1.00  0.00    -0.327 N 
ATOM     41  H9  UNL     1       2.422   3.963   0.315  1.00  0.00     0.169 HD
HETATM   42  N12 UNL     1      -2.015   0.377   0.412  1.00  0.00    -0.327 N 
ATOM     43  H12 UNL     1      -2.901   0.469   0.910  1.00  0.00     0.169 HD
HETATM   44  N13 UNL     1      -0.699  -1.127  -1.039  1.00  0.00    -0.327 N 
ATOM     45  H13 UNL     1      -0.055  -0.453  -1.454  1.00  0.00     0.169 HD
HETATM   46  N14 UNL     1       0.159   1.479  -0.087  1.00  0.00    -0.327 N 
HETATM   47  H50 UNL     1       1.447  -0.783  -1.753  1.00  0.00     0.169 HD
HETATM   48  H53 UNL     1       0.609   0.661  -0.490  1.00  0.00     0.169 HD
ENDROOT
BRANCH   1  49
HETATM   49  O3  UNL     1      -4.820  -3.992   2.141  1.00  0.00    -0.310 OA
BRANCH  49  50
HETATM   50  C4  UNL     1      -6.110  -3.834   1.681  1.00  0.00     0.087 A 
HETATM   51  C3  UNL     1      -6.572  -4.591   0.596  1.00  0.00     0.038 A 
HETATM   52  C2  UNL     1      -7.906  -4.510   0.190  1.00  0.00     0.003 A 
HETATM   53  C1  UNL     1      -8.794  -3.687   0.878  1.00  0.00     0.001 A 
HETATM   54  C6  UNL     1      -8.343  -2.935   1.964  1.00  0.00     0.015 A 
HETATM   55  C5  UNL     1      -7.000  -3.002   2.367  1.00  0.00     0.015 A 
BRANCH  55  56
HETATM   56  C7  UNL     1      -6.533  -2.108   3.448  1.00  0.00     0.121 C 
HETATM   57  N1  UNL     1      -7.376  -1.477   4.212  1.00  0.00    -0.308 N 
ATOM     58  H1  UNL     1      -8.375  -1.683   4.231  1.00  0.00     0.186 HD
BRANCH  57  59
HETATM   59  N2  UNL     1      -6.794  -0.507   4.991  1.00  0.00    -0.266 N 
HETATM   60  C8  UNL     1      -7.573   0.190   5.897  1.00  0.00     0.272 C 
HETATM   61  O1  UNL     1      -8.694  -0.153   6.291  1.00  0.00    -0.266 OA
HETATM   62  H49 UNL     1      -5.845  -0.192   4.726  1.00  0.00     0.190 HD
BRANCH  60  63
HETATM   63  C9  UNL     1      -6.999   1.427   6.497  1.00  0.00     0.066 A 
HETATM   64  C10 UNL     1      -6.075   2.222   5.812  1.00  0.00     0.020 A 
HETATM   65  C11 UNL     1      -5.530   3.359   6.415  1.00  0.00     0.001 A 
HETATM   66  C12 UNL     1      -5.928   3.732   7.698  1.00  0.00     0.003 A 
HETATM   67  C13 UNL     1      -6.887   2.979   8.374  1.00  0.00     0.037 A 
HETATM   68  C14 UNL     1      -7.426   1.842   7.772  1.00  0.00     0.081 A 
BRANCH  68  69
HETATM   69  O2  UNL     1      -8.389   1.173   8.490  1.00  0.00    -0.360 OA
HETATM   70  H55 UNL     1      -8.743   0.484   7.880  1.00  0.00     0.217 HD
ENDBRANCH  68  69
ENDBRANCH  60  63
ENDBRANCH  57  59
ENDBRANCH  55  56
ENDBRANCH  49  50
ENDBRANCH   1  49
BRANCH  27  71
HETATM   71  O7  UNL     1      -3.958   2.946   1.109  1.00  0.00    -0.309 OA
BRANCH  71  72
HETATM   72  C59 UNL     1      -4.344   2.179   0.036  1.00  0.00     0.087 A 
HETATM   73  C60 UNL     1      -4.012   2.509  -1.285  1.00  0.00     0.038 A 
HETATM   74  C61 UNL     1      -4.391   1.675  -2.339  1.00  0.00     0.003 A 
HETATM   75  C62 UNL     1      -5.147   0.532  -2.090  1.00  0.00     0.001 A 
HETATM   76  C63 UNL     1      -5.527   0.225  -0.784  1.00  0.00     0.015 A 
HETATM   77  C64 UNL     1      -5.107   1.039   0.279  1.00  0.00     0.015 A 
BRANCH  77  78
HETATM   78  C65 UNL     1      -5.606   0.684   1.611  1.00  0.00     0.121 C 
HETATM   79  N10 UNL     1      -5.049   0.566   2.781  1.00  0.00    -0.308 N 
ATOM     80  H10 UNL     1      -5.628   0.400   3.604  1.00  0.00     0.186 HD
BRANCH  79  81
HETATM   81  N11 UNL     1      -3.681   0.664   2.913  1.00  0.00    -0.266 N 
HETATM   82  C66 UNL     1      -3.168   0.519   4.195  1.00  0.00     0.272 C 
HETATM   83  O8  UNL     1      -3.886   0.247   5.176  1.00  0.00    -0.266 OA
HETATM   84  H52 UNL     1      -3.063   0.739   2.066  1.00  0.00     0.190 HD
BRANCH  82  85
HETATM   85  C67 UNL     1      -1.740   0.816   4.478  1.00  0.00     0.066 A 
HETATM   86  C68 UNL     1      -0.738   0.642   3.535  1.00  0.00     0.020 A 
HETATM   87  C69 UNL     1       0.574   1.045   3.799  1.00  0.00     0.001 A 
HETATM   88  C70 UNL     1       0.915   1.573   5.041  1.00  0.00     0.003 A 
HETATM   89  C71 UNL     1      -0.059   1.692   6.030  1.00  0.00     0.037 A 
HETATM   90  C72 UNL     1      -1.374   1.314   5.748  1.00  0.00     0.081 A 
BRANCH  90  91
HETATM   91  O9  UNL     1      -2.278   1.461   6.780  1.00  0.00    -0.360 OA
HETATM   92  H57 UNL     1      -3.104   1.045   6.442  1.00  0.00     0.217 HD
ENDBRANCH  90  91
ENDBRANCH  82  85
ENDBRANCH  79  81
ENDBRANCH  77  78
ENDBRANCH  71  72
ENDBRANCH  27  71
BRANCH  12  93
HETATM   93  O10 UNL     1       5.600  -4.770  -5.229  1.00  0.00    -0.310 OA
BRANCH  93  94
HETATM   94  C75 UNL     1       6.152  -5.879  -4.621  1.00  0.00     0.087 A 
HETATM   95  C76 UNL     1       6.510  -6.900  -5.515  1.00  0.00     0.038 A 
HETATM   96  C77 UNL     1       7.086  -8.085  -5.056  1.00  0.00     0.003 A 
HETATM   97  C78 UNL     1       7.320  -8.256  -3.694  1.00  0.00     0.001 A 
HETATM   98  C79 UNL     1       6.990  -7.236  -2.798  1.00  0.00     0.015 A 
HETATM   99  C80 UNL     1       6.420  -6.034  -3.252  1.00  0.00     0.015 A 
BRANCH  99 100
HETATM  100  C81 UNL     1       6.116  -4.993  -2.246  1.00  0.00     0.121 C 
HETATM  101  N15 UNL     1       6.118  -5.240  -0.970  1.00  0.00    -0.308 N 
ATOM    102  H15 UNL     1       6.459  -6.104  -0.550  1.00  0.00     0.186 HD
BRANCH 101 103
HETATM  103  N16 UNL     1       5.597  -4.178  -0.259  1.00  0.00    -0.266 N 
HETATM  104  C82 UNL     1       5.108  -4.372   1.025  1.00  0.00     0.272 C 
HETATM  105  O11 UNL     1       5.489  -5.260   1.795  1.00  0.00    -0.266 OA
HETATM  106  H54 UNL     1       5.125  -3.415  -0.783  1.00  0.00     0.190 HD
BRANCH 104 107
HETATM  107  C83 UNL     1       3.977  -3.464   1.400  1.00  0.00     0.066 A 
HETATM  108  C84 UNL     1       3.017  -3.969   2.295  1.00  0.00     0.020 A 
HETATM  109  C85 UNL     1       1.828  -3.272   2.514  1.00  0.00     0.001 A 
HETATM  110  C86 UNL     1       1.610  -2.062   1.860  1.00  0.00     0.003 A 
HETATM  111  C87 UNL     1       2.588  -1.519   1.029  1.00  0.00     0.037 A 
HETATM  112  C88 UNL     1       3.761  -2.222   0.786  1.00  0.00     0.081 A 
BRANCH 112 113
HETATM  113  O12 UNL     1       4.671  -1.710  -0.101  1.00  0.00    -0.360 OA
HETATM  114  H58 UNL     1       4.164  -1.074  -0.707  1.00  0.00     0.217 HD
ENDBRANCH 112 113
ENDBRANCH 104 107
ENDBRANCH 101 103
ENDBRANCH  99 100
ENDBRANCH  93  94
ENDBRANCH  12  93
BRANCH  19 115
HETATM  115  O4  UNL     1       4.580   4.965  -0.110  1.00  0.00    -0.309 OA
BRANCH 115 116
HETATM  116  C37 UNL     1       4.691   6.175  -0.764  1.00  0.00     0.087 A 
HETATM  117  C38 UNL     1       5.387   7.182  -0.085  1.00  0.00     0.038 A 
HETATM  118  C39 UNL     1       5.592   8.427  -0.685  1.00  0.00     0.003 A 
HETATM  119  C40 UNL     1       5.093   8.676  -1.965  1.00  0.00     0.001 A 
HETATM  120  C41 UNL     1       4.370   7.687  -2.636  1.00  0.00     0.015 A 
HETATM  121  C42 UNL     1       4.149   6.445  -2.028  1.00  0.00     0.015 A 
BRANCH 121 122
HETATM  122  C43 UNL     1       3.318   5.445  -2.709  1.00  0.00     0.121 C 
HETATM  123  N6  UNL     1       3.161   5.391  -4.002  1.00  0.00    -0.308 N 
ATOM    124  H6  UNL     1       3.494   6.079  -4.677  1.00  0.00     0.186 HD
BRANCH 123 125
HETATM  125  N7  UNL     1       2.466   4.240  -4.293  1.00  0.00    -0.266 N 
HETATM  126  C44 UNL     1       2.093   3.818  -5.551  1.00  0.00     0.272 C 
HETATM  127  O5  UNL     1       2.269   4.443  -6.603  1.00  0.00    -0.266 OA
HETATM  128  H51 UNL     1       2.293   3.563  -3.515  1.00  0.00     0.190 HD
BRANCH 126 129
HETATM  129  C45 UNL     1       1.432   2.466  -5.571  1.00  0.00     0.066 A 
HETATM  130  C46 UNL     1       1.409   1.745  -6.776  1.00  0.00     0.020 A 
HETATM  131  C47 UNL     1       0.880   0.449  -6.812  1.00  0.00     0.001 A 
HETATM  132  C48 UNL     1       0.361  -0.122  -5.649  1.00  0.00     0.003 A 
HETATM  133  C49 UNL     1       0.345   0.601  -4.458  1.00  0.00     0.037 A 
HETATM  134  C50 UNL     1       0.884   1.879  -4.422  1.00  0.00     0.081 A 
BRANCH 134 135
HETATM  135  O6  UNL     1       0.860   2.565  -3.243  1.00  0.00    -0.360 OA
HETATM  136  H56 UNL     1       1.232   1.966  -2.510  1.00  0.00     0.217 HD
ENDBRANCH 134 135
ENDBRANCH 126 129
ENDBRANCH 123 125
ENDBRANCH 121 122
ENDBRANCH 115 116
ENDBRANCH  19 115
TORSDOF 24
