REMARK  26 active torsions:
REMARK  status: ('A' for Active; 'I' for Inactive)
REMARK    1  A    between atoms: C2_2  and  C5_5 
REMARK    2  A    between atoms: C7_7  and  N8_54 
REMARK    3  A    between atoms: C8_8  and  S1_73 
REMARK    4  A    between atoms: C9_9  and  N1_45 
REMARK    5  A    between atoms: C11_11  and  C12_12 
REMARK       I    between atoms: C11_11  and  N1_45 
REMARK    6  A    between atoms: C12_12  and  C13_13 
REMARK    7  A    between atoms: C13_13  and  C14_14 
REMARK    8  A    between atoms: C14_14  and  C15_15 
REMARK    9  A    between atoms: C15_15  and  N2_46 
REMARK       I    between atoms: C16_16  and  N3_48 
REMARK       I    between atoms: C16_16  and  N4_49 
REMARK   10  A    between atoms: C17_17  and  C18_18 
REMARK   11  A    between atoms: C17_17  and  S1_73 
REMARK   12  A    between atoms: C18_18  and  N5_50 
REMARK       I    between atoms: C19_19  and  N6_52 
REMARK       I    between atoms: C19_19  and  N7_53 
REMARK   13  A    between atoms: C20_20  and  C21_21 
REMARK       I    between atoms: C20_20  and  N8_54 
REMARK   14  A    between atoms: C23_23  and  C25_25 
REMARK       I    between atoms: C25_25  and  N11_59 
REMARK   15  A    between atoms: C26_26  and  N11_59 
REMARK   16  A    between atoms: C27_27  and  S2_74 
REMARK   17  A    between atoms: C28_28  and  N12_60 
REMARK   18  A    between atoms: C30_30  and  C32_32 
REMARK   19  A    between atoms: C36_36  and  C37_37 
REMARK       I    between atoms: C36_36  and  N12_60 
REMARK   20  A    between atoms: C37_37  and  C38_38 
REMARK   21  A    between atoms: C38_38  and  C39_39 
REMARK   22  A    between atoms: C39_39  and  C40_40 
REMARK   23  A    between atoms: C40_40  and  N13_61 
REMARK       I    between atoms: C41_41  and  N14_63 
REMARK       I    between atoms: C41_41  and  N15_64 
REMARK   24  A    between atoms: C42_42  and  C43_43 
REMARK   25  A    between atoms: C42_42  and  S2_74 
REMARK   26  A    between atoms: C43_43  and  N16_65 
REMARK       I    between atoms: C44_44  and  N17_67 
REMARK       I    between atoms: C44_44  and  N18_68 
ROOT
HETATM    1  C21 UNL     1      -0.343  -1.219   1.409  1.00  0.00     0.104 A 
HETATM    2  C22 UNL     1       0.713  -1.454   2.255  1.00  0.00     0.070 A 
HETATM    3  C23 UNL     1       1.937  -1.509   1.636  1.00  0.00     0.104 A 
HETATM    4  C24 UNL     1       1.017  -1.144  -0.422  1.00  0.00     0.181 A 
HETATM    5  N9  UNL     1       2.118  -1.358   0.299  1.00  0.00    -0.348 N 
ATOM      6  H9  UNL     1       3.043  -1.406  -0.129  1.00  0.00     0.167 HD
HETATM    7  N10 UNL     1      -0.225  -1.058   0.063  1.00  0.00    -0.348 N 
ATOM      8  H10 UNL     1      -1.032  -0.883  -0.536  1.00  0.00     0.167 HD
ENDROOT
BRANCH   1   9
HETATM    9  C20 UNL     1      -1.734  -1.112   1.961  1.00  0.00     0.272 C 
HETATM   10  N8  UNL     1      -2.683  -0.879   0.988  1.00  0.00    -0.320 N 
HETATM   11  H58 UNL     1      -2.323  -0.818   0.035  1.00  0.00     0.169 HD
HETATM   12  O2  UNL     1      -1.919  -1.232   3.165  1.00  0.00    -0.266 OA
BRANCH  10  13
HETATM   13  C7  UNL     1      -4.076  -0.689   1.122  1.00  0.00     0.054 A 
HETATM   14  C6  UNL     1      -4.721  -0.685   2.361  1.00  0.00     0.039 A 
HETATM   15  C5  UNL     1      -6.111  -0.477   2.479  1.00  0.00    -0.046 A 
HETATM   16  C10 UNL     1      -6.843  -0.266   1.296  1.00  0.00     0.039 A 
HETATM   17  C9  UNL     1      -6.231  -0.268   0.037  1.00  0.00     0.054 A 
HETATM   18  C8  UNL     1      -4.838  -0.490  -0.049  1.00  0.00     0.054 A 
BRANCH  15  19
HETATM   19  C2  UNL     1      -6.771  -0.480   3.872  1.00  0.00    -0.024 C 
HETATM   20  C1  UNL     1      -8.299  -0.247   3.847  1.00  0.00     0.019 C 
HETATM   21  C3  UNL     1      -6.533  -1.845   4.556  1.00  0.00     0.019 C 
HETATM   22  C4  UNL     1      -6.156   0.639   4.741  1.00  0.00     0.019 C 
ENDBRANCH  15  19
BRANCH  17  23
HETATM   23  N1  UNL     1      -6.950  -0.061  -1.169  1.00  0.00    -0.326 N 
HETATM   24  C11 UNL     1      -8.303   0.162  -1.341  1.00  0.00     0.222 C 
HETATM   25  O1  UNL     1      -9.150   0.238  -0.458  1.00  0.00    -0.273 OA
HETATM   26  H49 UNL     1      -6.379  -0.099  -2.013  1.00  0.00     0.169 HD
BRANCH  24  27
HETATM   27  C12 UNL     1      -8.656   0.277  -2.817  1.00  0.00     0.103 C 
BRANCH  27  28
HETATM   28  C13 UNL     1     -10.098   0.706  -3.079  1.00  0.00     0.011 C 
BRANCH  28  29
HETATM   29  C14 UNL     1     -10.322   2.195  -2.788  1.00  0.00     0.020 C 
BRANCH  29  30
HETATM   30  C15 UNL     1     -11.768   2.623  -3.037  1.00  0.00     0.121 C 
BRANCH  30  31
HETATM   31  N2  UNL     1     -12.048   2.554  -4.470  1.00  0.00    -0.372 N 
HETATM   32  C16 UNL     1     -13.240   2.807  -4.859  1.00  0.00     0.121 C 
HETATM   33  N3  UNL     1     -13.548   2.736  -6.172  1.00  0.00    -0.279 NA
HETATM   34  N4  UNL     1     -14.335   3.149  -4.146  1.00  0.00    -0.279 NA
HETATM   35  H50 UNL     1     -14.397   2.207  -6.333  1.00  0.00     0.126 HD
HETATM   36  H51 UNL     1     -12.772   2.322  -6.679  1.00  0.00     0.126 HD
HETATM   37  H52 UNL     1     -14.903   3.836  -4.628  1.00  0.00     0.126 HD
HETATM   38  H53 UNL     1     -14.137   3.448  -3.200  1.00  0.00     0.126 HD
ATOM     39  H2  UNL     1     -11.316   2.312  -5.138  1.00  0.00     0.161 HD
ENDBRANCH  30  31
ENDBRANCH  29  30
ENDBRANCH  28  29
ENDBRANCH  27  28
ENDBRANCH  24  27
ENDBRANCH  17  23
BRANCH  18  40
HETATM   40  S1  UNL     1      -4.018  -0.504  -1.664  1.00  0.00    -0.124 SA
BRANCH  40  41
HETATM   41  C17 UNL     1      -4.554  -2.160  -2.240  1.00  0.00     0.099 C 
BRANCH  41  42
HETATM   42  C18 UNL     1      -4.609  -2.215  -3.768  1.00  0.00     0.132 C 
BRANCH  42  43
HETATM   43  N5  UNL     1      -5.685  -1.346  -4.266  1.00  0.00    -0.371 N 
HETATM   44  C19 UNL     1      -5.855  -1.296  -5.534  1.00  0.00     0.121 C 
HETATM   45  N6  UNL     1      -6.829  -0.529  -6.068  1.00  0.00    -0.279 NA
HETATM   46  N7  UNL     1      -5.186  -1.926  -6.526  1.00  0.00    -0.279 NA
HETATM   47  H54 UNL     1      -7.360  -1.015  -6.781  1.00  0.00     0.126 HD
HETATM   48  H55 UNL     1      -7.449  -0.174  -5.350  1.00  0.00     0.126 HD
HETATM   49  H56 UNL     1      -4.294  -2.319  -6.257  1.00  0.00     0.126 HD
HETATM   50  H57 UNL     1      -5.087  -1.343  -7.349  1.00  0.00     0.126 HD
ATOM     51  H5  UNL     1      -6.271  -0.806  -3.629  1.00  0.00     0.161 HD
ENDBRANCH  42  43
ENDBRANCH  41  42
ENDBRANCH  40  41
ENDBRANCH  18  40
ENDBRANCH  10  13
ENDBRANCH   1   9
BRANCH   3  52
HETATM   52  C25 UNL     1       3.176  -1.749   2.445  1.00  0.00     0.272 C 
HETATM   53  N11 UNL     1       4.334  -1.565   1.722  1.00  0.00    -0.320 N 
HETATM   54  H59 UNL     1       4.196  -1.223   0.768  1.00  0.00     0.169 HD
HETATM   55  O3  UNL     1       3.077  -2.066   3.624  1.00  0.00    -0.266 OA
BRANCH  53  56
HETATM   56  C26 UNL     1       5.679  -1.700   2.127  1.00  0.00     0.054 A 
HETATM   57  C27 UNL     1       6.686  -1.352   1.202  1.00  0.00     0.054 A 
HETATM   58  C28 UNL     1       8.047  -1.461   1.559  1.00  0.00     0.054 A 
HETATM   59  C29 UNL     1       8.380  -1.913   2.838  1.00  0.00     0.039 A 
HETATM   60  C30 UNL     1       7.395  -2.269   3.784  1.00  0.00    -0.046 A 
HETATM   61  C31 UNL     1       6.046  -2.152   3.400  1.00  0.00     0.039 A 
BRANCH  57  62
HETATM   62  S2  UNL     1       6.220  -0.786  -0.458  1.00  0.00    -0.124 SA
BRANCH  62  63
HETATM   63  C42 UNL     1       6.463   1.018  -0.255  1.00  0.00     0.099 C 
BRANCH  63  64
HETATM   64  C43 UNL     1       5.483   1.712   0.690  1.00  0.00     0.132 C 
BRANCH  64  65
HETATM   65  N16 UNL     1       4.096   1.577   0.241  1.00  0.00    -0.371 N 
HETATM   66  C44 UNL     1       3.624   2.423  -0.591  1.00  0.00     0.121 C 
HETATM   67  N17 UNL     1       4.206   3.470  -1.216  1.00  0.00    -0.279 NA
HETATM   68  N18 UNL     1       2.324   2.341  -0.951  1.00  0.00    -0.279 NA
HETATM   69  H65 UNL     1       3.843   3.608  -2.151  1.00  0.00     0.126 HD
HETATM   70  H66 UNL     1       5.224   3.462  -1.229  1.00  0.00     0.126 HD
HETATM   71  H67 UNL     1       1.863   3.243  -0.902  1.00  0.00     0.126 HD
HETATM   72  H68 UNL     1       1.855   1.686  -0.332  1.00  0.00     0.126 HD
ATOM     73  H16 UNL     1       3.513   0.816   0.589  1.00  0.00     0.161 HD
ENDBRANCH  64  65
ENDBRANCH  63  64
ENDBRANCH  62  63
ENDBRANCH  57  62
BRANCH  58  74
HETATM   74  N12 UNL     1       9.015  -1.078   0.602  1.00  0.00    -0.326 N 
HETATM   75  C36 UNL     1      10.390  -1.051   0.714  1.00  0.00     0.222 C 
HETATM   76  O4  UNL     1      11.064  -1.474   1.646  1.00  0.00    -0.273 OA
HETATM   77  H60 UNL     1       8.619  -0.766  -0.279  1.00  0.00     0.169 HD
BRANCH  75  78
HETATM   78  C37 UNL     1      11.036  -0.350  -0.467  1.00  0.00     0.103 C 
BRANCH  78  79
HETATM   79  C38 UNL     1      11.052   1.160  -0.228  1.00  0.00     0.011 C 
BRANCH  79  80
HETATM   80  C39 UNL     1      11.327   1.970  -1.499  1.00  0.00     0.020 C 
BRANCH  80  81
HETATM   81  C40 UNL     1      10.116   2.100  -2.428  1.00  0.00     0.121 C 
BRANCH  81  82
HETATM   82  N13 UNL     1       9.082   2.885  -1.755  1.00  0.00    -0.372 N 
HETATM   83  C41 UNL     1       8.119   3.358  -2.448  1.00  0.00     0.121 C 
HETATM   84  N14 UNL     1       7.184   4.134  -1.849  1.00  0.00    -0.279 NA
HETATM   85  N15 UNL     1       7.846   3.227  -3.763  1.00  0.00    -0.279 NA
HETATM   86  H61 UNL     1       7.030   4.984  -2.385  1.00  0.00     0.126 HD
HETATM   87  H62 UNL     1       7.532   4.392  -0.926  1.00  0.00     0.126 HD
HETATM   88  H63 UNL     1       8.365   2.493  -4.230  1.00  0.00     0.126 HD
HETATM   89  H64 UNL     1       6.856   3.147  -3.963  1.00  0.00     0.126 HD
ATOM     90  H13 UNL     1       9.129   3.052  -0.750  1.00  0.00     0.161 HD
ENDBRANCH  81  82
ENDBRANCH  80  81
ENDBRANCH  79  80
ENDBRANCH  78  79
ENDBRANCH  75  78
ENDBRANCH  58  74
BRANCH  60  91
HETATM   91  C32 UNL     1       7.818  -2.763   5.182  1.00  0.00    -0.024 C 
HETATM   92  C33 UNL     1       8.638  -1.665   5.894  1.00  0.00     0.019 C 
HETATM   93  C34 UNL     1       8.682  -4.035   5.043  1.00  0.00     0.019 C 
HETATM   94  C35 UNL     1       6.633  -3.117   6.109  1.00  0.00     0.019 C 
ENDBRANCH  60  91
ENDBRANCH  53  56
ENDBRANCH   3  52
TORSDOF 26
