REMARK  13 active torsions:
REMARK  status: ('A' for Active; 'I' for Inactive)
REMARK    1  A    between atoms: C2_2  and  C3_3 
REMARK       I    between atoms: C3_3  and  N1_36 
REMARK    2  A    between atoms: C4_4  and  N1_36 
REMARK    3  A    between atoms: C6_6  and  C7_7 
REMARK       I    between atoms: C7_7  and  N2_37 
REMARK    4  A    between atoms: C8_8  and  N2_37 
REMARK    5  A    between atoms: C10_10  and  C11_11 
REMARK       I    between atoms: C11_11  and  N3_38 
REMARK    6  A    between atoms: C12_12  and  N3_38 
REMARK    7  A    between atoms: C14_14  and  C15_15 
REMARK       I    between atoms: C15_15  and  N4_39 
REMARK    8  A    between atoms: C16_16  and  N4_39 
REMARK    9  A    between atoms: C18_18  and  C19_19 
REMARK       I    between atoms: C19_19  and  N5_40 
REMARK   10  A    between atoms: C20_20  and  C21_21 
REMARK   11  A    between atoms: C20_20  and  N5_40 
REMARK   12  A    between atoms: C21_21  and  C22_22 
REMARK   13  A    between atoms: C22_22  and  N6_41 
ROOT
HETATM    1  C12 UNL     1       0.484  -1.294  -0.693  1.00  0.00     0.053 A 
HETATM    2  C13 UNL     1       1.615  -0.483  -0.441  1.00  0.00     0.066 A 
HETATM    3  C14 UNL     1       2.715  -1.305  -0.235  1.00  0.00     0.105 A 
HETATM    4  C25 UNL     1       3.097  -3.787  -0.513  1.00  0.00     0.156 C 
HETATM    5  C26 UNL     1       0.923  -2.596  -0.679  1.00  0.00     0.120 A 
HETATM    6  N9  UNL     1       2.275  -2.597  -0.445  1.00  0.00    -0.354 N 
ENDROOT
BRANCH   1   7
HETATM    7  N3  UNL     1      -0.793  -0.825  -0.925  1.00  0.00    -0.320 N 
HETATM    8  C11 UNL     1      -1.923  -1.600  -1.104  1.00  0.00     0.273 C 
HETATM    9  O3  UNL     1      -1.977  -2.818  -0.976  1.00  0.00    -0.266 OA
HETATM   10  H30 UNL     1      -0.912   0.178  -0.884  1.00  0.00     0.169 HD
BRANCH   8  11
HETATM   11  C10 UNL     1      -3.108  -0.814  -1.405  1.00  0.00     0.105 A 
HETATM   12  C9  UNL     1      -4.371  -0.983  -0.855  1.00  0.00     0.066 A 
HETATM   13  C8  UNL     1      -5.237  -0.002  -1.393  1.00  0.00     0.053 A 
HETATM   14  C28 UNL     1      -4.494   0.726  -2.291  1.00  0.00     0.120 A 
HETATM   15  N10 UNL     1      -3.226   0.201  -2.333  1.00  0.00    -0.354 N 
HETATM   16  C27 UNL     1      -2.222   0.616  -3.291  1.00  0.00     0.156 C 
BRANCH  13  17
HETATM   17  N2  UNL     1      -6.568   0.152  -1.053  1.00  0.00    -0.320 N 
HETATM   18  C7  UNL     1      -7.444   1.083  -1.584  1.00  0.00     0.273 C 
HETATM   19  O2  UNL     1      -7.150   1.890  -2.460  1.00  0.00    -0.266 OA
HETATM   20  H29 UNL     1      -6.926  -0.516  -0.389  1.00  0.00     0.169 HD
BRANCH  18  21
HETATM   21  C6  UNL     1      -8.790   1.018  -1.015  1.00  0.00     0.105 A 
HETATM   22  C5  UNL     1      -9.245   0.406   0.151  1.00  0.00     0.066 A 
HETATM   23  C4  UNL     1     -10.639   0.629   0.276  1.00  0.00     0.052 A 
HETATM   24  C30 UNL     1     -11.015   1.376  -0.810  1.00  0.00     0.120 A 
HETATM   25  N11 UNL     1      -9.904   1.620  -1.577  1.00  0.00    -0.354 N 
HETATM   26  C29 UNL     1      -9.931   2.384  -2.808  1.00  0.00     0.156 C 
BRANCH  23  27
HETATM   27  N1  UNL     1     -11.430   0.167   1.313  1.00  0.00    -0.322 N 
HETATM   28  C3  UNL     1     -12.789   0.381   1.436  1.00  0.00     0.244 C 
HETATM   29  O1  UNL     1     -13.517   0.996   0.669  1.00  0.00    -0.268 OA
HETATM   30  H28 UNL     1     -10.951  -0.364   2.025  1.00  0.00     0.169 HD
BRANCH  28  31
HETATM   31  C2  UNL     1     -13.334  -0.249   2.675  1.00  0.00     0.064 C 
HETATM   32  C1  UNL     1     -14.637  -0.156   2.973  1.00  0.00     0.017 C 
ENDBRANCH  28  31
ENDBRANCH  23  27
ENDBRANCH  18  21
ENDBRANCH  13  17
ENDBRANCH   8  11
ENDBRANCH   1   7
BRANCH   3  33
HETATM   33  C15 UNL     1       4.067  -0.875   0.075  1.00  0.00     0.273 C 
HETATM   34  O4  UNL     1       4.586   0.079  -0.495  1.00  0.00    -0.266 OA
HETATM   35  N4  UNL     1       4.649  -1.607   1.091  1.00  0.00    -0.320 N 
HETATM   36  H31 UNL     1       4.068  -2.255   1.604  1.00  0.00     0.169 HD
BRANCH  35  37
HETATM   37  C16 UNL     1       5.940  -1.443   1.551  1.00  0.00     0.053 A 
HETATM   38  C17 UNL     1       6.979  -0.608   1.079  1.00  0.00     0.066 A 
HETATM   39  C18 UNL     1       8.104  -0.791   1.876  1.00  0.00     0.104 A 
HETATM   40  N8  UNL     1       7.750  -1.751   2.809  1.00  0.00    -0.354 N 
HETATM   41  C23 UNL     1       8.608  -2.273   3.854  1.00  0.00     0.156 C 
HETATM   42  C24 UNL     1       6.448  -2.142   2.619  1.00  0.00     0.120 A 
BRANCH  39  43
HETATM   43  C19 UNL     1       9.413  -0.160   1.795  1.00  0.00     0.268 C 
HETATM   44  O5  UNL     1      10.385  -0.533   2.446  1.00  0.00    -0.266 OA
HETATM   45  N5  UNL     1       9.486   0.919   0.938  1.00  0.00    -0.355 N 
HETATM   46  H32 UNL     1       8.610   1.319   0.629  1.00  0.00     0.162 HD
BRANCH  45  47
HETATM   47  C20 UNL     1      10.670   1.753   0.882  1.00  0.00     0.130 C 
BRANCH  47  48
HETATM   48  C21 UNL     1      10.755   2.518  -0.430  1.00  0.00     0.095 C 
BRANCH  48  49
HETATM   49  C22 UNL     1      12.013   3.352  -0.458  1.00  0.00     0.069 C 
HETATM   50  N7  UNL     1      13.152   2.834  -0.987  1.00  0.00    -0.389 N 
HETATM   51  H34 UNL     1      13.286   1.831  -0.941  1.00  0.00     0.157 HD
HETATM   52  H35 UNL     1      13.977   3.372  -0.738  1.00  0.00     0.157 HD
BRANCH  49  53
HETATM   53  N6  UNL     1      12.047   4.546   0.032  1.00  0.00    -0.389 N 
HETATM   54  H33 UNL     1      11.128   4.823   0.392  1.00  0.00     0.157 HD
ATOM     55  H6  UNL     1      12.879   5.136   0.058  1.00  0.00     0.157 HD
ENDBRANCH  49  53
ENDBRANCH  48  49
ENDBRANCH  47  48
ENDBRANCH  45  47
ENDBRANCH  39  43
ENDBRANCH  35  37
ENDBRANCH   3  33
TORSDOF 13
