REMARK  12 active torsions:
REMARK  status: ('A' for Active; 'I' for Inactive)
REMARK    1  A    between atoms: C3_3  and  C25_25 
REMARK    2  A    between atoms: C5_5  and  N2_30 
REMARK    3  A    between atoms: C6_6  and  C7_7 
REMARK       I    between atoms: C6_6  and  N2_30 
REMARK    4  A    between atoms: C9_9  and  N4_32 
REMARK    5  A    between atoms: C11_11  and  C12_12 
REMARK       I    between atoms: C11_11  and  N4_32 
REMARK    6  A    between atoms: C14_14  and  N7_36 
REMARK    7  A    between atoms: C15_15  and  C16_16 
REMARK       I    between atoms: C15_15  and  N7_36 
REMARK    8  A    between atoms: C18_18  and  N10_40 
REMARK    9  A    between atoms: C19_19  and  C20_20 
REMARK       I    between atoms: C19_19  and  N10_40 
REMARK       I    between atoms: C25_25  and  N11_41 
REMARK   10  A    between atoms: C26_26  and  C27_27 
REMARK   11  A    between atoms: C26_26  and  N11_41 
REMARK   12  A    between atoms: C27_27  and  N12_42 
REMARK       I    between atoms: C28_28  and  N12_42 
REMARK       I    between atoms: C28_28  and  N13_44 
REMARK       I    between atoms: C28_28  and  N14_45 
ROOT
HETATM    1  C7  UNL     1      -2.029  -0.218   0.470  1.00  0.00     0.109 A 
HETATM    2  C8  UNL     1      -0.834  -0.262  -0.254  1.00  0.00    -0.002 A 
HETATM    3  C9  UNL     1       0.231  -0.033   0.674  1.00  0.00     0.059 A 
HETATM    4  C10 UNL     1      -0.348   0.186   1.906  1.00  0.00     0.118 A 
HETATM    5  C24 UNL     1      -0.749  -0.473  -1.729  1.00  0.00     0.053 C 
HETATM    6  N3  UNL     1      -1.698   0.027   1.783  1.00  0.00    -0.359 N 
HETATM    7  H23 UNL     1      -2.359   0.047   2.549  1.00  0.00     0.165 HD
ENDROOT
BRANCH   3   8
HETATM    8  N4  UNL     1       1.608   0.027   0.538  1.00  0.00    -0.320 N 
HETATM    9  C11 UNL     1       2.370  -0.456  -0.508  1.00  0.00     0.274 C 
HETATM   10  O2  UNL     1       1.964  -1.143  -1.434  1.00  0.00    -0.266 OA
HETATM   11  H24 UNL     1       2.107   0.278   1.381  1.00  0.00     0.169 HD
BRANCH   9  12
HETATM   12  C12 UNL     1       3.766  -0.098  -0.378  1.00  0.00     0.126 A 
HETATM   13  C13 UNL     1       4.925  -0.827  -0.625  1.00  0.00     0.017 A 
HETATM   14  C14 UNL     1       5.987   0.072  -0.310  1.00  0.00     0.131 A 
HETATM   15  C23 UNL     1       4.987  -2.230  -1.112  1.00  0.00     0.055 C 
HETATM   16  N5  UNL     1       5.520   1.274   0.037  1.00  0.00    -0.284 N 
HETATM   17  N6  UNL     1       4.193   1.152  -0.039  1.00  0.00    -0.293 N 
ATOM     18  H5  UNL     1       6.057   2.100   0.301  1.00  0.00     0.188 HD
HETATM   19  H25 UNL     1       3.624   1.974   0.139  1.00  0.00     0.187 HD
BRANCH  14  20
HETATM   20  N7  UNL     1       7.355  -0.049  -0.320  1.00  0.00    -0.306 N 
HETATM   21  C15 UNL     1       8.118  -1.178  -0.434  1.00  0.00     0.275 C 
HETATM   22  O3  UNL     1       7.696  -2.328  -0.436  1.00  0.00    -0.266 OA
HETATM   23  H26 UNL     1       7.807   0.824  -0.092  1.00  0.00     0.170 HD
BRANCH  21  24
HETATM   24  C16 UNL     1       9.544  -0.933  -0.462  1.00  0.00     0.126 A 
HETATM   25  C17 UNL     1      10.352   0.143  -0.826  1.00  0.00     0.017 A 
HETATM   26  C18 UNL     1      11.678  -0.288  -0.513  1.00  0.00     0.131 A 
HETATM   27  C22 UNL     1       9.918   1.417  -1.458  1.00  0.00     0.055 C 
HETATM   28  N8  UNL     1      11.698  -1.564  -0.122  1.00  0.00    -0.284 N 
HETATM   29  N9  UNL     1      10.413  -1.930  -0.117  1.00  0.00    -0.293 N 
ATOM     30  H8  UNL     1      12.511  -2.132   0.119  1.00  0.00     0.188 HD
HETATM   31  H27 UNL     1      10.170  -2.880   0.149  1.00  0.00     0.187 HD
BRANCH  26  32
HETATM   32  N10 UNL     1      12.900   0.334  -0.566  1.00  0.00    -0.307 N 
HETATM   33  C19 UNL     1      13.180   1.669  -0.689  1.00  0.00     0.263 C 
HETATM   34  O4  UNL     1      12.357   2.576  -0.758  1.00  0.00    -0.267 OA
HETATM   35  H28 UNL     1      13.658  -0.307  -0.370  1.00  0.00     0.170 HD
BRANCH  33  36
HETATM   36  C20 UNL     1      14.660   1.980  -0.694  1.00  0.00     0.069 C 
HETATM   37  C21 UNL     1      15.049   3.260  -0.798  1.00  0.00     0.037 C 
HETATM   38 BR1  UNL     1      15.923   0.606  -0.561  1.00  0.00    -0.046 Br
ENDBRANCH  33  36
ENDBRANCH  26  32
ENDBRANCH  21  24
ENDBRANCH  14  20
ENDBRANCH   9  12
ENDBRANCH   3   8
BRANCH   1  39
HETATM   39  C6  UNL     1      -3.393  -0.436   0.005  1.00  0.00     0.273 C 
HETATM   40  N2  UNL     1      -4.306   0.398   0.629  1.00  0.00    -0.320 N 
HETATM   41  H22 UNL     1      -3.946   1.155   1.187  1.00  0.00     0.169 HD
HETATM   42  O1  UNL     1      -3.662  -1.267  -0.855  1.00  0.00    -0.266 OA
BRANCH  40  43
HETATM   43  C5  UNL     1      -5.679   0.387   0.446  1.00  0.00     0.059 A 
HETATM   44  C2  UNL     1      -6.609   1.299   1.038  1.00  0.00    -0.002 A 
HETATM   45  C1  UNL     1      -6.307   2.437   1.954  1.00  0.00     0.053 C 
HETATM   46  C3  UNL     1      -7.885   0.938   0.600  1.00  0.00     0.108 A 
HETATM   47  N1  UNL     1      -7.723  -0.139  -0.243  1.00  0.00    -0.359 N 
HETATM   48  C4  UNL     1      -6.406  -0.489  -0.321  1.00  0.00     0.118 A 
HETATM   49  H21 UNL     1      -8.472  -0.583  -0.757  1.00  0.00     0.165 HD
BRANCH  46  50
HETATM   50  C25 UNL     1      -9.160   1.564   0.899  1.00  0.00     0.268 C 
HETATM   51  N11 UNL     1     -10.254   0.762   0.658  1.00  0.00    -0.354 N 
HETATM   52  H29 UNL     1     -10.120  -0.241   0.679  1.00  0.00     0.162 HD
HETATM   53  O5  UNL     1      -9.270   2.702   1.344  1.00  0.00    -0.266 OA
BRANCH  51  54
HETATM   54  C26 UNL     1     -11.583   1.170   1.073  1.00  0.00     0.142 C 
BRANCH  54  55
HETATM   55  C27 UNL     1     -12.643   0.238   0.484  1.00  0.00     0.141 C 
BRANCH  55  56
HETATM   56  N12 UNL     1     -12.308  -1.147   0.843  1.00  0.00    -0.370 N 
HETATM   57  C28 UNL     1     -13.071  -2.077   0.407  1.00  0.00     0.121 C 
HETATM   58  N13 UNL     1     -14.178  -2.003  -0.363  1.00  0.00    -0.279 NA
HETATM   59  N14 UNL     1     -12.803  -3.366   0.703  1.00  0.00    -0.279 NA
HETATM   60  H30 UNL     1     -14.590  -1.082  -0.428  1.00  0.00     0.126 HD
HETATM   61  H31 UNL     1     -14.876  -2.690  -0.098  1.00  0.00     0.126 HD
HETATM   62  H32 UNL     1     -12.862  -3.973  -0.106  1.00  0.00     0.126 HD
HETATM   63  H33 UNL     1     -11.894  -3.448   1.148  1.00  0.00     0.126 HD
ATOM     64  H12 UNL     1     -11.495  -1.360   1.420  1.00  0.00     0.161 HD
ENDBRANCH  55  56
ENDBRANCH  54  55
ENDBRANCH  51  54
ENDBRANCH  46  50
ENDBRANCH  40  43
ENDBRANCH   1  39
TORSDOF 12
