REMARK  18 active torsions:
REMARK  status: ('A' for Active; 'I' for Inactive)
REMARK    1  A    between atoms: C4_4  and  C5_5 
REMARK       I    between atoms: C5_5  and  N3_47 
REMARK    2  A    between atoms: C6_6  and  N3_47 
REMARK    3  A    between atoms: C8_8  and  C10_10 
REMARK       I    between atoms: C10_10  and  N5_49 
REMARK    4  A    between atoms: C11_11  and  N5_49 
REMARK    5  A    between atoms: C13_13  and  C15_15 
REMARK       I    between atoms: C15_15  and  N7_51 
REMARK    6  A    between atoms: C16_16  and  C17_17 
REMARK    7  A    between atoms: C16_16  and  N7_51 
REMARK    8  A    between atoms: C17_17  and  C18_18 
REMARK       I    between atoms: C18_18  and  N8_52 
REMARK    9  A    between atoms: C19_19  and  N8_52 
REMARK   10  A    between atoms: C21_21  and  C23_23 
REMARK       I    between atoms: C23_23  and  N10_54 
REMARK   11  A    between atoms: C24_24  and  N10_54 
REMARK   12  A    between atoms: C26_26  and  C28_28 
REMARK       I    between atoms: C28_28  and  N12_56 
REMARK   13  A    between atoms: C29_29  and  N12_56 
REMARK   14  A    between atoms: C32_32  and  C34_34 
REMARK       I    between atoms: C34_34  and  N14_58 
REMARK   15  A    between atoms: C35_35  and  C36_36 
REMARK   16  A    between atoms: C35_35  and  N14_58 
REMARK   17  A    between atoms: C36_36  and  C37_37 
REMARK   18  A    between atoms: C37_37  and  N15_59 
ROOT
HETATM    1  C19 UNL     1       1.325  -4.913   1.643  1.00  0.00     0.052 A 
HETATM    2  C20 UNL     1       0.822  -5.318   0.434  1.00  0.00     0.120 A 
HETATM    3  C21 UNL     1      -0.579  -3.719   1.206  1.00  0.00     0.105 A 
HETATM    4  C22 UNL     1       0.444  -3.914   2.131  1.00  0.00     0.066 A 
HETATM    5  C41 UNL     1      -1.103  -4.768  -1.034  1.00  0.00     0.156 C 
HETATM    6  N9  UNL     1      -0.312  -4.597   0.168  1.00  0.00    -0.354 N 
ENDROOT
BRANCH   1   7
HETATM    7  N8  UNL     1       2.464  -5.358   2.287  1.00  0.00    -0.326 N 
HETATM    8  C18 UNL     1       3.351  -6.301   1.790  1.00  0.00     0.223 C 
HETATM    9  O4  UNL     1       3.254  -6.900   0.723  1.00  0.00    -0.273 OA
HETATM   10  H49 UNL     1       2.680  -4.922   3.174  1.00  0.00     0.169 HD
BRANCH   8  11
HETATM   11  C17 UNL     1       4.508  -6.534   2.745  1.00  0.00     0.123 C 
BRANCH  11  12
HETATM   12  C16 UNL     1       5.579  -7.437   2.139  1.00  0.00     0.132 C 
BRANCH  12  13
HETATM   13  N7  UNL     1       6.236  -6.835   0.994  1.00  0.00    -0.355 N 
HETATM   14  C15 UNL     1       7.177  -5.841   1.141  1.00  0.00     0.268 C 
HETATM   15  O3  UNL     1       7.549  -5.464   2.249  1.00  0.00    -0.266 OA
HETATM   16  H48 UNL     1       5.719  -6.862   0.123  1.00  0.00     0.162 HD
BRANCH  14  17
HETATM   17  C13 UNL     1       7.613  -5.219  -0.093  1.00  0.00     0.104 A 
HETATM   18  C14 UNL     1       8.001  -3.892  -0.240  1.00  0.00     0.066 A 
HETATM   19  C11 UNL     1       8.316  -3.653  -1.599  1.00  0.00     0.053 A 
HETATM   20  C12 UNL     1       8.152  -4.849  -2.252  1.00  0.00     0.120 A 
HETATM   21  N6  UNL     1       7.782  -5.802  -1.334  1.00  0.00    -0.354 N 
HETATM   22  C42 UNL     1       7.695  -7.212  -1.652  1.00  0.00     0.156 C 
BRANCH  19  23
HETATM   23  N5  UNL     1       8.720  -2.436  -2.115  1.00  0.00    -0.320 N 
HETATM   24  C10 UNL     1       9.012  -2.168  -3.441  1.00  0.00     0.273 C 
HETATM   25  O2  UNL     1       8.913  -2.990  -4.348  1.00  0.00    -0.266 OA
HETATM   26  H47 UNL     1       8.819  -1.693  -1.441  1.00  0.00     0.169 HD
BRANCH  24  27
HETATM   27  C8  UNL     1       9.452  -0.794  -3.694  1.00  0.00     0.105 A 
HETATM   28  C9  UNL     1       9.576   0.286  -2.823  1.00  0.00     0.066 A 
HETATM   29  C6  UNL     1      10.050   1.408  -3.542  1.00  0.00     0.053 A 
HETATM   30  C7  UNL     1      10.204   1.007  -4.845  1.00  0.00     0.120 A 
HETATM   31  N4  UNL     1       9.850  -0.316  -4.934  1.00  0.00    -0.354 N 
HETATM   32  C43 UNL     1       9.908  -1.081  -6.163  1.00  0.00     0.156 C 
BRANCH  29  33
HETATM   33  N3  UNL     1      10.336   2.684  -3.112  1.00  0.00    -0.319 N 
HETATM   34  C5  UNL     1      10.231   3.152  -1.817  1.00  0.00     0.290 C 
HETATM   35  O1  UNL     1       9.832   2.501  -0.855  1.00  0.00    -0.264 OA
HETATM   36  H46 UNL     1      10.685   3.356  -3.792  1.00  0.00     0.169 HD
BRANCH  34  37
HETATM   37  C4  UNL     1      10.658   4.543  -1.717  1.00  0.00     0.176 A 
HETATM   38  N1  UNL     1      10.752   5.301  -0.573  1.00  0.00    -0.342 N 
HETATM   39  C1  UNL     1      10.453   4.862   0.769  1.00  0.00     0.157 C 
HETATM   40  C2  UNL     1      11.196   6.546  -0.924  1.00  0.00     0.109 A 
HETATM   41  C3  UNL     1      11.361   6.497  -2.287  1.00  0.00     0.107 A 
HETATM   42  N2  UNL     1      11.027   5.260  -2.773  1.00  0.00    -0.346 N 
ATOM     43  H2  UNL     1      11.056   4.953  -3.745  1.00  0.00     0.167 HD
ENDBRANCH  34  37
ENDBRANCH  29  33
ENDBRANCH  24  27
ENDBRANCH  19  23
ENDBRANCH  14  17
ENDBRANCH  12  13
ENDBRANCH  11  12
ENDBRANCH   8  11
ENDBRANCH   1   7
BRANCH   3  44
HETATM   44  C23 UNL     1      -1.707  -2.793   1.232  1.00  0.00     0.273 C 
HETATM   45  N10 UNL     1      -1.965  -2.247   2.479  1.00  0.00    -0.320 N 
HETATM   46  H50 UNL     1      -1.415  -2.559   3.265  1.00  0.00     0.169 HD
HETATM   47  O5  UNL     1      -2.368  -2.534   0.228  1.00  0.00    -0.266 OA
BRANCH  45  48
HETATM   48  C24 UNL     1      -2.954  -1.321   2.751  1.00  0.00     0.053 A 
HETATM   49  C25 UNL     1      -3.186  -0.812   4.005  1.00  0.00     0.120 A 
HETATM   50  N11 UNL     1      -4.230   0.077   3.925  1.00  0.00    -0.354 N 
HETATM   51  C26 UNL     1      -4.677   0.176   2.617  1.00  0.00     0.105 A 
HETATM   52  C40 UNL     1      -4.753   0.806   5.063  1.00  0.00     0.156 C 
HETATM   53  C27 UNL     1      -3.894  -0.714   1.888  1.00  0.00     0.066 A 
BRANCH  51  54
HETATM   54  C28 UNL     1      -5.761   1.036   2.166  1.00  0.00     0.273 C 
HETATM   55  N12 UNL     1      -5.856   1.168   0.784  1.00  0.00    -0.320 N 
HETATM   56  H51 UNL     1      -5.115   0.715   0.259  1.00  0.00     0.169 HD
HETATM   57  O6  UNL     1      -6.524   1.618   2.933  1.00  0.00    -0.266 OA
BRANCH  55  58
HETATM   58  C29 UNL     1      -6.797   1.868   0.081  1.00  0.00     0.053 A 
HETATM   59  C30 UNL     1      -6.819   2.015  -1.260  1.00  0.00     0.125 A 
HETATM   60  N13 UNL     1      -7.987   2.836  -1.629  1.00  0.00    -0.336 N 
HETATM   61  C31 UNL     1      -8.298   3.196  -2.812  1.00  0.00     0.128 C 
HETATM   62  C32 UNL     1      -8.656   3.150  -0.343  1.00  0.00     0.108 A 
HETATM   63  C33 UNL     1      -7.953   2.567   0.650  1.00  0.00     0.066 A 
BRANCH  62  64
HETATM   64  C34 UNL     1      -9.931   3.912  -0.204  1.00  0.00     0.268 C 
HETATM   65  N14 UNL     1     -10.253   4.371   1.055  1.00  0.00    -0.356 N 
HETATM   66  H52 UNL     1      -9.632   4.223   1.845  1.00  0.00     0.162 HD
HETATM   67  O7  UNL     1     -10.645   4.125  -1.180  1.00  0.00    -0.266 OA
BRANCH  65  68
HETATM   68  C35 UNL     1     -11.449   5.163   1.295  1.00  0.00     0.124 C 
BRANCH  68  69
HETATM   69  C36 UNL     1     -12.699   4.291   1.410  1.00  0.00     0.047 C 
BRANCH  69  70
HETATM   70  C37 UNL     1     -13.982   5.083   1.668  1.00  0.00     0.235 C 
BRANCH  70  71
HETATM   71  N15 UNL     1     -14.419   5.930   0.491  1.00  0.00    -0.079 N 
HETATM   72  C38 UNL     1     -15.541   6.864   0.891  1.00  0.00     0.269 C 
HETATM   73  C39 UNL     1     -14.819   5.127  -0.723  1.00  0.00     0.269 C 
HETATM   74  H53 UNL     1     -13.644   6.540   0.202  1.00  0.00     0.278 HD
ENDBRANCH  70  71
ENDBRANCH  69  70
ENDBRANCH  68  69
ENDBRANCH  65  68
ENDBRANCH  62  64
ENDBRANCH  55  58
ENDBRANCH  51  54
ENDBRANCH  45  48
ENDBRANCH   3  44
TORSDOF 18
