REMARK  0 active torsions:
REMARK  status: ('A' for Active; 'I' for Inactive)
REMARK       I    between atoms: C2_2  and  C3_3 
REMARK       I    between atoms: C3_3  and  C5_5 
REMARK       I    between atoms: C5_5  and  C6_6 
REMARK       I    between atoms: C5_5  and  N2_86 
REMARK       I    between atoms: C6_6  and  N1_85 
REMARK       I    between atoms: C7_7  and  C8_8 
REMARK       I    between atoms: C7_7  and  N2_86 
REMARK       I    between atoms: C8_8  and  N3_87 
REMARK       I    between atoms: C9_9  and  C10_10 
REMARK       I    between atoms: C9_9  and  N3_87 
REMARK       I    between atoms: C10_10  and  C11_11 
REMARK       I    between atoms: C10_10  and  N4_88 
REMARK       I    between atoms: C11_11  and  O4_70 
REMARK       I    between atoms: C12_12  and  C13_13 
REMARK       I    between atoms: C12_12  and  N4_88 
REMARK       I    between atoms: C13_13  and  C14_14 
REMARK       I    between atoms: C13_13  and  N8_93 
REMARK       I    between atoms: C14_14  and  C15_15 
REMARK       I    between atoms: C15_15  and  C16_16 
REMARK       I    between atoms: C16_16  and  N5_89 
REMARK       I    between atoms: C17_17  and  N6_91 
REMARK       I    between atoms: C17_17  and  N7_92 
REMARK       I    between atoms: C18_18  and  C19_19 
REMARK       I    between atoms: C18_18  and  N8_93 
REMARK       I    between atoms: C19_19  and  C20_20 
REMARK       I    between atoms: C19_19  and  N9_94 
REMARK       I    between atoms: C20_20  and  O7_73 
REMARK       I    between atoms: C22_22  and  C23_23 
REMARK       I    between atoms: C22_22  and  N9_94 
REMARK       I    between atoms: C23_23  and  N10_95 
REMARK       I    between atoms: C24_24  and  C25_25 
REMARK       I    between atoms: C24_24  and  N10_95 
REMARK       I    between atoms: C25_25  and  C26_26 
REMARK       I    between atoms: C25_25  and  N12_97 
REMARK       I    between atoms: C26_26  and  C27_27 
REMARK       I    between atoms: C35_35  and  C36_36 
REMARK       I    between atoms: C35_35  and  N12_97 
REMARK       I    between atoms: C36_36  and  C37_37 
REMARK       I    between atoms: C36_36  and  N13_98 
REMARK       I    between atoms: C37_37  and  C38_38 
REMARK       I    between atoms: C41_41  and  C42_42 
REMARK       I    between atoms: C41_41  and  N13_98 
REMARK       I    between atoms: C42_42  and  C43_43 
REMARK       I    between atoms: C42_42  and  N14_99 
REMARK       I    between atoms: C43_43  and  C44_44 
REMARK       I    between atoms: C44_44  and  O13_79 
REMARK       I    between atoms: C45_45  and  C46_46 
REMARK       I    between atoms: C45_45  and  N14_99 
REMARK       I    between atoms: C46_46  and  C47_47 
REMARK       I    between atoms: C46_46  and  N15_100 
REMARK       I    between atoms: C50_50  and  C51_51 
REMARK       I    between atoms: C50_50  and  N15_100 
REMARK       I    between atoms: C51_51  and  C52_52 
REMARK       I    between atoms: C51_51  and  N17_102 
REMARK       I    between atoms: C52_52  and  C53_53 
REMARK       I    between atoms: C53_53  and  C54_54 
REMARK       I    between atoms: C54_54  and  C55_55 
REMARK       I    between atoms: C55_55  and  N16_101 
REMARK       I    between atoms: C56_56  and  C57_57 
REMARK       I    between atoms: C56_56  and  N17_102 
REMARK       I    between atoms: C57_57  and  C58_58 
REMARK       I    between atoms: C57_57  and  N18_103 
REMARK       I    between atoms: C58_58  and  C59_59 
REMARK       I    between atoms: C62_62  and  C63_63 
REMARK       I    between atoms: C62_62  and  N18_103 
REMARK       I    between atoms: C63_63  and  C64_64 
REMARK       I    between atoms: C63_63  and  N20_105 
REMARK       I    between atoms: C64_64  and  C65_65 
REMARK       I    between atoms: C65_65  and  C66_66 
REMARK       I    between atoms: C66_66  and  N19_104 
ROOT
HETATM    1  C1  UNL     1       8.689  -3.135   2.438  1.00  0.00     0.005 C 
HETATM    2  C2  UNL     1       7.617  -3.638   1.479  1.00  0.00     0.002 C 
HETATM    3  C3  UNL     1       8.201  -4.193   0.161  1.00  0.00     0.013 C 
HETATM    4  C4  UNL     1       8.771  -3.065  -0.711  1.00  0.00     0.012 C 
HETATM    5  C5  UNL     1       7.170  -5.023  -0.649  1.00  0.00     0.180 C 
HETATM    6  C6  UNL     1       6.830  -6.369   0.041  1.00  0.00     0.238 C 
HETATM    7  C7  UNL     1       5.210  -4.480  -2.085  1.00  0.00     0.236 C 
HETATM    8  C8  UNL     1       3.946  -3.627  -2.193  1.00  0.00     0.225 C 
HETATM    9  C9  UNL     1       2.930  -1.625  -1.166  1.00  0.00     0.242 C 
HETATM   10  C10 UNL     1       3.238  -0.319  -0.419  1.00  0.00     0.200 C 
HETATM   11  C11 UNL     1       3.415  -0.658   1.075  1.00  0.00     0.199 C 
HETATM   12  C12 UNL     1       4.941   1.480  -0.538  1.00  0.00     0.241 C 
HETATM   13  C13 UNL     1       6.118   2.086  -1.351  1.00  0.00     0.176 C 
HETATM   14  C14 UNL     1       7.321   1.143  -1.553  1.00  0.00     0.036 C 
HETATM   15  C15 UNL     1       8.492   1.233  -0.559  1.00  0.00     0.022 C 
HETATM   16  C16 UNL     1       8.202   0.693   0.837  1.00  0.00     0.121 C 
HETATM   17  C17 UNL     1       6.664   1.097   2.558  1.00  0.00     0.121 C 
HETATM   18  C18 UNL     1       5.741   4.483  -1.054  1.00  0.00     0.243 C 
HETATM   19  C19 UNL     1       6.043   5.792  -0.272  1.00  0.00     0.205 C 
HETATM   20  C20 UNL     1       6.201   5.639   1.252  1.00  0.00     0.146 C 
HETATM   21  C21 UNL     1       4.920   5.271   1.989  1.00  0.00     0.042 C 
HETATM   22  C22 UNL     1       5.037   7.500  -1.734  1.00  0.00     0.236 C 
HETATM   23  C23 UNL     1       3.713   7.652  -2.496  1.00  0.00     0.225 C 
HETATM   24  C24 UNL     1       1.818   6.128  -1.944  1.00  0.00     0.241 C 
HETATM   25  C25 UNL     1       1.435   4.635  -1.822  1.00  0.00     0.181 C 
HETATM   26  C26 UNL     1       0.988   4.095  -3.185  1.00  0.00     0.075 C 
HETATM   27  C27 UNL     1       1.189   2.613  -3.319  1.00  0.00    -0.028 A 
HETATM   28  C28 UNL     1       0.310   1.627  -2.916  1.00  0.00     0.096 A 
HETATM   29  C29 UNL     1       2.056   0.576  -3.868  1.00  0.00     0.042 A 
HETATM   30  C30 UNL     1       2.931  -0.378  -4.403  1.00  0.00     0.030 A 
HETATM   31  C31 UNL     1       4.123   0.079  -4.969  1.00  0.00     0.002 A 
HETATM   32  C32 UNL     1       4.423   1.438  -5.002  1.00  0.00     0.001 A 
HETATM   33  C33 UNL     1       3.529   2.380  -4.476  1.00  0.00     0.014 A 
HETATM   34  C34 UNL     1       2.316   1.946  -3.902  1.00  0.00    -0.002 A 
HETATM   35  C35 UNL     1       0.743   4.500   0.530  1.00  0.00     0.241 C 
HETATM   36  C36 UNL     1      -0.379   4.889   1.515  1.00  0.00     0.177 C 
HETATM   37  C37 UNL     1      -0.418   6.420   1.690  1.00  0.00     0.038 C 
HETATM   38  C38 UNL     1       0.878   7.062   2.229  1.00  0.00    -0.020 C 
HETATM   39  C39 UNL     1       1.271   6.517   3.602  1.00  0.00     0.009 C 
HETATM   40  C40 UNL     1       0.708   8.582   2.304  1.00  0.00     0.009 C 
HETATM   41  C41 UNL     1      -2.786   4.343   1.814  1.00  0.00     0.241 C 
HETATM   42  C42 UNL     1      -3.995   3.653   1.155  1.00  0.00     0.186 C 
HETATM   43  C43 UNL     1      -5.286   4.125   1.821  1.00  0.00     0.144 C 
HETATM   44  C44 UNL     1      -6.486   3.794   0.982  1.00  0.00     0.141 C 
HETATM   45  C45 UNL     1      -2.987   1.513   0.417  1.00  0.00     0.241 C 
HETATM   46  C46 UNL     1      -2.996  -0.016   0.607  1.00  0.00     0.180 C 
HETATM   47  C47 UNL     1      -1.669  -0.664   0.160  1.00  0.00     0.009 C 
HETATM   48  C48 UNL     1      -0.506  -0.168   1.026  1.00  0.00     0.012 C 
HETATM   49  C49 UNL     1      -1.728  -2.194   0.234  1.00  0.00     0.012 C 
HETATM   50  C50 UNL     1      -5.053  -1.371   0.217  1.00  0.00     0.241 C 
HETATM   51  C51 UNL     1      -6.215  -1.607  -0.772  1.00  0.00     0.176 C 
HETATM   52  C52 UNL     1      -7.251  -0.482  -0.629  1.00  0.00     0.035 C 
HETATM   53  C53 UNL     1      -8.139  -0.586   0.621  1.00  0.00     0.004 C 
HETATM   54  C54 UNL     1      -8.675   0.765   1.104  1.00  0.00     0.030 C 
HETATM   55  C55 UNL     1      -9.432   1.561   0.042  1.00  0.00     0.267 C 
HETATM   56  C56 UNL     1      -6.283  -4.031  -1.214  1.00  0.00     0.241 C 
HETATM   57  C57 UNL     1      -6.700  -5.382  -0.583  1.00  0.00     0.177 C 
HETATM   58  C58 UNL     1      -6.717  -6.519  -1.618  1.00  0.00     0.038 C 
HETATM   59  C59 UNL     1      -5.332  -7.123  -1.933  1.00  0.00    -0.020 C 
HETATM   60  C60 UNL     1      -4.760  -7.901  -0.746  1.00  0.00     0.009 C 
HETATM   61  C61 UNL     1      -5.438  -8.050  -3.147  1.00  0.00     0.009 C 
HETATM   62  C62 UNL     1      -8.466  -6.074   1.031  1.00  0.00     0.251 C 
HETATM   63  C63 UNL     1      -9.942  -5.803   1.418  1.00  0.00     0.309 C 
HETATM   64  C64 UNL     1     -10.574  -6.982   2.167  1.00  0.00     0.054 C 
HETATM   65  C65 UNL     1     -10.059  -7.117   3.604  1.00  0.00     0.105 C 
HETATM   66  C66 UNL     1      -9.629  -8.534   3.905  1.00  0.00     0.215 C 
HETATM   67  O1  UNL     1       7.481  -6.861   0.958  1.00  0.00    -0.271 OA
HETATM   68  O2  UNL     1       5.481  -5.368  -2.889  1.00  0.00    -0.272 OA
HETATM   69  O3  UNL     1       1.790  -1.997  -1.426  1.00  0.00    -0.271 OA
HETATM   70  O4  UNL     1       3.042   0.426   1.928  1.00  0.00    -0.398 OA
HETATM   71  O5  UNL     1       4.450   2.028   0.449  1.00  0.00    -0.271 OA
HETATM   72  O6  UNL     1       4.907   4.463  -1.969  1.00  0.00    -0.271 OA
HETATM   73  O7  UNL     1       6.677   6.877   1.802  1.00  0.00    -0.393 OA
HETATM   74  O8  UNL     1       6.075   8.057  -2.076  1.00  0.00    -0.272 OA
HETATM   75  O9  UNL     1       1.085   7.038  -1.561  1.00  0.00    -0.271 OA
HETATM   76  O10 UNL     1       1.902   4.310   0.893  1.00  0.00    -0.271 OA
HETATM   77  O11 UNL     1      -2.799   4.740   2.975  1.00  0.00    -0.271 OA
HETATM   78  O12 UNL     1      -6.489   3.310  -0.137  1.00  0.00    -0.650 OA
HETATM   79  O13 UNL     1      -7.630   4.077   1.639  1.00  0.00    -0.776 OA
HETATM   80  O14 UNL     1      -2.395   2.078  -0.502  1.00  0.00    -0.271 OA
HETATM   81  O15 UNL     1      -5.004  -1.908   1.322  1.00  0.00    -0.271 OA
HETATM   82  O16 UNL     1      -5.497  -3.930  -2.151  1.00  0.00    -0.271 OA
HETATM   83  O17 UNL     1      -7.758  -6.920   1.571  1.00  0.00    -0.271 OA
HETATM   84  O18 UNL     1     -10.322  -9.328   4.530  1.00  0.00    -0.274 OA
HETATM   85  N1  UNL     1       5.801  -7.075  -0.519  1.00  0.00    -0.368 N 
HETATM   86  N2  UNL     1       5.965  -4.245  -0.954  1.00  0.00    -0.346 N 
HETATM   87  N3  UNL     1       4.046  -2.404  -1.412  1.00  0.00    -0.350 N 
HETATM   88  N4  UNL     1       4.439   0.289  -1.029  1.00  0.00    -0.344 N 
HETATM   89  N5  UNL     1       7.167   1.507   1.454  1.00  0.00    -0.372 N 
ATOM     90  H5  UNL     1       6.852   2.376   1.022  1.00  0.00     0.161 HD
HETATM   91  N6  UNL     1       7.003   0.035   3.320  1.00  0.00    -0.279 NA
HETATM   92  N7  UNL     1       5.610   1.741   3.102  1.00  0.00    -0.279 NA
HETATM   93  N8  UNL     1       6.494   3.369  -0.763  1.00  0.00    -0.346 N 
HETATM   94  N9  UNL     1       4.942   6.718  -0.594  1.00  0.00    -0.344 N 
HETATM   95  N10 UNL     1       3.044   6.353  -2.522  1.00  0.00    -0.351 N 
HETATM   96  N11 UNL     1       0.841   0.409  -3.243  1.00  0.00    -0.365 N 
HETATM   97  N12 UNL     1       0.382   4.549  -0.806  1.00  0.00    -0.346 N 
HETATM   98  N13 UNL     1      -1.667   4.401   1.004  1.00  0.00    -0.346 N 
HETATM   99  N14 UNL     1      -3.810   2.204   1.281  1.00  0.00    -0.345 N 
HETATM  100  N15 UNL     1      -4.121  -0.456  -0.215  1.00  0.00    -0.346 N 
HETATM  101  N16 UNL     1      -9.818   2.873   0.582  1.00  0.00     0.078 N 
HETATM  102  N17 UNL     1      -6.782  -2.927  -0.542  1.00  0.00    -0.346 N 
HETATM  103  N18 UNL     1      -8.015  -5.227   0.042  1.00  0.00    -0.346 N 
HETATM  104  N19 UNL     1      -8.411  -8.881   3.408  1.00  0.00    -0.370 N 
HETATM  105  N20 UNL     1     -10.703  -5.508   0.176  1.00  0.00     0.092 N 
HETATM  106  H83 UNL     1       3.387   1.244   1.502  1.00  0.00     0.209 HD
HETATM  107  H84 UNL     1       6.140   7.587   1.400  1.00  0.00     0.210 HD
HETATM  108  H85 UNL     1      -8.381   3.713   1.093  1.00  0.00     0.167 HD
HETATM  109  H86 UNL     1       5.570  -6.899  -1.495  1.00  0.00     0.159 HD
HETATM  110  H87 UNL     1       5.693  -8.028  -0.195  1.00  0.00     0.159 HD
HETATM  111  H88 UNL     1       5.454  -3.857  -0.168  1.00  0.00     0.163 HD
HETATM  112  H89 UNL     1       4.945  -1.933  -1.377  1.00  0.00     0.163 HD
HETATM  113  H90 UNL     1       4.463   0.244  -2.045  1.00  0.00     0.163 HD
HETATM  114  H91 UNL     1       7.951  -0.289   3.178  1.00  0.00     0.126 HD
HETATM  115  H92 UNL     1       6.837   0.215   4.305  1.00  0.00     0.126 HD
HETATM  116  H93 UNL     1       5.207   2.370   2.408  1.00  0.00     0.126 HD
HETATM  117  H94 UNL     1       4.871   1.100   3.383  1.00  0.00     0.126 HD
HETATM  118  H95 UNL     1       6.855   3.272   0.184  1.00  0.00     0.163 HD
HETATM  119  H96 UNL     1       4.020   6.314  -0.455  1.00  0.00     0.163 HD
HETATM  120  H97 UNL     1       3.660   5.544  -2.649  1.00  0.00     0.163 HD
HETATM  121  H98 UNL     1       0.418  -0.489  -3.040  1.00  0.00     0.165 HD
HETATM  122  H99 UNL     1      -0.446   5.107  -0.996  1.00  0.00     0.163 HD
HETATM  123  HA0 UNL     1      -1.639   3.718   0.242  1.00  0.00     0.163 HD
HETATM  124  HA1 UNL     1      -4.081   1.754   2.149  1.00  0.00     0.163 HD
HETATM  125  HA2 UNL     1      -4.193  -0.072  -1.152  1.00  0.00     0.163 HD
HETATM  126  HA3 UNL     1     -10.371   3.353  -0.135  1.00  0.00     0.312 HD
HETATM  127  HA4 UNL     1     -10.478   2.719   1.352  1.00  0.00     0.312 HD
HETATM  128  HA5 UNL     1      -7.077  -3.127   0.410  1.00  0.00     0.163 HD
HETATM  129  HA6 UNL     1      -8.756  -4.762  -0.481  1.00  0.00     0.163 HD
HETATM  130  HA7 UNL     1      -7.912  -8.283   2.748  1.00  0.00     0.159 HD
HETATM  131  HA8 UNL     1      -8.101  -9.837   3.517  1.00  0.00     0.159 HD
HETATM  132  HA9 UNL     1     -10.769  -6.369  -0.373  1.00  0.00     0.313 HD
HETATM  133  HB0 UNL     1     -11.667  -5.289   0.433  1.00  0.00     0.313 HD
ENDROOT
TORSDOF 54
