REMARK  14 active torsions:
REMARK  status: ('A' for Active; 'I' for Inactive)
REMARK    1  A    between atoms: C3_3  and  N14_102 
REMARK    2  A    between atoms: C4_4  and  O18_82 
REMARK    3  A    between atoms: C6_6  and  O2_66 
REMARK    4  A    between atoms: C7_7  and  O2_66 
REMARK    5  A    between atoms: C32_32  and  C52_52 
REMARK    6  A    between atoms: C33_33  and  O15_79 
REMARK    7  A    between atoms: C40_40  and  C50_50 
REMARK    8  A    between atoms: C43_43  and  O12_76 
REMARK    9  A    between atoms: C50_50  and  O14_78 
REMARK   10  A    between atoms: C53_53  and  C55_55 
REMARK       I    between atoms: C55_55  and  N12_100 
REMARK   11  A    between atoms: C56_56  and  C57_57 
REMARK   12  A    between atoms: C56_56  and  N12_100 
REMARK   13  A    between atoms: C57_57  and  N13_101 
REMARK   14  A    between atoms: O9_73  and  N3_86 
ROOT
HETATM    1  C7  UNL     1      -5.653   0.959   2.364  1.00  0.00     0.255 C 
HETATM    2  C8  UNL     1      -4.229   1.202   2.915  1.00  0.00     0.189 C 
HETATM    3  C9  UNL     1      -3.178   0.251   2.292  1.00  0.00     0.174 C 
HETATM    4  C10 UNL     1      -1.848   0.405   2.991  1.00  0.00     0.077 C 
HETATM    5  C11 UNL     1       0.147   1.308   3.366  1.00  0.00     0.108 C 
HETATM    6  C12 UNL     1       0.014   0.605   4.544  1.00  0.00     0.086 C 
HETATM    7  C13 UNL     1       1.202   2.245   3.003  1.00  0.00     0.269 C 
HETATM    8  C14 UNL     1       1.559   3.993   1.251  1.00  0.00     0.166 C 
HETATM    9  C15 UNL     1       1.350   5.228   2.141  1.00  0.00     0.211 C 
HETATM   10  C16 UNL     1      -0.908   5.144   3.018  1.00  0.00     0.313 C 
HETATM   11  C17 UNL     1      -2.270   5.538   2.729  1.00  0.00     0.147 A 
HETATM   12  C18 UNL     1      -3.464   4.846   2.984  1.00  0.00     0.014 A 
HETATM   13  C19 UNL     1      -3.581   3.464   3.567  1.00  0.00     0.210 C 
HETATM   14  C20 UNL     1      -4.564   5.666   2.502  1.00  0.00     0.012 A 
HETATM   15  C21 UNL     1      -5.989   5.539   2.448  1.00  0.00    -0.021 A 
HETATM   16  C22 UNL     1      -6.783   4.371   3.005  1.00  0.00     0.218 C 
HETATM   17  C23 UNL     1      -6.543   2.043   2.969  1.00  0.00     0.291 C 
HETATM   18  C24 UNL     1      -6.725   6.590   1.849  1.00  0.00     0.010 A 
HETATM   19  C25 UNL     1      -6.109   7.721   1.329  1.00  0.00     0.003 A 
HETATM   20  C26 UNL     1      -4.728   7.859   1.386  1.00  0.00     0.033 A 
HETATM   21  C27 UNL     1      -3.985   6.823   1.972  1.00  0.00     0.074 A 
HETATM   22  C28 UNL     1       2.964   3.588   0.868  1.00  0.00     0.076 A 
HETATM   23  C29 UNL     1       4.547   2.333  -0.072  1.00  0.00     0.067 A 
HETATM   24  C30 UNL     1       5.346   3.211   0.637  1.00  0.00     0.083 A 
HETATM   25  C31 UNL     1       5.082   1.247  -0.898  1.00  0.00     0.073 A 
HETATM   26  C32 UNL     1       6.837   0.645  -2.327  1.00  0.00     0.100 A 
HETATM   27  C33 UNL     1       6.218  -0.564  -2.638  1.00  0.00     0.096 A 
HETATM   28  C34 UNL     1       4.997  -0.861  -2.040  1.00  0.00     0.055 A 
HETATM   29  C35 UNL     1       4.405   0.040  -1.136  1.00  0.00     0.029 A 
HETATM   30  C36 UNL     1       3.148  -0.377  -0.501  1.00  0.00     0.087 C 
HETATM   31  C37 UNL     1       1.070  -1.153  -0.255  1.00  0.00     0.108 C 
HETATM   32  C38 UNL     1       1.425  -1.043   1.074  1.00  0.00     0.087 C 
HETATM   33  C39 UNL     1      -0.253  -1.577  -0.717  1.00  0.00     0.269 C 
HETATM   34  C40 UNL     1      -1.482  -2.455  -2.713  1.00  0.00     0.205 C 
HETATM   35  C41 UNL     1      -1.765  -3.949  -2.389  1.00  0.00     0.247 C 
HETATM   36  C42 UNL     1      -2.472  -5.296  -0.369  1.00  0.00     0.098 C 
HETATM   37  C43 UNL     1      -2.242  -6.583  -0.724  1.00  0.00     0.071 C 
HETATM   38  C44 UNL     1      -1.234  -7.030  -1.753  1.00  0.00     0.078 C 
HETATM   39  C46 UNL     1      -3.214  -4.884   0.817  1.00  0.00     0.104 A 
HETATM   40  C47 UNL     1      -3.975  -3.392   2.344  1.00  0.00     0.108 A 
HETATM   41  C48 UNL     1      -4.542  -4.531   2.865  1.00  0.00     0.087 A 
HETATM   42  C49 UNL     1      -4.069  -2.035   2.888  1.00  0.00     0.269 C 
HETATM   43  O3  UNL     1       2.179   2.499   3.693  1.00  0.00    -0.266 OA
HETATM   44  O4  UNL     1      -0.048   5.636   2.079  1.00  0.00    -0.314 OA
HETATM   45  O5  UNL     1      -0.575   4.438   3.959  1.00  0.00    -0.258 OA
HETATM   46  O6  UNL     1      -3.815   2.538   2.509  1.00  0.00    -0.376 OA
HETATM   47  O7  UNL     1      -6.467   3.200   2.255  1.00  0.00    -0.315 OA
HETATM   48  O8  UNL     1      -7.153   1.918   4.025  1.00  0.00    -0.262 OA
HETATM   49  O10 UNL     1      -1.257  -1.609  -0.008  1.00  0.00    -0.266 OA
HETATM   50  O11 UNL     1      -1.858  -4.797  -3.270  1.00  0.00    -0.271 OA
HETATM   51  O13 UNL     1      -4.612  -1.741   3.946  1.00  0.00    -0.266 OA
HETATM   52  N1  UNL     1      -0.887   1.119   2.457  1.00  0.00    -0.347 N 
ATOM     53  H1  UNL     1      -0.897   1.485   1.505  1.00  0.00     0.166 HD
HETATM   54  N2  UNL     1       0.899   2.826   1.794  1.00  0.00    -0.343 N 
HETATM   55  N3  UNL     1      -2.631   6.720   2.151  1.00  0.00    -0.217 N 
HETATM   56  N4  UNL     1       3.193   2.592   0.026  1.00  0.00    -0.350 N 
ATOM     57  H4  UNL     1       2.468   2.085  -0.482  1.00  0.00     0.166 HD
HETATM   58  N5  UNL     1       6.288   1.539  -1.464  1.00  0.00    -0.349 N 
ATOM     59  H5  UNL     1       6.768   2.411  -1.244  1.00  0.00     0.166 HD
HETATM   60  N6  UNL     1       2.099  -0.847  -1.156  1.00  0.00    -0.345 N 
ATOM     61  H6  UNL     1       2.047  -0.969  -2.167  1.00  0.00     0.167 HD
HETATM   62  N7  UNL     1      -0.266  -1.987  -2.029  1.00  0.00    -0.340 N 
HETATM   63  N8  UNL     1      -2.000  -4.165  -1.042  1.00  0.00    -0.321 N 
HETATM   64  N9  UNL     1      -3.243  -3.608   1.176  1.00  0.00    -0.344 N 
ATOM     65  H9  UNL     1      -2.780  -2.864   0.654  1.00  0.00     0.167 HD
HETATM   66  N10 UNL     1      -3.457  -1.141   2.057  1.00  0.00    -0.343 N 
HETATM   67  S1  UNL     1      -1.488  -0.234   4.546  1.00  0.00    -0.084 SA
HETATM   68  S2  UNL     1       4.376   4.332   1.499  1.00  0.00    -0.084 SA
HETATM   69  S3  UNL     1       3.044  -0.513   1.216  1.00  0.00    -0.081 SA
HETATM   70  S4  UNL     1      -4.154  -5.878   1.878  1.00  0.00    -0.079 SA
HETATM   71  H64 UNL     1       0.018   2.526   1.383  1.00  0.00     0.163 HD
HETATM   72  H65 UNL     1       0.644  -2.103  -2.469  1.00  0.00     0.163 HD
HETATM   73  H66 UNL     1      -2.126  -3.309  -0.488  1.00  0.00     0.169 HD
HETATM   74  H67 UNL     1      -2.958  -1.560   1.272  1.00  0.00     0.163 HD
ENDROOT
BRANCH  26  75
HETATM   75  C52 UNL     1       8.137   1.059  -2.871  1.00  0.00     0.104 A 
HETATM   76  N11 UNL     1       9.179   1.423  -2.144  1.00  0.00    -0.344 N 
HETATM   77  C53 UNL     1      10.240   1.797  -2.974  1.00  0.00     0.108 A 
ATOM     78  H11 UNL     1       9.205   1.430  -1.124  1.00  0.00     0.167 HD
HETATM   79  C54 UNL     1       9.970   1.713  -4.326  1.00  0.00     0.087 A 
HETATM   80  S5  UNL     1       8.365   1.178  -4.577  1.00  0.00    -0.079 SA
BRANCH  77  81
HETATM   81  C55 UNL     1      11.524   2.224  -2.415  1.00  0.00     0.268 C 
HETATM   82  O16 UNL     1      12.510   2.475  -3.100  1.00  0.00    -0.266 OA
HETATM   83  N12 UNL     1      11.507   2.283  -1.042  1.00  0.00    -0.354 N 
HETATM   84  H68 UNL     1      10.634   2.028  -0.589  1.00  0.00     0.162 HD
BRANCH  83  85
HETATM   85  C56 UNL     1      12.686   2.555  -0.251  1.00  0.00     0.153 C 
BRANCH  85  86
HETATM   86  C57 UNL     1      13.709   1.398  -0.221  1.00  0.00     0.292 C 
BRANCH  86  87
HETATM   87  N13 UNL     1      13.395   0.305   0.725  1.00  0.00     0.094 N 
HETATM   88  C58 UNL     1      14.552  -0.615   0.862  1.00  0.00     0.298 C 
HETATM   89  C59 UNL     1      14.769  -1.538  -0.352  1.00  0.00     0.198 C 
HETATM   90  O17 UNL     1      13.589  -2.294  -0.656  1.00  0.00    -0.388 OA
HETATM   91  C60 UNL     1      12.473  -1.423  -0.882  1.00  0.00     0.198 C 
HETATM   92  C61 UNL     1      12.227  -0.516   0.335  1.00  0.00     0.298 C 
ENDBRANCH  86  87
ENDBRANCH  85  86
ENDBRANCH  83  85
ENDBRANCH  77  81
ENDBRANCH  26  75
BRANCH  27  93
HETATM   93  O15 UNL     1       6.799  -1.465  -3.484  1.00  0.00    -0.358 OA
HETATM   94  H62 UNL     1       6.224  -2.242  -3.590  1.00  0.00     0.217 HD
ENDBRANCH  27  93
BRANCH  34  95
HETATM   95  C50 UNL     1      -1.351  -2.194  -4.230  1.00  0.00     0.146 C 
HETATM   96  C51 UNL     1      -2.663  -2.356  -4.989  1.00  0.00     0.042 C 
BRANCH  95  97
HETATM   97  O14 UNL     1      -0.924  -0.839  -4.458  1.00  0.00    -0.393 OA
HETATM   98  H61 UNL     1      -0.327  -0.586  -3.730  1.00  0.00     0.210 HD
ENDBRANCH  95  97
ENDBRANCH  34  95
BRANCH  55  99
HETATM   99  O9  UNL     1      -1.755   7.760   1.850  1.00  0.00    -0.282 OA
HETATM  100  H60 UNL     1      -2.012   8.382   2.551  1.00  0.00     0.245 HD
ENDBRANCH  55  99
BRANCH  37 101
HETATM  101  O12 UNL     1      -2.770  -7.647  -0.003  1.00  0.00    -0.358 OA
HETATM  102  C45 UNL     1      -3.653  -8.436  -0.802  1.00  0.00     0.209 C 
ENDBRANCH  37 101
BRANCH   1 103
HETATM  103  O2  UNL     1      -5.640   0.962   0.935  1.00  0.00    -0.343 OA
BRANCH 103 104
HETATM  104  C6  UNL     1      -6.608   0.084   0.369  1.00  0.00     0.264 C 
HETATM  105  C5  UNL     1      -6.573   0.288  -1.148  1.00  0.00     0.100 C 
HETATM  106  C4  UNL     1      -6.838  -1.007  -1.949  1.00  0.00     0.092 C 
HETATM  107  C3  UNL     1      -7.870  -1.869  -1.140  1.00  0.00     0.284 C 
HETATM  108  C62 UNL     1      -5.502  -1.706  -2.254  1.00  0.00     0.048 C 
HETATM  109  C2  UNL     1      -7.249  -2.223   0.249  1.00  0.00     0.157 C 
HETATM  110  C1  UNL     1      -8.301  -2.428   1.337  1.00  0.00     0.042 C 
HETATM  111  O1  UNL     1      -6.284  -1.258   0.693  1.00  0.00    -0.354 OA
BRANCH 106 112
HETATM  112  O18 UNL     1      -7.403  -0.606  -3.208  1.00  0.00    -0.388 OA
HETATM  113  H63 UNL     1      -6.743  -0.065  -3.677  1.00  0.00     0.210 HD
ENDBRANCH 106 112
BRANCH 107 114
HETATM  114  N14 UNL     1      -8.546  -3.051  -1.733  1.00  0.00     0.090 N 
HETATM  115  C63 UNL     1      -9.600  -2.676  -2.679  1.00  0.00     0.310 C 
HETATM  116  C64 UNL     1      -7.677  -4.052  -2.336  1.00  0.00     0.310 C 
ENDBRANCH 107 114
ENDBRANCH 103 104
ENDBRANCH   1 103
TORSDOF 14
