REMARK  0 active torsions:
REMARK  status: ('A' for Active; 'I' for Inactive)
REMARK       I    between atoms: C2_2  and  C3_3 
REMARK       I    between atoms: C2_2  and  N9_66 
REMARK       I    between atoms: C3_3  and  C4_4 
REMARK       I    between atoms: C4_4  and  C5_5 
REMARK       I    between atoms: C5_5  and  N1_57 
REMARK       I    between atoms: C6_6  and  C7_7 
REMARK       I    between atoms: C6_6  and  C9_9 
REMARK       I    between atoms: C6_6  and  N1_57 
REMARK       I    between atoms: C7_7  and  C8_8 
REMARK       I    between atoms: C8_8  and  O3_44 
REMARK       I    between atoms: C9_9  and  N2_58 
REMARK       I    between atoms: C10_10  and  C11_11 
REMARK       I    between atoms: C10_10  and  C15_15 
REMARK       I    between atoms: C10_10  and  N2_58 
REMARK       I    between atoms: C11_11  and  C12_12 
REMARK       I    between atoms: C12_12  and  C13_13 
REMARK       I    between atoms: C13_13  and  N3_59 
REMARK       I    between atoms: C14_14  and  N4_61 
REMARK       I    between atoms: C14_14  and  N5_62 
REMARK       I    between atoms: C15_15  and  N6_63 
REMARK       I    between atoms: C16_16  and  C17_17 
REMARK       I    between atoms: C16_16  and  C19_19 
REMARK       I    between atoms: C16_16  and  N6_63 
REMARK       I    between atoms: C17_17  and  C18_18 
REMARK       I    between atoms: C18_18  and  O7_48 
REMARK       I    between atoms: C19_19  and  N7_64 
REMARK       I    between atoms: C20_20  and  C21_21 
REMARK       I    between atoms: C20_20  and  C24_24 
REMARK       I    between atoms: C20_20  and  N7_64 
REMARK       I    between atoms: C21_21  and  C22_22 
REMARK       I    between atoms: C22_22  and  C23_23 
REMARK       I    between atoms: C23_23  and  O10_51 
REMARK       I    between atoms: C24_24  and  N8_65 
REMARK       I    between atoms: C25_25  and  C26_26 
REMARK       I    between atoms: C25_25  and  C27_27 
REMARK       I    between atoms: C25_25  and  N8_65 
REMARK       I    between atoms: C26_26  and  S1_76 
REMARK       I    between atoms: C27_27  and  O13_54 
REMARK       I    between atoms: C28_28  and  C29_29 
REMARK       I    between atoms: C28_28  and  N9_66 
REMARK       I    between atoms: C32_32  and  N10_67 
REMARK       I    between atoms: C35_35  and  C36_36 
REMARK       I    between atoms: C35_35  and  N10_67 
REMARK       I    between atoms: C41_41  and  N15_75 
ROOT
HETATM    1  C1  UNL     1      -0.116   2.876  -3.974  1.00  0.00     0.032 C 
HETATM    2  C2  UNL     1       0.857   2.263  -2.967  1.00  0.00     0.081 C 
HETATM    3  C3  UNL     1       0.394   0.863  -2.539  1.00  0.00     0.034 C 
HETATM    4  C4  UNL     1       1.365   0.167  -1.586  1.00  0.00     0.105 C 
HETATM    5  C5  UNL     1       0.762  -1.088  -0.986  1.00  0.00     0.218 C 
HETATM    6  C6  UNL     1       1.244  -3.039   0.431  1.00  0.00     0.186 C 
HETATM    7  C7  UNL     1       2.100  -3.442   1.625  1.00  0.00     0.144 C 
HETATM    8  C8  UNL     1       3.550  -3.548   1.249  1.00  0.00     0.141 C 
HETATM    9  C9  UNL     1       1.333  -4.109  -0.670  1.00  0.00     0.241 C 
HETATM   10  C10 UNL     1       0.254  -6.128  -1.601  1.00  0.00     0.176 C 
HETATM   11  C11 UNL     1      -0.901  -7.070  -1.233  1.00  0.00     0.036 C 
HETATM   12  C12 UNL     1      -0.596  -8.040  -0.082  1.00  0.00     0.022 C 
HETATM   13  C13 UNL     1       0.069  -7.456   1.166  1.00  0.00     0.121 C 
HETATM   14  C14 UNL     1      -0.547  -5.894   2.822  1.00  0.00     0.121 C 
HETATM   15  C15 UNL     1       0.088  -5.702  -3.077  1.00  0.00     0.241 C 
HETATM   16  C16 UNL     1      -0.735  -3.934  -4.601  1.00  0.00     0.186 C 
HETATM   17  C17 UNL     1      -1.500  -4.763  -5.640  1.00  0.00     0.144 C 
HETATM   18  C18 UNL     1      -2.872  -5.179  -5.187  1.00  0.00     0.141 C 
HETATM   19  C19 UNL     1      -1.343  -2.520  -4.537  1.00  0.00     0.241 C 
HETATM   20  C20 UNL     1      -3.247  -1.179  -3.701  1.00  0.00     0.177 C 
HETATM   21  C21 UNL     1      -4.233  -1.241  -4.883  1.00  0.00     0.045 C 
HETATM   22  C22 UNL     1      -4.390   0.097  -5.605  1.00  0.00     0.112 C 
HETATM   23  C23 UNL     1      -5.102   1.124  -4.775  1.00  0.00     0.139 C 
HETATM   24  C24 UNL     1      -3.963  -1.012  -2.339  1.00  0.00     0.241 C 
HETATM   25  C25 UNL     1      -3.481  -0.704   0.070  1.00  0.00     0.191 C 
HETATM   26  C26 UNL     1      -2.862  -1.536   1.197  1.00  0.00     0.106 C 
HETATM   27  C27 UNL     1      -2.970   0.741   0.205  1.00  0.00     0.164 C 
HETATM   28  C28 UNL     1       0.144   3.557  -0.925  1.00  0.00     0.251 C 
HETATM   29  C29 UNL     1       0.610   4.445   0.174  1.00  0.00     0.032 A 
HETATM   30  C30 UNL     1       1.644   5.367  -0.002  1.00  0.00     0.019 A 
HETATM   31  C31 UNL     1       2.042   6.178   1.068  1.00  0.00     0.024 A 
HETATM   32  C32 UNL     1       1.439   6.079   2.330  1.00  0.00     0.008 A 
HETATM   33  C33 UNL     1       0.365   5.192   2.470  1.00  0.00     0.024 A 
HETATM   34  C34 UNL     1      -0.041   4.374   1.409  1.00  0.00     0.019 A 
HETATM   35  C35 UNL     1       1.552   6.671   4.730  1.00  0.00     0.151 C 
HETATM   36  C36 UNL     1       2.385   7.563   5.628  1.00  0.00     0.038 A 
HETATM   37  C37 UNL     1       1.920   7.920   6.894  1.00  0.00     0.116 A 
HETATM   38  C38 UNL     1       3.848   9.088   7.327  1.00  0.00     0.140 A 
HETATM   39  C39 UNL     1       4.314   8.723   6.070  1.00  0.00     0.146 A 
HETATM   40  C40 UNL     1       5.653   9.218   5.696  1.00  0.00     0.278 A 
HETATM   41  C41 UNL     1       5.734  10.303   7.856  1.00  0.00     0.159 A 
HETATM   42  O1  UNL     1      -0.381  -1.481  -1.207  1.00  0.00    -0.274 OA
HETATM   43  O2  UNL     1       4.223  -2.662   0.747  1.00  0.00    -0.650 OA
HETATM   44  O3  UNL     1       4.079  -4.751   1.534  1.00  0.00    -0.776 OA
HETATM   45  O4  UNL     1       2.271  -4.174  -1.461  1.00  0.00    -0.271 OA
HETATM   46  O5  UNL     1       0.451  -6.423  -4.005  1.00  0.00    -0.271 OA
HETATM   47  O6  UNL     1      -3.458  -4.843  -4.170  1.00  0.00    -0.650 OA
HETATM   48  O7  UNL     1      -3.471  -5.992  -6.081  1.00  0.00    -0.776 OA
HETATM   49  O8  UNL     1      -0.996  -1.629  -5.310  1.00  0.00    -0.271 OA
HETATM   50  O9  UNL     1      -6.295   1.372  -4.802  1.00  0.00    -0.650 OA
HETATM   51  O10 UNL     1      -4.267   1.768  -3.939  1.00  0.00    -0.776 OA
HETATM   52  O11 UNL     1      -5.109  -0.588  -2.217  1.00  0.00    -0.271 OA
HETATM   53  O12 UNL     1      -2.798   1.339   1.258  1.00  0.00    -0.648 OA
HETATM   54  O13 UNL     1      -2.744   1.338  -0.983  1.00  0.00    -0.775 OA
HETATM   55  O14 UNL     1      -1.025   3.188  -0.945  1.00  0.00    -0.268 OA
HETATM   56  O15 UNL     1       6.199   8.946   4.633  1.00  0.00    -0.265 OA
HETATM   57  N1  UNL     1       1.624  -1.747  -0.135  1.00  0.00    -0.347 N 
HETATM   58  N2  UNL     1       0.254  -4.963  -0.713  1.00  0.00    -0.346 N 
HETATM   59  N3  UNL     1      -0.646  -6.255   1.598  1.00  0.00    -0.372 N 
ATOM     60  H3  UNL     1      -1.210  -5.718   0.939  1.00  0.00     0.161 HD
HETATM   61  N4  UNL     1       0.172  -6.429   3.831  1.00  0.00    -0.279 NA
HETATM   62  N5  UNL     1      -1.211  -4.803   3.257  1.00  0.00    -0.279 NA
HETATM   63  N6  UNL     1      -0.642  -4.544  -3.276  1.00  0.00    -0.346 N 
HETATM   64  N7  UNL     1      -2.399  -2.375  -3.662  1.00  0.00    -0.346 N 
HETATM   65  N8  UNL     1      -3.144  -1.255  -1.251  1.00  0.00    -0.344 N 
HETATM   66  N9  UNL     1       1.100   3.164  -1.839  1.00  0.00    -0.353 N 
HETATM   67  N10 UNL     1       1.838   6.967   3.328  1.00  0.00    -0.287 NA
HETATM   68  N11 UNL     1       2.632   8.683   7.761  1.00  0.00    -0.348 N 
ATOM     69  H11 UNL     1       2.273   8.935   8.682  1.00  0.00     0.167 HD
HETATM   70  N12 UNL     1       3.616   7.953   5.193  1.00  0.00    -0.350 N 
ATOM     71  H12 UNL     1       3.985   7.688   4.280  1.00  0.00     0.166 HD
HETATM   72  N13 UNL     1       6.269  10.015   6.635  1.00  0.00    -0.298 N 
HETATM   73  N14 UNL     1       4.573   9.878   8.229  1.00  0.00    -0.317 N 
ATOM     74  H14 UNL     1       4.197  10.109   9.148  1.00  0.00     0.170 HD
HETATM   75  N15 UNL     1       6.484  11.073   8.679  1.00  0.00    -0.274 NA
HETATM   76  S1  UNL     1      -3.398  -3.282   1.159  1.00  0.00    -0.180 SA
HETATM   77  H37 UNL     1       4.996  -4.700   1.188  1.00  0.00     0.167 HD
HETATM   78  H38 UNL     1      -4.344  -6.198  -5.687  1.00  0.00     0.167 HD
HETATM   79  H39 UNL     1      -4.859   2.278  -3.347  1.00  0.00     0.167 HD
HETATM   80  H40 UNL     1      -2.260   2.191  -0.821  1.00  0.00     0.167 HD
HETATM   81  H41 UNL     1       2.620  -1.607  -0.300  1.00  0.00     0.163 HD
HETATM   82  H42 UNL     1      -0.256  -5.096   0.165  1.00  0.00     0.163 HD
HETATM   83  H43 UNL     1       0.901  -7.073   3.552  1.00  0.00     0.126 HD
HETATM   84  H44 UNL     1       0.523  -5.739   4.484  1.00  0.00     0.126 HD
HETATM   85  H45 UNL     1      -1.911  -4.512   2.572  1.00  0.00     0.126 HD
HETATM   86  H46 UNL     1      -1.676  -4.968   4.143  1.00  0.00     0.126 HD
HETATM   87  H47 UNL     1      -0.666  -3.918  -2.474  1.00  0.00     0.163 HD
HETATM   88  H48 UNL     1      -2.835  -3.237  -3.330  1.00  0.00     0.163 HD
HETATM   89  H49 UNL     1      -2.144  -1.307  -1.467  1.00  0.00     0.163 HD
HETATM   90  H50 UNL     1       2.063   3.423  -1.670  1.00  0.00     0.163 HD
HETATM   91  H51 UNL     1       2.806   7.281   3.221  1.00  0.00     0.128 HD
HETATM   92  H52 UNL     1       7.203  10.318   6.407  1.00  0.00     0.171 HD
HETATM   93  H53 UNL     1       5.949  11.405   9.478  1.00  0.00     0.127 HD
HETATM   94  H54 UNL     1       7.023  11.812   8.246  1.00  0.00     0.127 HD
HETATM   95  H55 UNL     1      -3.296  -3.424  -0.174  1.00  0.00     0.101 HD
ENDROOT
TORSDOF 36
