REMARK  0 active torsions:
REMARK  status: ('A' for Active; 'I' for Inactive)
REMARK       I    between atoms: C2_2  and  C3_3 
REMARK       I    between atoms: C3_3  and  C5_5 
REMARK       I    between atoms: C5_5  and  C6_6 
REMARK       I    between atoms: C5_5  and  N3_99 
REMARK       I    between atoms: C6_6  and  C7_7 
REMARK       I    between atoms: C6_6  and  O5_82 
REMARK       I    between atoms: C7_7  and  C8_8 
REMARK       I    between atoms: C8_8  and  N1_97 
REMARK       I    between atoms: C10_10  and  O4_81 
REMARK       I    between atoms: C12_12  and  C13_13 
REMARK       I    between atoms: C13_13  and  C14_14 
REMARK       I    between atoms: C13_13  and  O3_80 
REMARK       I    between atoms: C14_14  and  C16_16 
REMARK       I    between atoms: C16_16  and  N2_98 
REMARK       I    between atoms: C17_17  and  C18_18 
REMARK       I    between atoms: C17_17  and  N2_98 
REMARK       I    between atoms: C18_18  and  C19_19 
REMARK       I    between atoms: C28_28  and  C29_29 
REMARK       I    between atoms: C28_28  and  N3_99 
REMARK       I    between atoms: C29_29  and  C30_30 
REMARK       I    between atoms: C29_29  and  N4_100 
REMARK       I    between atoms: C33_33  and  C34_34 
REMARK       I    between atoms: C33_33  and  N4_100 
REMARK       I    between atoms: C34_34  and  C35_35 
REMARK       I    between atoms: C34_34  and  N5_101 
REMARK       I    between atoms: C39_39  and  O9_86 
REMARK       I    between atoms: C39_39  and  N5_101 
REMARK       I    between atoms: C40_40  and  C41_41 
REMARK       I    between atoms: C40_40  and  O9_86 
REMARK       I    between atoms: C44_44  and  N6_102 
REMARK       I    between atoms: C47_47  and  C48_48 
REMARK       I    between atoms: C47_47  and  N6_102 
REMARK       I    between atoms: C48_48  and  C49_49 
REMARK       I    between atoms: C48_48  and  N9_105 
REMARK       I    between atoms: C49_49  and  C50_50 
REMARK       I    between atoms: C50_50  and  C51_51 
REMARK       I    between atoms: C51_51  and  N7_103 
REMARK       I    between atoms: C52_52  and  N7_103 
REMARK       I    between atoms: C52_52  and  N8_104 
REMARK       I    between atoms: C53_53  and  C54_54 
REMARK       I    between atoms: C53_53  and  N9_105 
REMARK       I    between atoms: C54_54  and  C55_55 
REMARK       I    between atoms: C54_54  and  N10_106 
REMARK       I    between atoms: C58_58  and  C59_59 
REMARK       I    between atoms: C58_58  and  N10_106 
REMARK       I    between atoms: C59_59  and  C60_60 
REMARK       I    between atoms: C60_60  and  C61_61 
REMARK       I    between atoms: C61_61  and  C62_62 
REMARK       I    between atoms: C62_62  and  C63_63 
REMARK       I    between atoms: C63_63  and  N11_107 
REMARK       I    between atoms: C66_66  and  S1_111 
REMARK       I    between atoms: C68_68  and  C69_69 
REMARK       I    between atoms: C68_68  and  S1_111 
REMARK       I    between atoms: C69_69  and  C72_72 
REMARK       I    between atoms: C72_72  and  C73_73 
REMARK       I    between atoms: C73_73  and  O17_94 
REMARK       I    between atoms: O17_94  and  N12_108 
ROOT
HETATM    1  C1  UNL     1      -1.255   7.417   1.911  1.00  0.00     0.005 C 
HETATM    2  C2  UNL     1       0.219   7.083   2.104  1.00  0.00     0.002 C 
HETATM    3  C3  UNL     1       0.481   5.589   2.406  1.00  0.00     0.006 C 
HETATM    4  C4  UNL     1       1.868   5.452   3.044  1.00  0.00     0.012 C 
HETATM    5  C5  UNL     1       0.248   4.654   1.170  1.00  0.00     0.119 C 
HETATM    6  C6  UNL     1       0.222   3.120   1.521  1.00  0.00     0.152 C 
HETATM    7  C7  UNL     1      -0.754   2.628   2.608  1.00  0.00     0.137 C 
HETATM    8  C8  UNL     1      -2.195   3.095   2.472  1.00  0.00     0.222 C 
HETATM    9  C9  UNL     1      -3.109   0.767   2.815  1.00  0.00     0.158 C 
HETATM   10  C10 UNL     1      -4.540   0.292   2.528  1.00  0.00     0.138 C 
HETATM   11  C11 UNL     1      -5.396   1.385   3.152  1.00  0.00     0.061 C 
HETATM   12  C12 UNL     1      -4.604   2.653   2.799  1.00  0.00     0.119 C 
HETATM   13  C13 UNL     1      -4.942   3.900   3.672  1.00  0.00     0.156 C 
HETATM   14  C14 UNL     1      -6.143   4.688   3.112  1.00  0.00     0.105 C 
HETATM   15  C15 UNL     1      -6.341   6.007   3.866  1.00  0.00     0.022 C 
HETATM   16  C16 UNL     1      -6.065   4.994   1.618  1.00  0.00     0.224 C 
HETATM   17  C17 UNL     1      -4.706   5.801  -0.275  1.00  0.00     0.127 C 
HETATM   18  C18 UNL     1      -4.574   4.546  -1.150  1.00  0.00     0.064 C 
HETATM   19  C19 UNL     1      -4.486   4.854  -2.622  1.00  0.00     0.021 A 
HETATM   20  C20 UNL     1      -3.352   4.544  -3.376  1.00  0.00     0.125 A 
HETATM   21  C21 UNL     1      -3.289   4.819  -4.743  1.00  0.00     0.043 A 
HETATM   22  C22 UNL     1      -4.372   5.410  -5.389  1.00  0.00     0.006 A 
HETATM   23  C23 UNL     1      -5.516   5.719  -4.660  1.00  0.00     0.043 A 
HETATM   24  C24 UNL     1      -5.565   5.437  -3.295  1.00  0.00     0.125 A 
HETATM   25  C25 UNL     1      -4.118   3.329   5.847  1.00  0.00     0.202 C 
HETATM   26  C26 UNL     1      -1.026   2.353  -0.415  1.00  0.00     0.202 C 
HETATM   27  C27 UNL     1       2.482   4.348  -0.011  1.00  0.00     0.153 C 
HETATM   28  C28 UNL     1       0.609   5.604  -1.104  1.00  0.00     0.243 C 
HETATM   29  C29 UNL     1       1.433   5.647  -2.420  1.00  0.00     0.180 C 
HETATM   30  C30 UNL     1       1.224   6.923  -3.275  1.00  0.00     0.009 C 
HETATM   31  C31 UNL     1      -0.162   7.075  -3.910  1.00  0.00     0.012 C 
HETATM   32  C32 UNL     1       1.585   8.184  -2.485  1.00  0.00     0.012 C 
HETATM   33  C33 UNL     1       1.980   3.454  -3.484  1.00  0.00     0.241 C 
HETATM   34  C34 UNL     1       1.348   2.203  -4.149  1.00  0.00     0.184 C 
HETATM   35  C35 UNL     1       2.412   1.152  -4.575  1.00  0.00     0.010 C 
HETATM   36  C36 UNL     1       1.796  -0.228  -4.822  1.00  0.00     0.012 C 
HETATM   37  C37 UNL     1       3.266   1.560  -5.776  1.00  0.00     0.012 C 
HETATM   38  C38 UNL     1       0.725   3.465  -6.261  1.00  0.00     0.156 C 
HETATM   39  C39 UNL     1      -0.866   1.904  -5.320  1.00  0.00     0.363 C 
HETATM   40  C40 UNL     1      -2.309   0.273  -4.444  1.00  0.00     0.219 C 
HETATM   41  C41 UNL     1      -2.281  -0.748  -3.337  1.00  0.00    -0.034 A 
HETATM   42  C42 UNL     1      -2.677  -0.390  -2.045  1.00  0.00     0.011 A 
HETATM   43  C43 UNL     1      -2.505  -1.274  -0.977  1.00  0.00     0.030 A 
HETATM   44  C44 UNL     1      -1.955  -2.537  -1.185  1.00  0.00     0.034 A 
HETATM   45  C45 UNL     1      -1.629  -2.927  -2.488  1.00  0.00     0.030 A 
HETATM   46  C46 UNL     1      -1.770  -2.033  -3.553  1.00  0.00     0.011 A 
HETATM   47  C47 UNL     1      -1.554  -3.147   1.205  1.00  0.00     0.245 C 
HETATM   48  C48 UNL     1      -1.205  -4.386   2.071  1.00  0.00     0.177 C 
HETATM   49  C49 UNL     1      -2.452  -5.150   2.542  1.00  0.00     0.036 C 
HETATM   50  C50 UNL     1      -3.166  -5.974   1.463  1.00  0.00     0.022 C 
HETATM   51  C51 UNL     1      -2.654  -7.405   1.279  1.00  0.00     0.124 C 
HETATM   52  C52 UNL     1      -0.714  -7.035  -0.202  1.00  0.00     0.313 C 
HETATM   53  C53 UNL     1      -0.689  -3.415   4.355  1.00  0.00     0.241 C 
HETATM   54  C54 UNL     1       0.507  -3.007   5.265  1.00  0.00     0.180 C 
HETATM   55  C55 UNL     1       0.918  -1.525   5.109  1.00  0.00     0.009 C 
HETATM   56  C56 UNL     1      -0.197  -0.584   5.572  1.00  0.00     0.012 C 
HETATM   57  C57 UNL     1       1.362  -1.152   3.696  1.00  0.00     0.012 C 
HETATM   58  C58 UNL     1       2.777  -4.019   5.670  1.00  0.00     0.218 C 
HETATM   59  C59 UNL     1       3.638  -5.216   5.303  1.00  0.00     0.103 C 
HETATM   60  C60 UNL     1       3.842  -5.369   3.794  1.00  0.00     0.009 C 
HETATM   61  C61 UNL     1       4.509  -6.700   3.442  1.00  0.00     0.002 C 
HETATM   62  C62 UNL     1       4.414  -6.961   1.939  1.00  0.00     0.020 C 
HETATM   63  C63 UNL     1       4.995  -8.323   1.554  1.00  0.00     0.135 C 
HETATM   64  C64 UNL     1       3.490  -9.255  -0.188  1.00  0.00     0.228 C 
HETATM   65  C65 UNL     1       3.535  -9.464  -1.673  1.00  0.00     0.128 C 
HETATM   66  C66 UNL     1       4.453  -8.335  -2.128  1.00  0.00     0.148 C 
HETATM   67  C67 UNL     1       5.314  -8.122  -0.898  1.00  0.00     0.240 C 
HETATM   68  C68 UNL     1       4.418  -5.985  -3.681  1.00  0.00     0.084 C 
HETATM   69  C69 UNL     1       5.638  -5.260  -3.155  1.00  0.00    -0.023 A 
HETATM   70  C70 UNL     1       6.589  -4.710  -4.207  1.00  0.00     0.011 A 
HETATM   71  C71 UNL     1       6.997  -5.898  -3.392  1.00  0.00     0.011 A 
HETATM   72  C72 UNL     1       5.476  -4.424  -1.886  1.00  0.00     0.123 C 
HETATM   73  C73 UNL     1       4.341  -3.425  -1.907  1.00  0.00     0.282 C 
HETATM   74  C74 UNL     1       3.530  -0.645  -0.761  1.00  0.00     0.251 C 
HETATM   75  C75 UNL     1       2.325   0.189  -0.446  1.00  0.00     0.115 C 
HETATM   76  C76 UNL     1       1.241  -0.831  -0.115  1.00  0.00     0.115 C 
HETATM   77  C77 UNL     1       1.998  -2.122   0.031  1.00  0.00     0.251 C 
HETATM   78  O1  UNL     1      -2.467   4.246   2.127  1.00  0.00    -0.273 OA
HETATM   79  O2  UNL     1      -7.055   4.841   0.903  1.00  0.00    -0.273 OA
HETATM   80  O3  UNL     1      -5.265   3.534   5.031  1.00  0.00    -0.388 OA
HETATM   81  O4  UNL     1      -4.779   0.263   1.120  1.00  0.00    -0.394 OA
HETATM   82  O5  UNL     1       0.167   2.276   0.350  1.00  0.00    -0.388 OA
HETATM   83  O6  UNL     1      -0.552   6.024  -1.102  1.00  0.00    -0.271 OA
HETATM   84  O7  UNL     1       3.161   3.519  -3.151  1.00  0.00    -0.271 OA
HETATM   85  O8  UNL     1      -1.650   2.107  -6.240  1.00  0.00    -0.238 OA
HETATM   86  O9  UNL     1      -1.091   1.015  -4.325  1.00  0.00    -0.299 OA
HETATM   87  O10 UNL     1      -1.667  -2.026   1.700  1.00  0.00    -0.271 OA
HETATM   88  O11 UNL     1      -1.189  -6.116  -0.853  1.00  0.00    -0.248 OA
HETATM   89  O12 UNL     1      -1.855  -3.201   4.670  1.00  0.00    -0.271 OA
HETATM   90  O13 UNL     1       3.107  -3.222   6.540  1.00  0.00    -0.274 OA
HETATM   91  O14 UNL     1       2.553  -9.557   0.536  1.00  0.00    -0.273 OA
HETATM   92  O15 UNL     1       6.373  -7.513  -0.864  1.00  0.00    -0.272 OA
HETATM   93  O16 UNL     1       3.702  -3.083  -2.894  1.00  0.00    -0.263 OA
HETATM   94  O17 UNL     1       4.152  -2.934  -0.641  1.00  0.00    -0.187 OA
HETATM   95  O18 UNL     1       4.642  -0.202  -1.009  1.00  0.00    -0.271 OA
HETATM   96  O19 UNL     1       1.622  -3.105   0.656  1.00  0.00    -0.271 OA
HETATM   97  N1  UNL     1      -3.197   2.230   2.865  1.00  0.00    -0.342 N 
HETATM   98  N2  UNL     1      -4.873   5.491   1.138  1.00  0.00    -0.360 N 
HETATM   99  N3  UNL     1       1.159   4.966   0.020  1.00  0.00    -0.347 N 
HETATM  100  N4  UNL     1       1.075   4.449  -3.184  1.00  0.00    -0.346 N 
HETATM  101  N5  UNL     1       0.349   2.561  -5.186  1.00  0.00    -0.319 N 
HETATM  102  N6  UNL     1      -1.680  -3.446  -0.145  1.00  0.00    -0.325 N 
HETATM  103  N7  UNL     1      -1.261  -7.584   0.919  1.00  0.00    -0.343 N 
HETATM  104  N8  UNL     1       0.476  -7.595  -0.523  1.00  0.00    -0.352 N 
HETATM  105  N9  UNL     1      -0.297  -4.000   3.160  1.00  0.00    -0.346 N 
HETATM  106  N10 UNL     1       1.593  -3.958   4.977  1.00  0.00    -0.347 N 
HETATM  107  N11 UNL     1       4.659  -8.653   0.181  1.00  0.00    -0.287 N 
HETATM  108  N12 UNL     1       3.169  -1.946  -0.628  1.00  0.00    -0.145 N 
HETATM  109  F1  UNL     1      -6.690   5.730  -2.629  1.00  0.00    -0.205 F 
HETATM  110  F2  UNL     1      -2.293   3.955  -2.802  1.00  0.00    -0.205 F 
HETATM  111  S1  UNL     1       3.431  -6.836  -2.429  1.00  0.00    -0.153 SA
HETATM  112  HA6 UNL     1      -5.677  -0.091   0.987  1.00  0.00     0.210 HD
HETATM  113  HA7 UNL     1      -4.012   5.340   1.662  1.00  0.00     0.162 HD
HETATM  114  HA8 UNL     1       0.086   4.253  -3.313  1.00  0.00     0.163 HD
HETATM  115  HA9 UNL     1      -1.396  -4.383  -0.445  1.00  0.00     0.169 HD
HETATM  116  HB0 UNL     1      -0.890  -8.503   1.118  1.00  0.00     0.164 HD
HETATM  117  HB1 UNL     1       1.000  -7.120  -1.249  1.00  0.00     0.160 HD
HETATM  118  HB2 UNL     1       1.026  -8.062   0.189  1.00  0.00     0.160 HD
HETATM  119  HB3 UNL     1       0.626  -3.721   2.837  1.00  0.00     0.163 HD
HETATM  120  HB4 UNL     1       1.279  -4.829   4.564  1.00  0.00     0.163 HD
ENDROOT
TORSDOF 47
