REMARK  20 active torsions:
REMARK  status: ('A' for Active; 'I' for Inactive)
REMARK    1  A    between atoms: C4_4  and  N9_57 
REMARK    2  A    between atoms: C5_5  and  N8_56 
REMARK    3  A    between atoms: C7_7  and  N1_43 
REMARK    4  A    between atoms: C8_8  and  N2_45 
REMARK    5  A    between atoms: C15_15  and  N5_51 
REMARK    6  A    between atoms: C18_18  and  S1_75 
REMARK    7  A    between atoms: C22_22  and  N6_52 
REMARK    8  A    between atoms: C23_23  and  O8_69 
REMARK    9  A    between atoms: C24_24  and  N7_54 
REMARK   10  A    between atoms: C31_31  and  N10_59 
REMARK   11  A    between atoms: C33_33  and  S3_77 
REMARK   12  A    between atoms: C34_34  and  N11_61 
REMARK   13  A    between atoms: C37_37  and  N11_61 
REMARK   14  A    between atoms: N3_47  and  N4_49 
REMARK   15  A    between atoms: N5_51  and  O1_62 
REMARK   16  A    between atoms: N5_51  and  O2_63 
REMARK   17  A    between atoms: N8_56  and  S2_76 
REMARK   18  A    between atoms: O6_67  and  S1_75 
REMARK   19  A    between atoms: O12_73  and  S3_77 
REMARK   20  A    between atoms: O13_74  and  S3_77 
ROOT
HETATM    1  C8  UNL     1      -2.531  -1.395   0.362  1.00  0.00     0.086 C 
HETATM    2  C9  UNL     1      -3.368  -0.361   0.497  1.00  0.00     0.069 C 
HETATM    3  C10 UNL     1      -4.832  -0.573   0.416  1.00  0.00     0.102 C 
HETATM    4  C21 UNL     1      -5.325  -2.011   0.347  1.00  0.00     0.230 C 
HETATM    5  C22 UNL     1      -4.316  -3.071   0.058  1.00  0.00     0.136 C 
HETATM    6  C23 UNL     1      -3.012  -2.745   0.097  1.00  0.00     0.126 C 
HETATM    7  N3  UNL     1      -5.737   0.360   0.408  1.00  0.00    -0.296 N 
ATOM      8  H3  UNL     1      -6.735   0.161   0.346  1.00  0.00     0.187 HD
HETATM    9  O7  UNL     1      -6.511  -2.254   0.547  1.00  0.00    -0.283 OA
ENDROOT
BRANCH   1  10
HETATM   10  N2  UNL     1      -1.170  -1.198   0.378  1.00  0.00    -0.297 N 
HETATM   11  N1  UNL     1      -0.578  -1.679   1.368  1.00  0.00    -0.300 N 
ATOM     12  H1  UNL     1      -1.028  -2.235   2.095  1.00  0.00     0.187 HD
ATOM     13  H2  UNL     1      -0.680  -0.697  -0.363  1.00  0.00     0.187 HD
BRANCH  11  14
HETATM   14  C7  UNL     1       0.795  -1.351   1.347  1.00  0.00     0.056 A 
HETATM   15  C2  UNL     1       1.378  -0.725   2.466  1.00  0.00    -0.032 A 
HETATM   16  C1  UNL     1       0.545  -0.373   3.667  1.00  0.00     0.050 C 
HETATM   17  C3  UNL     1       2.755  -0.441   2.466  1.00  0.00     0.041 A 
HETATM   18  C4  UNL     1       3.561  -0.761   1.368  1.00  0.00     0.070 A 
HETATM   19  C5  UNL     1       2.967  -1.385   0.256  1.00  0.00     0.052 A 
HETATM   20  C6  UNL     1       1.605  -1.691   0.253  1.00  0.00     0.058 A 
BRANCH  18  21
HETATM   21  N9  UNL     1       4.943  -0.493   1.440  1.00  0.00    -0.299 N 
HETATM   22  N10 UNL     1       5.279   0.347   0.576  1.00  0.00    -0.300 N 
ATOM     23  H10 UNL     1       4.641   0.772  -0.097  1.00  0.00     0.187 HD
ATOM     24  H9  UNL     1       5.583  -0.926   2.106  1.00  0.00     0.187 HD
BRANCH  22  25
HETATM   25  C31 UNL     1       6.657   0.626   0.659  1.00  0.00     0.049 A 
HETATM   26  C32 UNL     1       7.069   1.956   0.767  1.00  0.00     0.057 A 
HETATM   27  C33 UNL     1       8.431   2.269   0.818  1.00  0.00     0.087 A 
HETATM   28  C34 UNL     1       9.410   1.267   0.776  1.00  0.00     0.035 A 
HETATM   29  C35 UNL     1       8.992  -0.061   0.632  1.00  0.00     0.027 A 
HETATM   30  C36 UNL     1       7.631  -0.378   0.576  1.00  0.00     0.033 A 
BRANCH  27  31
HETATM   31  S3  UNL     1       8.876   3.932   0.908  1.00  0.00     0.124 S 
HETATM   32  O11 UNL     1      10.151   3.986   1.926  1.00  0.00    -0.604 OA
BRANCH  31  33
HETATM   33  O12 UNL     1       7.742   4.885   1.510  1.00  0.00    -0.298 OA
HETATM   34  H33 UNL     1       8.085   5.794   1.656  1.00  0.00     0.231 HD
ENDBRANCH  31  33
BRANCH  31  35
HETATM   35  O13 UNL     1       9.351   4.540  -0.492  1.00  0.00    -0.298 OA
HETATM   36  H34 UNL     1      10.189   4.125  -0.806  1.00  0.00     0.231 HD
ENDBRANCH  31  35
ENDBRANCH  27  31
BRANCH  28  37
HETATM   37  N11 UNL     1      10.797   1.554   0.793  1.00  0.00    -0.258 NA
HETATM   38  H28 UNL     1      10.980   2.310   1.470  1.00  0.00     0.134 HD
BRANCH  37  39
HETATM   39  C37 UNL     1      11.599   1.759  -0.359  1.00  0.00     0.012 A 
HETATM   40  C38 UNL     1      12.853   2.368  -0.205  1.00  0.00     0.024 A 
HETATM   41  C39 UNL     1      13.693   2.568  -1.303  1.00  0.00     0.002 A 
HETATM   42  C40 UNL     1      13.300   2.139  -2.567  1.00  0.00     0.000 A 
HETATM   43  C41 UNL     1      12.074   1.500  -2.730  1.00  0.00     0.002 A 
HETATM   44  C42 UNL     1      11.234   1.301  -1.631  1.00  0.00     0.024 A 
ENDBRANCH  37  39
ENDBRANCH  28  37
ENDBRANCH  22  25
ENDBRANCH  18  21
BRANCH  19  45
HETATM   45  N8  UNL     1       3.774  -1.806  -0.861  1.00  0.00    -0.184 NA
HETATM   46  H27 UNL     1       4.596  -1.195  -0.959  1.00  0.00     0.146 HD
BRANCH  45  47
HETATM   47  S2  UNL     1       4.360  -3.400  -0.766  1.00  0.00     0.210 S 
HETATM   48  C30 UNL     1       3.818  -4.023  -2.340  1.00  0.00     0.180 C 
HETATM   49  O9  UNL     1       5.803  -3.298  -0.798  1.00  0.00    -0.211 OA
HETATM   50  O10 UNL     1       3.664  -4.129   0.270  1.00  0.00    -0.211 OA
ENDBRANCH  45  47
ENDBRANCH  19  45
ENDBRANCH  11  14
ENDBRANCH   1  10
BRANCH   6  51
HETATM   51  O8  UNL     1      -2.035  -3.712  -0.109  1.00  0.00    -0.356 OA
HETATM   52  H32 UNL     1      -1.180  -3.321   0.159  1.00  0.00     0.218 HD
ENDBRANCH   6  51
BRANCH   5  53
HETATM   53  N6  UNL     1      -4.760  -4.351  -0.163  1.00  0.00    -0.294 N 
HETATM   54  N7  UNL     1      -5.270  -4.520  -1.293  1.00  0.00    -0.300 N 
ATOM     55  H7  UNL     1      -5.340  -3.806  -2.018  1.00  0.00     0.187 HD
ATOM     56  H6  UNL     1      -4.681  -5.095   0.530  1.00  0.00     0.187 HD
BRANCH  54  57
HETATM   57  C24 UNL     1      -5.732  -5.841  -1.414  1.00  0.00     0.048 A 
HETATM   58  C25 UNL     1      -4.858  -6.879  -1.759  1.00  0.00     0.031 A 
HETATM   59  C26 UNL     1      -5.332  -8.185  -1.905  1.00  0.00     0.002 A 
HETATM   60  C27 UNL     1      -6.686  -8.459  -1.714  1.00  0.00     0.000 A 
HETATM   61  C28 UNL     1      -7.566  -7.430  -1.378  1.00  0.00     0.002 A 
HETATM   62  C29 UNL     1      -7.090  -6.126  -1.233  1.00  0.00     0.031 A 
ENDBRANCH  54  57
ENDBRANCH   5  53
BRANCH   7  63
HETATM   63  N4  UNL     1      -5.233   1.648   0.491  1.00  0.00    -0.296 N 
HETATM   64  C11 UNL     1      -6.112   2.607   0.531  1.00  0.00     0.109 C 
HETATM   65  C12 UNL     1      -7.599   2.536   0.559  1.00  0.00     0.008 A 
HETATM   66  C20 UNL     1      -5.544   4.014   0.479  1.00  0.00     0.202 C 
HETATM   67  C13 UNL     1      -8.330   3.599  -0.022  1.00  0.00     0.002 A 
HETATM   68  C17 UNL     1      -8.259   1.476   1.193  1.00  0.00     0.017 A 
HETATM   69  C14 UNL     1      -9.736   3.527   0.048  1.00  0.00     0.048 A 
HETATM   70  C18 UNL     1      -7.576   4.731  -0.610  1.00  0.00     0.087 C 
HETATM   71  C15 UNL     1     -10.413   2.456   0.664  1.00  0.00     0.088 A 
HETATM   72  C16 UNL     1      -9.652   1.433   1.232  1.00  0.00     0.035 A 
HETATM   73  C19 UNL     1      -6.282   4.970  -0.355  1.00  0.00     0.083 C 
HETATM   74  O3  UNL     1      -4.515   4.321   1.058  1.00  0.00    -0.286 OA
ATOM     75  H4  UNL     1      -4.230   1.834   0.519  1.00  0.00     0.187 HD
BRANCH  71  76
HETATM   76  N5  UNL     1     -11.830   2.419   0.701  1.00  0.00    -0.129 N 
BRANCH  76  77
HETATM   77  O1  UNL     1     -12.566   3.562   0.447  1.00  0.00    -0.263 OA
HETATM   78  H29 UNL     1     -12.913   3.763   1.334  1.00  0.00     0.247 HD
ENDBRANCH  76  77
BRANCH  76  79
HETATM   79  O2  UNL     1     -12.489   1.441   1.424  1.00  0.00    -0.263 OA
HETATM   80  H30 UNL     1     -12.800   0.852   0.712  1.00  0.00     0.247 HD
ENDBRANCH  76  79
ENDBRANCH  71  76
BRANCH  70  81
HETATM   81  S1  UNL     1      -8.411   5.806  -1.674  1.00  0.00     0.130 S 
HETATM   82  O4  UNL     1      -7.509   6.805  -2.211  1.00  0.00    -0.598 OA
HETATM   83  O5  UNL     1      -9.306   5.095  -2.558  1.00  0.00    -0.598 OA
BRANCH  81  84
HETATM   84  O6  UNL     1      -9.328   6.610  -0.617  1.00  0.00    -0.292 OA
HETATM   85  H31 UNL     1      -9.610   7.448  -1.041  1.00  0.00     0.232 HD
ENDBRANCH  81  84
ENDBRANCH  70  81
ENDBRANCH   7  63
TORSDOF 20
