REMARK  0 active torsions:
REMARK  status: ('A' for Active; 'I' for Inactive)
REMARK       I    between atoms: C3_3  and  S2_69 
REMARK       I    between atoms: C6_6  and  N1_44 
REMARK       I    between atoms: C7_7  and  C8_8 
REMARK       I    between atoms: C7_7  and  N1_44 
REMARK       I    between atoms: C8_8  and  C9_9 
REMARK       I    between atoms: C9_9  and  C10_10 
REMARK       I    between atoms: C10_10  and  C11_11 
REMARK       I    between atoms: C11_11  and  C12_12 
REMARK       I    between atoms: C12_12  and  C13_13 
REMARK       I    between atoms: C13_13  and  N2_45 
REMARK       I    between atoms: C14_14  and  N2_45 
REMARK       I    between atoms: C17_17  and  S1_68 
REMARK       I    between atoms: C20_20  and  S1_68 
REMARK       I    between atoms: C21_21  and  O12_57 
REMARK       I    between atoms: C22_22  and  O11_56 
REMARK       I    between atoms: C23_23  and  O5_50 
REMARK       I    between atoms: C24_24  and  C25_25 
REMARK       I    between atoms: C25_25  and  O4_49 
REMARK       I    between atoms: C26_26  and  O5_50 
REMARK       I    between atoms: C27_27  and  O10_55 
REMARK       I    between atoms: C28_28  and  O9_54 
REMARK       I    between atoms: C29_29  and  O8_53 
REMARK       I    between atoms: C30_30  and  C31_31 
REMARK       I    between atoms: C31_31  and  O7_52 
REMARK       I    between atoms: C32_32  and  S2_69 
REMARK       I    between atoms: C33_33  and  O22_67 
REMARK       I    between atoms: C34_34  and  O21_66 
REMARK       I    between atoms: C35_35  and  O15_60 
REMARK       I    between atoms: C36_36  and  C37_37 
REMARK       I    between atoms: C37_37  and  O14_59 
REMARK       I    between atoms: C38_38  and  O15_60 
REMARK       I    between atoms: C39_39  and  O20_65 
REMARK       I    between atoms: C40_40  and  O19_64 
REMARK       I    between atoms: C41_41  and  O18_63 
REMARK       I    between atoms: C42_42  and  C43_43 
REMARK       I    between atoms: C43_43  and  O17_62 
ROOT
HETATM    1  C1  UNL     1       4.147  -1.715  -2.232  1.00  0.00     0.031 A 
HETATM    2  C2  UNL     1       5.170  -2.208  -1.411  1.00  0.00     0.021 A 
HETATM    3  C3  UNL     1       5.157  -1.965  -0.037  1.00  0.00     0.003 A 
HETATM    4  C4  UNL     1       4.092  -1.247   0.512  1.00  0.00     0.021 A 
HETATM    5  C5  UNL     1       3.070  -0.757  -0.307  1.00  0.00     0.031 A 
HETATM    6  C6  UNL     1       3.091  -0.984  -1.688  1.00  0.00     0.034 A 
HETATM    7  C7  UNL     1       1.831  -0.540  -3.814  1.00  0.00     0.222 C 
HETATM    8  C8  UNL     1       0.525   0.127  -4.223  1.00  0.00     0.103 C 
HETATM    9  C9  UNL     1       0.253   0.103  -5.726  1.00  0.00     0.009 C 
HETATM   10  C10 UNL     1      -0.136  -1.268  -6.292  1.00  0.00     0.001 C 
HETATM   11  C11 UNL     1      -1.643  -1.564  -6.338  1.00  0.00     0.009 C 
HETATM   12  C12 UNL     1      -2.260  -1.987  -5.005  1.00  0.00     0.103 C 
HETATM   13  C13 UNL     1      -2.798  -0.841  -4.160  1.00  0.00     0.222 C 
HETATM   14  C14 UNL     1      -3.759  -0.526  -1.864  1.00  0.00     0.034 A 
HETATM   15  C15 UNL     1      -3.897   0.860  -1.895  1.00  0.00     0.031 A 
HETATM   16  C16 UNL     1      -4.426   1.546  -0.793  1.00  0.00     0.021 A 
HETATM   17  C17 UNL     1      -4.834   0.859   0.354  1.00  0.00     0.003 A 
HETATM   18  C18 UNL     1      -4.677  -0.527   0.392  1.00  0.00     0.021 A 
HETATM   19  C19 UNL     1      -4.150  -1.213  -0.709  1.00  0.00     0.031 A 
HETATM   20  C20 UNL     1      -6.812   0.733   2.372  1.00  0.00     0.219 C 
HETATM   21  C21 UNL     1      -7.594   1.491   3.462  1.00  0.00     0.188 C 
HETATM   22  C22 UNL     1      -8.947   0.814   3.644  1.00  0.00     0.181 C 
HETATM   23  C23 UNL     1      -9.776   0.908   2.358  1.00  0.00     0.187 C 
HETATM   24  C24 UNL     1      -8.897   0.765   1.089  1.00  0.00     0.178 C 
HETATM   25  C25 UNL     1      -8.749   2.091   0.324  1.00  0.00     0.198 C 
HETATM   26  C26 UNL     1     -11.935   0.092   1.683  1.00  0.00     0.292 C 
HETATM   27  C27 UNL     1     -12.935   0.894   2.552  1.00  0.00     0.204 C 
HETATM   28  C28 UNL     1     -14.360   0.806   1.987  1.00  0.00     0.183 C 
HETATM   29  C29 UNL     1     -14.372   0.291   0.545  1.00  0.00     0.180 C 
HETATM   30  C30 UNL     1     -13.633  -1.055   0.432  1.00  0.00     0.179 C 
HETATM   31  C31 UNL     1     -13.183  -1.301  -1.019  1.00  0.00     0.198 C 
HETATM   32  C32 UNL     1       7.954  -1.934   0.251  1.00  0.00     0.219 C 
HETATM   33  C33 UNL     1       8.044  -0.395   0.116  1.00  0.00     0.188 C 
HETATM   34  C34 UNL     1       8.484   0.296   1.418  1.00  0.00     0.181 C 
HETATM   35  C35 UNL     1       9.733  -0.383   2.010  1.00  0.00     0.187 C 
HETATM   36  C36 UNL     1       9.464  -1.897   2.143  1.00  0.00     0.178 C 
HETATM   37  C37 UNL     1      10.664  -2.680   2.685  1.00  0.00     0.198 C 
HETATM   38  C38 UNL     1      12.041   0.251   1.735  1.00  0.00     0.292 C 
HETATM   39  C39 UNL     1      12.134   1.795   1.811  1.00  0.00     0.204 C 
HETATM   40  C40 UNL     1      12.747   2.304   0.514  1.00  0.00     0.183 C 
HETATM   41  C41 UNL     1      14.194   1.807   0.417  1.00  0.00     0.180 C 
HETATM   42  C42 UNL     1      14.336   0.344   0.902  1.00  0.00     0.179 C 
HETATM   43  C43 UNL     1      15.072   0.215   2.247  1.00  0.00     0.198 C 
HETATM   44  N1  UNL     1       2.021  -0.460  -2.442  1.00  0.00    -0.327 N 
HETATM   45  N2  UNL     1      -3.237  -1.294  -2.925  1.00  0.00    -0.327 N 
HETATM   46  O1  UNL     1       2.580  -1.074  -4.622  1.00  0.00    -0.273 OA
HETATM   47  O2  UNL     1      -2.812   0.319  -4.554  1.00  0.00    -0.273 OA
HETATM   48  O3  UNL     1      -7.624   0.163   1.346  1.00  0.00    -0.362 OA
HETATM   49  O4  UNL     1     -10.024   2.558  -0.107  1.00  0.00    -0.398 OA
HETATM   50  O5  UNL     1     -10.739  -0.162   2.427  1.00  0.00    -0.348 OA
HETATM   51  O6  UNL     1     -12.509  -1.162   1.322  1.00  0.00    -0.348 OA
HETATM   52  O7  UNL     1     -12.791  -2.661  -1.191  1.00  0.00    -0.398 OA
HETATM   53  O8  UNL     1     -15.727   0.185   0.084  1.00  0.00    -0.390 OA
HETATM   54  O9  UNL     1     -14.977   2.106   2.009  1.00  0.00    -0.390 OA
HETATM   55  O10 UNL     1     -12.957   0.377   3.900  1.00  0.00    -0.388 OA
HETATM   56  O11 UNL     1      -9.663   1.458   4.711  1.00  0.00    -0.390 OA
HETATM   57  O12 UNL     1      -6.898   1.489   4.719  1.00  0.00    -0.389 OA
HETATM   58  O13 UNL     1       9.131  -2.482   0.871  1.00  0.00    -0.362 OA
HETATM   59  O14 UNL     1      11.066  -2.204   3.965  1.00  0.00    -0.398 OA
HETATM   60  O15 UNL     1      10.824  -0.154   1.096  1.00  0.00    -0.348 OA
HETATM   61  O16 UNL     1      13.085  -0.344   0.950  1.00  0.00    -0.348 OA
HETATM   62  O17 UNL     1      16.382   0.763   2.186  1.00  0.00    -0.398 OA
HETATM   63  O18 UNL     1      14.608   1.913  -0.957  1.00  0.00    -0.390 OA
HETATM   64  O19 UNL     1      12.720   3.744   0.512  1.00  0.00    -0.390 OA
HETATM   65  O20 UNL     1      10.881   2.439   2.067  1.00  0.00    -0.388 OA
HETATM   66  O21 UNL     1       7.427   0.314   2.381  1.00  0.00    -0.390 OA
HETATM   67  O22 UNL     1       8.981  -0.067  -0.932  1.00  0.00    -0.389 OA
HETATM   68  S1  UNL     1      -5.485   1.819   1.712  1.00  0.00    -0.095 SA
HETATM   69  S2  UNL     1       6.425  -2.578   1.054  1.00  0.00    -0.095 SA
HETATM   70  H47 UNL     1       1.316   0.046  -1.919  1.00  0.00     0.169 HD
HETATM   71  H48 UNL     1      -3.193  -2.293  -2.768  1.00  0.00     0.169 HD
HETATM   72  H49 UNL     1      -9.865   3.353  -0.649  1.00  0.00     0.209 HD
HETATM   73  H50 UNL     1     -12.411  -2.742  -2.081  1.00  0.00     0.209 HD
HETATM   74  H51 UNL     1     -16.172  -0.502   0.616  1.00  0.00     0.210 HD
HETATM   75  H52 UNL     1     -15.802   2.022   1.494  1.00  0.00     0.210 HD
HETATM   76  H53 UNL     1     -12.023   0.176   4.118  1.00  0.00     0.210 HD
HETATM   77  H54 UNL     1      -9.031   1.496   5.458  1.00  0.00     0.210 HD
HETATM   78  H55 UNL     1      -6.051   1.952   4.576  1.00  0.00     0.210 HD
HETATM   79  H56 UNL     1      11.709  -2.849   4.309  1.00  0.00     0.209 HD
HETATM   80  H57 UNL     1      16.901   0.218   1.568  1.00  0.00     0.209 HD
HETATM   81  H58 UNL     1      14.832   2.846  -1.116  1.00  0.00     0.210 HD
HETATM   82  H59 UNL     1      12.797   4.017  -0.421  1.00  0.00     0.210 HD
HETATM   83  H60 UNL     1      11.021   3.372   1.805  1.00  0.00     0.210 HD
HETATM   84  H61 UNL     1       6.744   0.920   2.043  1.00  0.00     0.210 HD
HETATM   85  H62 UNL     1       9.871  -0.303  -0.586  1.00  0.00     0.210 HD
ENDROOT
TORSDOF 34
