REMARK  0 active torsions:
REMARK  status: ('A' for Active; 'I' for Inactive)
REMARK       I    between atoms: C5_5  and  C8_8 
REMARK       I    between atoms: C8_8  and  C9_9 
REMARK       I    between atoms: C9_9  and  C10_10 
REMARK       I    between atoms: C10_10  and  C11_11 
REMARK       I    between atoms: C11_11  and  N1_97 
REMARK       I    between atoms: C12_12  and  C13_13 
REMARK       I    between atoms: C12_12  and  N1_97 
REMARK       I    between atoms: C13_13  and  N2_98 
REMARK       I    between atoms: C14_14  and  C15_15 
REMARK       I    between atoms: C14_14  and  N2_98 
REMARK       I    between atoms: C15_15  and  C16_16 
REMARK       I    between atoms: C15_15  and  N13_110 
REMARK       I    between atoms: C16_16  and  C17_17 
REMARK       I    between atoms: C17_17  and  C18_18 
REMARK       I    between atoms: C18_18  and  C19_19 
REMARK       I    between atoms: C19_19  and  N3_99 
REMARK       I    between atoms: C20_20  and  C21_21 
REMARK       I    between atoms: C20_20  and  N3_99 
REMARK       I    between atoms: C24_24  and  C27_27 
REMARK       I    between atoms: C27_27  and  N4_100 
REMARK       I    between atoms: C28_28  and  C29_29 
REMARK       I    between atoms: C28_28  and  N4_100 
REMARK       I    between atoms: C29_29  and  C30_30 
REMARK       I    between atoms: C30_30  and  C31_31 
REMARK       I    between atoms: C31_31  and  C32_32 
REMARK       I    between atoms: C31_31  and  N11_108 
REMARK       I    between atoms: C32_32  and  N5_101 
REMARK       I    between atoms: C33_33  and  C34_34 
REMARK       I    between atoms: C33_33  and  C38_38 
REMARK       I    between atoms: C33_33  and  N5_101 
REMARK       I    between atoms: C34_34  and  C35_35 
REMARK       I    between atoms: C35_35  and  C36_36 
REMARK       I    between atoms: C36_36  and  N6_102 
REMARK       I    between atoms: C37_37  and  N6_102 
REMARK       I    between atoms: C37_37  and  N8_105 
REMARK       I    between atoms: C38_38  and  N9_106 
REMARK       I    between atoms: C39_39  and  C40_40 
REMARK       I    between atoms: C39_39  and  C51_51 
REMARK       I    between atoms: C39_39  and  N9_106 
REMARK       I    between atoms: C40_40  and  C41_41 
REMARK       I    between atoms: C51_51  and  N10_107 
REMARK       I    between atoms: C52_52  and  C53_53 
REMARK       I    between atoms: C52_52  and  N10_107 
REMARK       I    between atoms: C55_55  and  C56_56 
REMARK       I    between atoms: C55_55  and  N11_108 
REMARK       I    between atoms: C56_56  and  C57_57 
REMARK       I    between atoms: C56_56  and  N12_109 
REMARK       I    between atoms: C57_57  and  C58_58 
REMARK       I    between atoms: C61_61  and  O10_89 
REMARK       I    between atoms: C64_64  and  C65_65 
REMARK       I    between atoms: C64_64  and  N13_110 
REMARK       I    between atoms: C65_65  and  N14_111 
REMARK       I    between atoms: C74_74  and  O12_91 
REMARK       I    between atoms: C74_74  and  N17_114 
REMARK       I    between atoms: C75_75  and  O12_91 
REMARK       I    between atoms: C76_76  and  C77_77 
REMARK       I    between atoms: C76_76  and  N16_113 
REMARK       I    between atoms: C77_77  and  O15_94 
REMARK       I    between atoms: C78_78  and  C79_79 
REMARK       I    between atoms: C78_78  and  N15_112 
REMARK       I    between atoms: C79_79  and  O17_96 
ROOT
HETATM    1  C1  UNL     1     -14.230  -5.249 -10.324  1.00  0.00     0.048 C 
HETATM    2  C2  UNL     1     -12.742  -5.340 -10.490  1.00  0.00    -0.062 A 
HETATM    3  C3  UNL     1     -12.032  -4.306 -11.109  1.00  0.00     0.007 A 
HETATM    4  C4  UNL     1     -10.642  -4.377 -11.237  1.00  0.00     0.007 A 
HETATM    5  C5  UNL     1      -9.937  -5.478 -10.736  1.00  0.00    -0.058 A 
HETATM    6  C6  UNL     1     -10.648  -6.507 -10.107  1.00  0.00     0.007 A 
HETATM    7  C7  UNL     1     -12.037  -6.436  -9.979  1.00  0.00     0.007 A 
HETATM    8  C8  UNL     1      -8.435  -5.550 -10.865  1.00  0.00     0.039 C 
HETATM    9  C9  UNL     1      -7.694  -5.420  -9.531  1.00  0.00     0.014 C 
HETATM   10  C10 UNL     1      -7.896  -4.058  -8.867  1.00  0.00     0.103 C 
HETATM   11  C11 UNL     1      -7.074  -3.913  -7.602  1.00  0.00     0.217 C 
HETATM   12  C12 UNL     1      -6.606  -2.384  -5.722  1.00  0.00     0.142 C 
HETATM   13  C13 UNL     1      -7.193  -3.130  -4.517  1.00  0.00     0.142 C 
HETATM   14  C14 UNL     1      -6.661  -1.638  -2.622  1.00  0.00     0.240 C 
HETATM   15  C15 UNL     1      -5.805  -1.467  -1.351  1.00  0.00     0.176 C 
HETATM   16  C16 UNL     1      -4.293  -1.489  -1.629  1.00  0.00     0.035 C 
HETATM   17  C17 UNL     1      -3.786  -0.582  -2.759  1.00  0.00     0.004 C 
HETATM   18  C18 UNL     1      -3.968   0.928  -2.572  1.00  0.00     0.020 C 
HETATM   19  C19 UNL     1      -3.303   1.513  -1.325  1.00  0.00     0.123 C 
HETATM   20  C20 UNL     1      -0.991   2.018  -2.029  1.00  0.00     0.251 C 
HETATM   21  C21 UNL     1       0.445   1.632  -1.934  1.00  0.00     0.032 A 
HETATM   22  C22 UNL     1       1.277   1.897  -3.029  1.00  0.00     0.018 A 
HETATM   23  C23 UNL     1       2.632   1.559  -2.982  1.00  0.00     0.018 A 
HETATM   24  C24 UNL     1       3.168   0.953  -1.839  1.00  0.00     0.032 A 
HETATM   25  C25 UNL     1       2.344   0.715  -0.731  1.00  0.00     0.018 A 
HETATM   26  C26 UNL     1       0.986   1.053  -0.779  1.00  0.00     0.018 A 
HETATM   27  C27 UNL     1       4.620   0.622  -1.830  1.00  0.00     0.251 C 
HETATM   28  C28 UNL     1       6.379  -0.892  -0.996  1.00  0.00     0.123 C 
HETATM   29  C29 UNL     1       7.309   0.048  -0.227  1.00  0.00     0.022 C 
HETATM   30  C30 UNL     1       6.979   0.113   1.271  1.00  0.00     0.037 C 
HETATM   31  C31 UNL     1       7.855   1.137   2.022  1.00  0.00     0.178 C 
HETATM   32  C32 UNL     1       9.055   0.518   2.788  1.00  0.00     0.241 C 
HETATM   33  C33 UNL     1      11.072  -0.928   2.625  1.00  0.00     0.176 C 
HETATM   34  C34 UNL     1      11.399  -2.229   1.874  1.00  0.00     0.036 C 
HETATM   35  C35 UNL     1      10.306  -3.305   1.925  1.00  0.00     0.022 C 
HETATM   36  C36 UNL     1       9.936  -3.806   3.323  1.00  0.00     0.122 C 
HETATM   37  C37 UNL     1      10.983  -5.118   5.132  1.00  0.00     0.143 C 
HETATM   38  C38 UNL     1      12.296   0.023   2.575  1.00  0.00     0.241 C 
HETATM   39  C39 UNL     1      13.014   2.406   2.686  1.00  0.00     0.180 C 
HETATM   40  C40 UNL     1      12.344   3.692   2.168  1.00  0.00     0.073 C 
HETATM   41  C41 UNL     1      11.449   3.524   0.951  1.00  0.00    -0.055 A 
HETATM   42  C42 UNL     1      11.674   2.543  -0.028  1.00  0.00     0.019 A 
HETATM   43  C43 UNL     1      10.788   2.361  -1.104  1.00  0.00    -0.025 A 
HETATM   44  C44 UNL     1      10.983   1.339  -2.048  1.00  0.00     0.012 A 
HETATM   45  C45 UNL     1      10.077   1.153  -3.093  1.00  0.00     0.001 A 
HETATM   46  C46 UNL     1       8.971   1.988  -3.210  1.00  0.00     0.001 A 
HETATM   47  C47 UNL     1       8.773   3.019  -2.291  1.00  0.00     0.012 A 
HETATM   48  C48 UNL     1       9.672   3.216  -1.231  1.00  0.00    -0.026 A 
HETATM   49  C49 UNL     1       9.486   4.240  -0.293  1.00  0.00     0.013 A 
HETATM   50  C50 UNL     1      10.364   4.392   0.783  1.00  0.00     0.008 A 
HETATM   51  C51 UNL     1      13.806   2.658   3.985  1.00  0.00     0.241 C 
HETATM   52  C52 UNL     1      15.315   1.593   5.619  1.00  0.00     0.192 C 
HETATM   53  C53 UNL     1      14.675   1.926   6.950  1.00  0.00     0.250 C 
HETATM   54  C54 UNL     1       7.112   3.452   2.546  1.00  0.00     0.153 C 
HETATM   55  C55 UNL     1       6.256   1.668   3.967  1.00  0.00     0.253 C 
HETATM   56  C56 UNL     1       6.192   0.188   4.409  1.00  0.00     0.313 C 
HETATM   57  C57 UNL     1       6.511   0.118   5.917  1.00  0.00     0.083 C 
HETATM   58  C58 UNL     1       6.918  -1.266   6.369  1.00  0.00    -0.054 A 
HETATM   59  C59 UNL     1       5.948  -2.244   6.637  1.00  0.00     0.028 A 
HETATM   60  C60 UNL     1       6.327  -3.533   7.024  1.00  0.00     0.040 A 
HETATM   61  C61 UNL     1       7.681  -3.850   7.138  1.00  0.00     0.082 A 
HETATM   62  C62 UNL     1       8.652  -2.880   6.895  1.00  0.00     0.038 A 
HETATM   63  C63 UNL     1       8.273  -1.594   6.506  1.00  0.00     0.010 A 
HETATM   64  C64 UNL     1      -6.169  -0.113   0.698  1.00  0.00     0.246 C 
HETATM   65  C65 UNL     1      -6.810   1.181   1.218  1.00  0.00     0.374 C 
HETATM   66  C66 UNL     1      -8.097   3.114   0.487  1.00  0.00     0.303 C 
HETATM   67  C67 UNL     1      -8.634   3.606   1.868  1.00  0.00     0.303 C 
HETATM   68  C68 UNL     1     -10.664   4.743   1.040  1.00  0.00     0.303 C 
HETATM   69  C69 UNL     1     -12.040   4.662   1.765  1.00  0.00     0.303 C 
HETATM   70  C70 UNL     1     -12.036   2.161   1.923  1.00  0.00     0.303 C 
HETATM   71  C71 UNL     1     -12.424   1.814   0.466  1.00  0.00     0.305 C 
HETATM   72  C72 UNL     1     -10.263   1.111  -0.550  1.00  0.00     0.305 C 
HETATM   73  C73 UNL     1      -9.115   0.840   0.471  1.00  0.00     0.303 C 
HETATM   74  C74 UNL     1     -11.776  -0.556   0.475  1.00  0.00     0.449 C 
HETATM   75  C75 UNL     1     -11.296  -2.818   0.230  1.00  0.00     0.399 C 
HETATM   76  C76 UNL     1     -13.895   3.449   2.803  1.00  0.00     0.381 C 
HETATM   77  C77 UNL     1     -14.286   4.610   3.704  1.00  0.00     0.169 C 
HETATM   78  C78 UNL     1      -8.661   6.037   1.517  1.00  0.00     0.381 C 
HETATM   79  C79 UNL     1      -7.538   6.313   2.504  1.00  0.00     0.169 C 
HETATM   80  O1  UNL     1      -6.303  -4.768  -7.181  1.00  0.00    -0.274 OA
HETATM   81  O2  UNL     1      -7.441  -0.770  -3.014  1.00  0.00    -0.271 OA
HETATM   82  O3  UNL     1      -1.331   2.933  -2.769  1.00  0.00    -0.268 OA
HETATM   83  O4  UNL     1       5.400   1.251  -2.536  1.00  0.00    -0.268 OA
HETATM   84  O5  UNL     1       9.303   0.756   3.969  1.00  0.00    -0.271 OA
HETATM   85  O6  UNL     1      13.448  -0.361   2.381  1.00  0.00    -0.271 OA
HETATM   86  O7  UNL     1      14.035   3.778   4.433  1.00  0.00    -0.271 OA
HETATM   87  O8  UNL     1      15.223   1.705   8.028  1.00  0.00    -0.305 OA
HETATM   88  O9  UNL     1       5.544   2.491   4.555  1.00  0.00    -0.271 OA
HETATM   89  O10 UNL     1       8.077  -5.115   7.476  1.00  0.00    -0.359 OA
HETATM   90  O11 UNL     1      -5.604  -0.917   1.434  1.00  0.00    -0.272 OA
HETATM   91  O12 UNL     1     -11.194  -1.588  -0.322  1.00  0.00    -0.298 OA
HETATM   92  O13 UNL     1     -11.805  -3.094   1.304  1.00  0.00    -0.276 OA
HETATM   93  O14 UNL     1     -14.685   5.705   3.335  1.00  0.00    -0.649 OA
HETATM   94  O15 UNL     1     -14.127   4.346   5.017  1.00  0.00    -0.775 OA
HETATM   95  O16 UNL     1      -6.392   5.895   2.423  1.00  0.00    -0.649 OA
HETATM   96  O17 UNL     1      -7.918   7.072   3.552  1.00  0.00    -0.775 OA
HETATM   97  N1  UNL     1      -7.279  -2.708  -6.964  1.00  0.00    -0.360 N 
HETATM   98  N2  UNL     1      -6.491  -2.835  -3.282  1.00  0.00    -0.358 N 
HETATM   99  N3  UNL     1      -1.875   1.273  -1.278  1.00  0.00    -0.357 N 
HETATM  100  N4  UNL     1       5.006  -0.428  -1.018  1.00  0.00    -0.357 N 
HETATM  101  N5  UNL     1       9.884  -0.291   2.040  1.00  0.00    -0.346 N 
HETATM  102  N6  UNL     1      11.077  -4.434   3.971  1.00  0.00    -0.367 N 
HETATM  103  N7  UNL     1       9.955  -5.684   5.646  1.00  0.00    -0.376 N 
ATOM    104  H7  UNL     1       9.921  -6.141   6.557  1.00  0.00     0.158 HD
HETATM  105  N8  UNL     1      12.159  -5.159   5.785  1.00  0.00    -0.274 NA
HETATM  106  N9  UNL     1      12.031   1.336   2.879  1.00  0.00    -0.346 N 
HETATM  107  N10 UNL     1      14.329   1.514   4.558  1.00  0.00    -0.353 N 
HETATM  108  N11 UNL     1       7.056   2.038   2.890  1.00  0.00    -0.341 N 
HETATM  109  N12 UNL     1       4.824  -0.316   4.111  1.00  0.00     0.092 N 
HETATM  110  N13 UNL     1      -6.223  -0.255  -0.668  1.00  0.00    -0.346 N 
HETATM  111  N14 UNL     1      -7.884   1.658   0.301  1.00  0.00     0.100 N 
HETATM  112  N15 UNL     1      -9.455   4.841   1.887  1.00  0.00     0.101 N 
HETATM  113  N16 UNL     1     -12.446   3.445   2.501  1.00  0.00     0.101 N 
HETATM  114  N17 UNL     1     -11.647   0.740  -0.186  1.00  0.00     0.115 N 
HETATM  115  I1  UNL     1       4.827  -4.944   7.375  1.00  0.00    -0.042 I 
HETATM  116  H92 UNL     1       8.947  -5.297   7.047  1.00  0.00     0.217 HD
HETATM  117  H93 UNL     1     -14.337   5.194   5.459  1.00  0.00     0.167 HD
HETATM  118  H94 UNL     1      -7.123   7.110   4.122  1.00  0.00     0.167 HD
HETATM  119  H95 UNL     1      -8.004  -2.085  -7.298  1.00  0.00     0.162 HD
HETATM  120  H96 UNL     1      -5.804  -3.503  -2.956  1.00  0.00     0.162 HD
HETATM  121  H97 UNL     1      -1.561   0.424  -0.829  1.00  0.00     0.162 HD
HETATM  122  H98 UNL     1       4.295  -1.044  -0.648  1.00  0.00     0.162 HD
HETATM  123  H99 UNL     1       9.929  -0.091   1.046  1.00  0.00     0.163 HD
HETATM  124  HA0 UNL     1      11.901  -3.842   3.982  1.00  0.00     0.162 HD
HETATM  125  HA1 UNL     1       9.172  -5.601   4.988  1.00  0.00     0.158 HD
HETATM  126  HA2 UNL     1      12.921  -5.475   5.196  1.00  0.00     0.127 HD
HETATM  127  HA3 UNL     1      12.080  -5.780   6.586  1.00  0.00     0.127 HD
HETATM  128  HA4 UNL     1      11.185   1.541   3.409  1.00  0.00     0.163 HD
HETATM  129  HA5 UNL     1      14.326   0.679   3.974  1.00  0.00     0.162 HD
HETATM  130  HA6 UNL     1       4.175   0.234   4.682  1.00  0.00     0.313 HD
HETATM  131  HA7 UNL     1       4.588  -0.069   3.151  1.00  0.00     0.313 HD
HETATM  132  HA8 UNL     1      -6.875   0.366  -1.151  1.00  0.00     0.163 HD
ENDROOT
TORSDOF 50
