REMARK  0 active torsions:
REMARK  status: ('A' for Active; 'I' for Inactive)
REMARK       I    between atoms: C3_3  and  C17_17 
REMARK       I    between atoms: C5_5  and  C6_6 
REMARK       I    between atoms: C6_6  and  C7_7 
REMARK       I    between atoms: C7_7  and  C8_8 
REMARK       I    between atoms: C8_8  and  C9_9 
REMARK       I    between atoms: C9_9  and  C10_10 
REMARK       I    between atoms: C10_10  and  C11_11 
REMARK       I    between atoms: C11_11  and  C12_12 
REMARK       I    between atoms: C12_12  and  C13_13 
REMARK       I    between atoms: C13_13  and  C14_14 
REMARK       I    between atoms: C14_14  and  N2_59 
REMARK       I    between atoms: C17_17  and  C18_18 
REMARK       I    between atoms: C18_18  and  C19_19 
REMARK       I    between atoms: C21_21  and  C24_24 
REMARK       I    between atoms: C24_24  and  C25_25 
REMARK       I    between atoms: C25_25  and  C26_26 
REMARK       I    between atoms: C27_27  and  N6_64 
REMARK       I    between atoms: C30_30  and  C31_31 
REMARK       I    between atoms: C30_30  and  N6_64 
REMARK       I    between atoms: C31_31  and  C32_32 
REMARK       I    between atoms: C32_32  and  C33_33 
REMARK       I    between atoms: C33_33  and  C34_34 
REMARK       I    between atoms: C34_34  and  C35_35 
REMARK       I    between atoms: C35_35  and  N7_65 
REMARK       I    between atoms: C36_36  and  C37_37 
REMARK       I    between atoms: C36_36  and  N7_65 
REMARK       I    between atoms: C39_39  and  N9_67 
REMARK       I    between atoms: C42_42  and  C43_43 
REMARK       I    between atoms: C42_42  and  N9_67 
REMARK       I    between atoms: C44_44  and  N12_71 
REMARK       I    between atoms: C47_47  and  C48_48 
REMARK       I    between atoms: C47_47  and  N12_71 
REMARK       I    between atoms: C49_49  and  N15_75 
REMARK       I    between atoms: C52_52  and  C53_53 
REMARK       I    between atoms: C52_52  and  N15_75 
REMARK       I    between atoms: C53_53  and  C54_54 
REMARK       I    between atoms: C54_54  and  N16_76 
REMARK       I    between atoms: C55_55  and  C56_56 
REMARK       I    between atoms: C55_55  and  N16_76 
REMARK       I    between atoms: C56_56  and  C57_57 
REMARK       I    between atoms: C57_57  and  N17_77 
ROOT
HETATM    1  C1  UNL     1     -14.094   0.423   1.118  1.00  0.00     0.156 C 
HETATM    2  C2  UNL     1     -11.629   0.446   0.765  1.00  0.00     0.098 A 
HETATM    3  C3  UNL     1     -10.565  -0.405   0.984  1.00  0.00    -0.033 A 
HETATM    4  C4  UNL     1     -11.119  -1.607   1.508  1.00  0.00     0.042 A 
HETATM    5  C5  UNL     1     -12.500  -1.483   1.547  1.00  0.00     0.080 A 
HETATM    6  C6  UNL     1     -13.511  -2.461   1.923  1.00  0.00     0.176 C 
HETATM    7  C7  UNL     1     -13.147  -3.498   2.975  1.00  0.00     0.086 C 
HETATM    8  C8  UNL     1     -13.288  -4.944   2.496  1.00  0.00     0.015 C 
HETATM    9  C9  UNL     1     -12.049  -5.476   1.771  1.00  0.00     0.079 C 
HETATM   10  C10 UNL     1     -11.973  -5.097   0.303  1.00  0.00     0.127 C 
HETATM   11  C11 UNL     1     -10.595  -5.180  -0.339  1.00  0.00     0.078 C 
HETATM   12  C12 UNL     1     -10.615  -4.956  -1.854  1.00  0.00     0.009 C 
HETATM   13  C13 UNL     1     -11.107  -3.554  -2.245  1.00  0.00     0.028 C 
HETATM   14  C14 UNL     1     -12.322  -3.611  -3.173  1.00  0.00     0.234 C 
HETATM   15  C15 UNL     1     -14.052  -2.292  -1.929  1.00  0.00     0.269 C 
HETATM   16  C16 UNL     1     -12.369  -1.081  -3.314  1.00  0.00     0.269 C 
HETATM   17  C17 UNL     1      -9.115  -0.106   0.753  1.00  0.00     0.125 C 
HETATM   18  C18 UNL     1      -8.642  -0.414  -0.671  1.00  0.00     0.180 C 
HETATM   19  C19 UNL     1      -7.225  -0.170  -0.941  1.00  0.00     0.081 A 
HETATM   20  C20 UNL     1      -6.244   0.296  -0.074  1.00  0.00     0.042 A 
HETATM   21  C21 UNL     1      -5.014   0.406  -0.778  1.00  0.00    -0.033 A 
HETATM   22  C22 UNL     1      -5.271  -0.022  -2.063  1.00  0.00     0.098 A 
HETATM   23  C23 UNL     1      -7.217  -0.834  -3.376  1.00  0.00     0.156 C 
HETATM   24  C24 UNL     1      -3.699   0.876  -0.230  1.00  0.00     0.127 C 
HETATM   25  C25 UNL     1      -3.671   2.366   0.110  1.00  0.00     0.197 C 
HETATM   26  C26 UNL     1      -2.372   2.866   0.538  1.00  0.00     0.155 A 
HETATM   27  C27 UNL     1      -0.296   2.913   1.089  1.00  0.00     0.125 A 
HETATM   28  C28 UNL     1      -0.741   4.200   1.233  1.00  0.00     0.140 A 
HETATM   29  C29 UNL     1      -2.955   5.295   0.873  1.00  0.00     0.157 C 
HETATM   30  C30 UNL     1       2.046   3.070   1.763  1.00  0.00     0.223 C 
HETATM   31  C31 UNL     1       3.264   2.169   1.884  1.00  0.00     0.103 C 
HETATM   32  C32 UNL     1       4.381   2.755   2.749  1.00  0.00     0.009 C 
HETATM   33  C33 UNL     1       4.041   2.902   4.237  1.00  0.00     0.002 C 
HETATM   34  C34 UNL     1       3.590   1.635   4.976  1.00  0.00     0.020 C 
HETATM   35  C35 UNL     1       4.679   0.578   5.168  1.00  0.00     0.123 C 
HETATM   36  C36 UNL     1       4.238  -1.115   3.416  1.00  0.00     0.268 C 
HETATM   37  C37 UNL     1       4.758  -1.716   2.199  1.00  0.00     0.104 A 
HETATM   38  C38 UNL     1       5.762  -1.274   1.344  1.00  0.00     0.066 A 
HETATM   39  C39 UNL     1       5.892  -2.192   0.273  1.00  0.00     0.053 A 
HETATM   40  C40 UNL     1       4.966  -3.181   0.488  1.00  0.00     0.120 A 
HETATM   41  C41 UNL     1       3.239  -3.731   2.193  1.00  0.00     0.156 C 
HETATM   42  C42 UNL     1       6.943  -2.940  -1.832  1.00  0.00     0.290 C 
HETATM   43  C43 UNL     1       8.001  -2.486  -2.726  1.00  0.00     0.178 A 
HETATM   44  C44 UNL     1       9.581  -1.280  -3.544  1.00  0.00     0.125 A 
HETATM   45  C45 UNL     1       9.435  -2.333  -4.411  1.00  0.00     0.140 A 
HETATM   46  C46 UNL     1       7.921  -4.322  -4.444  1.00  0.00     0.157 C 
HETATM   47  C47 UNL     1      11.381   0.033  -4.558  1.00  0.00     0.291 C 
HETATM   48  C48 UNL     1      12.122   1.254  -4.273  1.00  0.00     0.178 A 
HETATM   49  C49 UNL     1      12.758   3.036  -3.258  1.00  0.00     0.125 A 
HETATM   50  C50 UNL     1      13.534   2.961  -4.390  1.00  0.00     0.140 A 
HETATM   51  C51 UNL     1      13.650   1.309  -6.268  1.00  0.00     0.157 C 
HETATM   52  C52 UNL     1      12.076   4.079  -1.165  1.00  0.00     0.224 C 
HETATM   53  C53 UNL     1      12.408   5.309  -0.338  1.00  0.00     0.123 C 
HETATM   54  C54 UNL     1      11.639   5.344   0.978  1.00  0.00     0.132 C 
HETATM   55  C55 UNL     1      13.190   4.304   2.598  1.00  0.00     0.219 C 
HETATM   56  C56 UNL     1      13.448   3.023   3.365  1.00  0.00     0.132 C 
HETATM   57  C57 UNL     1      14.743   3.101   4.167  1.00  0.00     0.276 C 
HETATM   58  N1  UNL     1     -12.784  -0.197   1.126  1.00  0.00    -0.358 N 
HETATM   59  N2  UNL     1     -13.154  -2.348  -3.139  1.00  0.00    -0.079 N 
HETATM   60  N3  UNL     1      -6.596  -0.359  -2.157  1.00  0.00    -0.358 N 
HETATM   61  N4  UNL     1      -1.302   2.094   0.658  1.00  0.00    -0.324 N 
ATOM     62  H4  UNL     1      -1.241   1.094   0.468  1.00  0.00     0.169 HD
HETATM   63  N5  UNL     1      -2.061   4.163   0.880  1.00  0.00    -0.341 N 
HETATM   64  N6  UNL     1       0.944   2.376   1.308  1.00  0.00    -0.312 N 
HETATM   65  N7  UNL     1       5.031  -0.125   3.955  1.00  0.00    -0.356 N 
HETATM   66  N8  UNL     1       4.285  -2.893   1.643  1.00  0.00    -0.354 N 
HETATM   67  N9  UNL     1       6.788  -2.074  -0.765  1.00  0.00    -0.319 N 
HETATM   68  N10 UNL     1       8.697  -1.376  -2.506  1.00  0.00    -0.323 N 
ATOM     69  H10 UNL     1       8.593  -0.729  -1.724  1.00  0.00     0.169 HD
HETATM   70  N11 UNL     1       8.431  -3.095  -3.882  1.00  0.00    -0.339 N 
HETATM   71  N12 UNL     1      10.441  -0.222  -3.586  1.00  0.00    -0.305 N 
HETATM   72  N13 UNL     1      11.894   1.988  -3.194  1.00  0.00    -0.323 N 
ATOM     73  H13 UNL     1      11.208   1.804  -2.462  1.00  0.00     0.169 HD
HETATM   74  N14 UNL     1      13.123   1.820  -5.027  1.00  0.00    -0.339 N 
HETATM   75  N15 UNL     1      12.839   4.032  -2.318  1.00  0.00    -0.312 N 
HETATM   76  N16 UNL     1      12.016   4.268   1.875  1.00  0.00    -0.361 N 
HETATM   77  N17 UNL     1      14.996   1.863   4.906  1.00  0.00     0.078 N 
HETATM   78  O1  UNL     1     -14.637  -2.443   1.425  1.00  0.00    -0.291 OA
HETATM   79  O2  UNL     1     -12.966  -4.754  -0.341  1.00  0.00    -0.298 OA
HETATM   80  O3  UNL     1      -9.410  -0.845  -1.535  1.00  0.00    -0.290 OA
HETATM   81  O4  UNL     1      -4.670   3.083   0.048  1.00  0.00    -0.289 OA
HETATM   82  O5  UNL     1       2.088   4.270   2.015  1.00  0.00    -0.273 OA
HETATM   83  O6  UNL     1       3.172  -1.442   3.930  1.00  0.00    -0.266 OA
HETATM   84  O7  UNL     1       6.290  -3.960  -2.031  1.00  0.00    -0.264 OA
HETATM   85  O8  UNL     1      11.590  -0.660  -5.551  1.00  0.00    -0.264 OA
HETATM   86  O9  UNL     1      11.231   3.265  -0.805  1.00  0.00    -0.273 OA
HETATM   87  O10 UNL     1      13.940   5.273   2.606  1.00  0.00    -0.274 OA
HETATM   88  H70 UNL     1     -13.787  -2.415  -3.944  1.00  0.00     0.278 HD
HETATM   89  H71 UNL     1       1.004   1.384   1.130  1.00  0.00     0.170 HD
HETATM   90  H72 UNL     1       5.952   0.024   3.571  1.00  0.00     0.162 HD
HETATM   91  H73 UNL     1       7.416  -1.274  -0.769  1.00  0.00     0.169 HD
HETATM   92  H74 UNL     1      10.380   0.447  -2.823  1.00  0.00     0.170 HD
HETATM   93  H75 UNL     1      13.527   4.752  -2.485  1.00  0.00     0.170 HD
HETATM   94  H76 UNL     1      11.581   3.367   1.699  1.00  0.00     0.162 HD
HETATM   95  H77 UNL     1      15.042   1.075   4.261  1.00  0.00     0.312 HD
HETATM   96  H78 UNL     1      14.223   1.673   5.542  1.00  0.00     0.312 HD
ENDROOT
TORSDOF 35
