REMARK  27 active torsions:
REMARK  status: ('A' for Active; 'I' for Inactive)
REMARK    1  A    between atoms: C3_3  and  C4_4 
REMARK    2  A    between atoms: C3_3  and  N1_58 
REMARK    3  A    between atoms: C4_4  and  C5_5 
REMARK    4  A    between atoms: C5_5  and  N2_59 
REMARK    5  A    between atoms: C6_6  and  C7_7 
REMARK       I    between atoms: C6_6  and  N2_59 
REMARK    6  A    between atoms: C7_7  and  C8_8 
REMARK    7  A    between atoms: C8_8  and  N3_60 
REMARK    8  A    between atoms: C9_9  and  C10_10 
REMARK       I    between atoms: C9_9  and  N3_60 
REMARK    9  A    between atoms: C12_12  and  N4_61 
REMARK   10  A    between atoms: C13_13  and  C14_14 
REMARK       I    between atoms: C13_13  and  N4_61 
REMARK   11  A    between atoms: C16_16  and  N5_62 
REMARK   12  A    between atoms: C17_17  and  C18_18 
REMARK       I    between atoms: C17_17  and  N5_62 
REMARK   13  A    between atoms: C19_19  and  N7_65 
REMARK   14  A    between atoms: C20_20  and  C21_21 
REMARK       I    between atoms: C20_20  and  N7_65 
REMARK   15  A    between atoms: C23_23  and  N8_66 
REMARK   16  A    between atoms: C24_24  and  C25_25 
REMARK       I    between atoms: C24_24  and  N8_66 
REMARK   17  A    between atoms: C25_25  and  C26_26 
REMARK   18  A    between atoms: C25_25  and  N9_67 
REMARK   19  A    between atoms: C26_26  and  C27_27 
REMARK   20  A    between atoms: C27_27  and  N10_68 
REMARK   21  A    between atoms: C28_28  and  C29_29 
REMARK       I    between atoms: C28_28  and  N10_68 
REMARK   22  A    between atoms: C30_30  and  N12_71 
REMARK   23  A    between atoms: C31_31  and  C32_32 
REMARK       I    between atoms: C31_31  and  N12_71 
REMARK   24  A    between atoms: C34_34  and  N13_72 
REMARK   25  A    between atoms: C35_35  and  C36_36 
REMARK       I    between atoms: C35_35  and  N13_72 
REMARK   26  A    between atoms: C38_38  and  N14_73 
REMARK   27  A    between atoms: C39_39  and  C40_40 
REMARK       I    between atoms: C39_39  and  N14_73 
ROOT
HETATM    1  C21 UNL     1      -0.394  -0.323   1.353  1.00  0.00     0.105 A 
HETATM    2  C22 UNL     1      -1.280  -0.570   2.399  1.00  0.00     0.066 A 
HETATM    3  C23 UNL     1      -2.605  -0.435   1.925  1.00  0.00     0.052 A 
HETATM    4  C50 UNL     1      -2.517  -0.098   0.597  1.00  0.00     0.120 A 
HETATM    5  C51 UNL     1      -0.717   0.298  -1.074  1.00  0.00     0.156 C 
HETATM    6  N18 UNL     1      -1.190  -0.028   0.257  1.00  0.00    -0.354 N 
ENDROOT
BRANCH   3   7
HETATM    7  N8  UNL     1      -3.810  -0.586   2.581  1.00  0.00    -0.324 N 
HETATM    8  C24 UNL     1      -3.951  -0.965   3.900  1.00  0.00     0.255 C 
HETATM    9  O6  UNL     1      -3.031  -1.225   4.677  1.00  0.00    -0.271 OA
HETATM   10  H62 UNL     1      -4.649  -0.432   2.018  1.00  0.00     0.169 HD
BRANCH   8  11
HETATM   11  C25 UNL     1      -5.428  -1.051   4.365  1.00  0.00     0.310 C 
BRANCH  11  12
HETATM   12  C26 UNL     1      -5.982  -2.473   4.199  1.00  0.00     0.065 C 
BRANCH  12  13
HETATM   13  C27 UNL     1      -6.184  -2.926   2.752  1.00  0.00     0.125 C 
BRANCH  13  14
HETATM   14  N10 UNL     1      -7.304  -2.279   2.108  1.00  0.00    -0.354 N 
HETATM   15  C28 UNL     1      -7.228  -1.128   1.359  1.00  0.00     0.285 C 
HETATM   16  O7  UNL     1      -6.177  -0.507   1.210  1.00  0.00    -0.264 OA
HETATM   17  H65 UNL     1      -8.237  -2.689   2.176  1.00  0.00     0.162 HD
BRANCH  15  18
HETATM   18  C29 UNL     1      -8.507  -0.735   0.797  1.00  0.00     0.178 A 
HETATM   19  N11 UNL     1      -9.611  -1.439   0.989  1.00  0.00    -0.323 N 
HETATM   20  C30 UNL     1     -10.603  -0.783   0.327  1.00  0.00     0.125 A 
ATOM     21  H11 UNL     1      -9.701  -2.301   1.526  1.00  0.00     0.169 HD
HETATM   22  C48 UNL     1     -10.112   0.346  -0.286  1.00  0.00     0.140 A 
HETATM   23  N17 UNL     1      -8.778   0.365   0.020  1.00  0.00    -0.339 N 
HETATM   24  C49 UNL     1      -7.830   1.368  -0.399  1.00  0.00     0.157 C 
BRANCH  20  25
HETATM   25  N12 UNL     1     -11.911  -1.191   0.280  1.00  0.00    -0.306 N 
HETATM   26  C31 UNL     1     -12.402  -2.332   0.884  1.00  0.00     0.274 C 
HETATM   27  O8  UNL     1     -11.725  -3.130   1.524  1.00  0.00    -0.266 OA
HETATM   28  H66 UNL     1     -12.537  -0.608  -0.249  1.00  0.00     0.170 HD
BRANCH  26  29
HETATM   29  C32 UNL     1     -13.841  -2.532   0.689  1.00  0.00     0.105 A 
HETATM   30  C33 UNL     1     -14.790  -1.709   0.087  1.00  0.00     0.066 A 
HETATM   31  C34 UNL     1     -16.054  -2.340   0.141  1.00  0.00     0.053 A 
HETATM   32  C46 UNL     1     -15.868  -3.541   0.781  1.00  0.00     0.120 A 
HETATM   33  N16 UNL     1     -14.540  -3.652   1.113  1.00  0.00    -0.354 N 
HETATM   34  C47 UNL     1     -13.978  -4.796   1.803  1.00  0.00     0.156 C 
BRANCH  31  35
HETATM   35  N13 UNL     1     -17.287  -1.924  -0.323  1.00  0.00    -0.320 N 
HETATM   36  C35 UNL     1     -17.539  -0.726  -0.968  1.00  0.00     0.273 C 
HETATM   37  O9  UNL     1     -16.679   0.122  -1.197  1.00  0.00    -0.266 OA
HETATM   38  H67 UNL     1     -18.055  -2.555  -0.153  1.00  0.00     0.169 HD
BRANCH  36  39
HETATM   39  C36 UNL     1     -18.936  -0.535  -1.359  1.00  0.00     0.105 A 
HETATM   40  C37 UNL     1     -20.011  -1.418  -1.301  1.00  0.00     0.066 A 
HETATM   41  C38 UNL     1     -21.168  -0.773  -1.795  1.00  0.00     0.053 A 
HETATM   42  C44 UNL     1     -20.788   0.497  -2.157  1.00  0.00     0.120 A 
HETATM   43  N15 UNL     1     -19.447   0.636  -1.897  1.00  0.00    -0.354 N 
HETATM   44  C45 UNL     1     -18.701   1.852  -2.151  1.00  0.00     0.156 C 
BRANCH  41  45
HETATM   45  N14 UNL     1     -22.461  -1.234  -1.931  1.00  0.00    -0.321 N 
HETATM   46  C39 UNL     1     -22.914  -2.498  -1.579  1.00  0.00     0.264 C 
HETATM   47  O10 UNL     1     -22.184  -3.358  -1.092  1.00  0.00    -0.267 OA
HETATM   48  H68 UNL     1     -23.135  -0.587  -2.321  1.00  0.00     0.169 HD
BRANCH  46  49
HETATM   49  C40 UNL     1     -24.338  -2.730  -1.832  1.00  0.00     0.094 A 
HETATM   50  C43 UNL     1     -25.081  -3.874  -1.590  1.00  0.00     0.057 A 
HETATM   51  C42 UNL     1     -26.450  -3.733  -1.967  1.00  0.00     0.032 A 
HETATM   52 CL1  UNL     1     -24.518  -5.348  -0.918  1.00  0.00    -0.083 Cl
HETATM   53  C41 UNL     1     -26.722  -2.489  -2.486  1.00  0.00     0.052 A 
HETATM   54  S1  UNL     1     -25.335  -1.499  -2.518  1.00  0.00    -0.095 SA
ENDBRANCH  46  49
ENDBRANCH  41  45
ENDBRANCH  36  39
ENDBRANCH  31  35
ENDBRANCH  26  29
ENDBRANCH  20  25
ENDBRANCH  15  18
ENDBRANCH  13  14
ENDBRANCH  12  13
ENDBRANCH  11  12
BRANCH  11  55
HETATM   55  N9  UNL     1      -5.488  -0.685   5.804  1.00  0.00     0.092 N 
HETATM   56  H63 UNL     1      -5.104   0.256   5.908  1.00  0.00     0.313 HD
HETATM   57  H64 UNL     1      -4.808  -1.277   6.292  1.00  0.00     0.313 HD
ENDBRANCH  11  55
ENDBRANCH   8  11
ENDBRANCH   3   7
BRANCH   1  58
HETATM   58  C20 UNL     1       1.071  -0.339   1.334  1.00  0.00     0.274 C 
HETATM   59  N7  UNL     1       1.637  -0.826   2.495  1.00  0.00    -0.306 N 
HETATM   60  H61 UNL     1       1.037  -1.150   3.235  1.00  0.00     0.170 HD
HETATM   61  O5  UNL     1       1.703   0.045   0.354  1.00  0.00    -0.266 OA
BRANCH  59  62
HETATM   62  C19 UNL     1       2.985  -0.931   2.722  1.00  0.00     0.125 A 
HETATM   63  C52 UNL     1       3.549  -1.430   3.873  1.00  0.00     0.140 A 
HETATM   64  N19 UNL     1       4.901  -1.349   3.671  1.00  0.00    -0.339 N 
HETATM   65  C18 UNL     1       5.110  -0.813   2.424  1.00  0.00     0.178 A 
HETATM   66  C53 UNL     1       5.920  -1.757   4.607  1.00  0.00     0.157 C 
HETATM   67  N6  UNL     1       3.949  -0.555   1.839  1.00  0.00    -0.323 N 
ATOM     68  H6  UNL     1       3.807  -0.154   0.912  1.00  0.00     0.169 HD
BRANCH  65  69
HETATM   69  C17 UNL     1       6.385  -0.540   1.777  1.00  0.00     0.290 C 
HETATM   70  N5  UNL     1       6.203  -0.002   0.518  1.00  0.00    -0.319 N 
HETATM   71  H60 UNL     1       5.233   0.125   0.234  1.00  0.00     0.169 HD
HETATM   72  O4  UNL     1       7.470  -0.769   2.307  1.00  0.00    -0.264 OA
BRANCH  70  73
HETATM   73  C16 UNL     1       7.197   0.367  -0.360  1.00  0.00     0.053 A 
HETATM   74  C15 UNL     1       8.603   0.297  -0.231  1.00  0.00     0.066 A 
HETATM   75  C14 UNL     1       9.192   0.796  -1.390  1.00  0.00     0.105 A 
HETATM   76  N20 UNL     1       8.137   1.155  -2.216  1.00  0.00    -0.354 N 
HETATM   77  C54 UNL     1       6.938   0.902  -1.597  1.00  0.00     0.120 A 
HETATM   78  C55 UNL     1       8.250   1.727  -3.542  1.00  0.00     0.156 C 
BRANCH  75  79
HETATM   79  C13 UNL     1      10.604   0.937  -1.745  1.00  0.00     0.273 C 
HETATM   80  N4  UNL     1      11.480   0.658  -0.710  1.00  0.00    -0.320 N 
HETATM   81  H59 UNL     1      11.100   0.407   0.190  1.00  0.00     0.169 HD
HETATM   82  O3  UNL     1      10.962   1.281  -2.869  1.00  0.00    -0.266 OA
BRANCH  80  83
HETATM   83  C12 UNL     1      12.858   0.712  -0.791  1.00  0.00     0.053 A 
HETATM   84  C11 UNL     1      13.703   1.037  -1.877  1.00  0.00     0.066 A 
HETATM   85  C10 UNL     1      15.029   0.945  -1.465  1.00  0.00     0.104 A 
HETATM   86  N21 UNL     1      14.979   0.575  -0.131  1.00  0.00    -0.354 N 
HETATM   87  C56 UNL     1      13.676   0.430   0.276  1.00  0.00     0.120 A 
HETATM   88  C57 UNL     1      16.122   0.355   0.732  1.00  0.00     0.156 C 
BRANCH  85  89
HETATM   89  C9  UNL     1      16.254   1.182  -2.210  1.00  0.00     0.268 C 
HETATM   90  N3  UNL     1      16.092   1.405  -3.561  1.00  0.00    -0.355 N 
HETATM   91  H58 UNL     1      15.171   1.310  -3.965  1.00  0.00     0.162 HD
HETATM   92  O2  UNL     1      17.373   1.191  -1.697  1.00  0.00    -0.266 OA
BRANCH  90  93
HETATM   93  C8  UNL     1      17.220   1.575  -4.460  1.00  0.00     0.132 C 
BRANCH  93  94
HETATM   94  C7  UNL     1      17.932   2.910  -4.269  1.00  0.00     0.122 C 
BRANCH  94  95
HETATM   95  C6  UNL     1      19.415   2.727  -4.034  1.00  0.00     0.219 C 
HETATM   96  N2  UNL     1      19.724   2.072  -2.866  1.00  0.00    -0.361 N 
HETATM   97  H57 UNL     1      18.958   1.757  -2.265  1.00  0.00     0.162 HD
HETATM   98  O1  UNL     1      20.255   3.154  -4.820  1.00  0.00    -0.274 OA
BRANCH  96  99
HETATM   99  C5  UNL     1      21.084   1.851  -2.428  1.00  0.00     0.124 C 
BRANCH  99 100
HETATM  100  C4  UNL     1      21.676   3.060  -1.703  1.00  0.00     0.050 C 
BRANCH 100 101
HETATM  101  C3  UNL     1      20.926   3.374  -0.401  1.00  0.00     0.273 C 
BRANCH 101 102
HETATM  102  N1  UNL     1      21.596   4.398   0.422  1.00  0.00     0.080 N 
HETATM  103  C1  UNL     1      21.595   5.711  -0.227  1.00  0.00     0.309 C 
HETATM  104  C2  UNL     1      20.938   4.496   1.728  1.00  0.00     0.309 C 
ENDBRANCH 101 102
ENDBRANCH 100 101
ENDBRANCH  99 100
ENDBRANCH  96  99
ENDBRANCH  94  95
ENDBRANCH  93  94
ENDBRANCH  90  93
ENDBRANCH  85  89
ENDBRANCH  80  83
ENDBRANCH  75  79
ENDBRANCH  70  73
ENDBRANCH  65  69
ENDBRANCH  59  62
ENDBRANCH   1  58
TORSDOF 27
