REMARK  0 active torsions:
REMARK  status: ('A' for Active; 'I' for Inactive)
REMARK       I    between atoms: C2_2  and  C3_3 
REMARK       I    between atoms: C2_2  and  O15_77 
REMARK       I    between atoms: C3_3  and  C4_4 
REMARK       I    between atoms: C3_3  and  N5_82 
REMARK       I    between atoms: C4_4  and  N1_78 
REMARK       I    between atoms: C5_5  and  C6_6 
REMARK       I    between atoms: C5_5  and  N1_78 
REMARK       I    between atoms: C6_6  and  N2_79 
REMARK       I    between atoms: C7_7  and  C8_8 
REMARK       I    between atoms: C7_7  and  C11_11 
REMARK       I    between atoms: C7_7  and  N2_79 
REMARK       I    between atoms: C11_11  and  N3_80 
REMARK       I    between atoms: C12_12  and  C13_13 
REMARK       I    between atoms: C12_12  and  C17_17 
REMARK       I    between atoms: C12_12  and  N3_80 
REMARK       I    between atoms: C13_13  and  C14_14 
REMARK       I    between atoms: C17_17  and  N4_81 
REMARK       I    between atoms: C18_18  and  C19_19 
REMARK       I    between atoms: C18_18  and  C22_22 
REMARK       I    between atoms: C18_18  and  N4_81 
REMARK       I    between atoms: C22_22  and  O6_68 
REMARK       I    between atoms: C23_23  and  C24_24 
REMARK       I    between atoms: C23_23  and  N5_82 
REMARK       I    between atoms: C24_24  and  N6_83 
REMARK       I    between atoms: C26_26  and  C27_27 
REMARK       I    between atoms: C26_26  and  N6_83 
REMARK       I    between atoms: C27_27  and  N7_84 
REMARK       I    between atoms: C29_29  and  C30_30 
REMARK       I    between atoms: C29_29  and  N7_84 
REMARK       I    between atoms: C30_30  and  C31_31 
REMARK       I    between atoms: C30_30  and  N8_85 
REMARK       I    between atoms: C34_34  and  C35_35 
REMARK       I    between atoms: C34_34  and  N8_85 
REMARK       I    between atoms: C35_35  and  C36_36 
REMARK       I    between atoms: C35_35  and  N9_86 
REMARK       I    between atoms: C39_39  and  C40_40 
REMARK       I    between atoms: C39_39  and  N9_86 
REMARK       I    between atoms: C40_40  and  C41_41 
REMARK       I    between atoms: C40_40  and  N11_88 
REMARK       I    between atoms: C41_41  and  C42_42 
REMARK       I    between atoms: C42_42  and  C43_43 
REMARK       I    between atoms: C43_43  and  C44_44 
REMARK       I    between atoms: C44_44  and  N10_87 
REMARK       I    between atoms: C45_45  and  C46_46 
REMARK       I    between atoms: C45_45  and  N11_88 
REMARK       I    between atoms: C46_46  and  C47_47 
REMARK       I    between atoms: C46_46  and  N13_90 
REMARK       I    between atoms: C47_47  and  C48_48 
REMARK       I    between atoms: C48_48  and  C49_49 
REMARK       I    between atoms: C49_49  and  C50_50 
REMARK       I    between atoms: C50_50  and  N12_89 
REMARK       I    between atoms: C51_51  and  C52_52 
REMARK       I    between atoms: C51_51  and  N13_90 
REMARK       I    between atoms: C52_52  and  C53_53 
REMARK       I    between atoms: C52_52  and  N15_92 
REMARK       I    between atoms: C53_53  and  C54_54 
REMARK       I    between atoms: C54_54  and  C55_55 
REMARK       I    between atoms: C55_55  and  C56_56 
REMARK       I    between atoms: C56_56  and  N14_91 
REMARK       I    between atoms: C57_57  and  C58_58 
REMARK       I    between atoms: C57_57  and  N15_92 
REMARK       I    between atoms: C58_58  and  C59_59 
REMARK       I    between atoms: C58_58  and  N17_94 
REMARK       I    between atoms: C59_59  and  C60_60 
REMARK       I    between atoms: C60_60  and  C61_61 
REMARK       I    between atoms: C61_61  and  C62_62 
REMARK       I    between atoms: C62_62  and  N16_93 
ROOT
HETATM    1  C1  UNL     1       6.187   0.247  -1.531  1.00  0.00     0.042 C 
HETATM    2  C2  UNL     1       4.883  -0.272  -0.940  1.00  0.00     0.146 C 
HETATM    3  C3  UNL     1       4.847  -0.490   0.596  1.00  0.00     0.205 C 
HETATM    4  C4  UNL     1       6.243  -0.560   1.255  1.00  0.00     0.243 C 
HETATM    5  C5  UNL     1       8.014   0.699   2.464  1.00  0.00     0.225 C 
HETATM    6  C6  UNL     1       9.252   0.819   1.566  1.00  0.00     0.236 C 
HETATM    7  C7  UNL     1      10.445  -0.283  -0.336  1.00  0.00     0.180 C 
HETATM    8  C8  UNL     1      10.862   0.873  -1.282  1.00  0.00     0.009 C 
HETATM    9  C9  UNL     1       9.682   1.357  -2.132  1.00  0.00     0.012 C 
HETATM   10  C10 UNL     1      11.543   2.071  -0.622  1.00  0.00     0.012 C 
HETATM   11  C11 UNL     1      11.556  -0.965   0.515  1.00  0.00     0.241 C 
HETATM   12  C12 UNL     1      13.953  -1.545   0.688  1.00  0.00     0.177 C 
HETATM   13  C13 UNL     1      14.011  -3.083   0.704  1.00  0.00     0.038 C 
HETATM   14  C14 UNL     1      13.649  -3.811  -0.610  1.00  0.00    -0.020 C 
HETATM   15  C15 UNL     1      14.619  -3.511  -1.749  1.00  0.00     0.009 C 
HETATM   16  C16 UNL     1      13.607  -5.323  -0.362  1.00  0.00     0.009 C 
HETATM   17  C17 UNL     1      15.234  -0.863   0.155  1.00  0.00     0.241 C 
HETATM   18  C18 UNL     1      17.587  -0.290   0.740  1.00  0.00     0.185 C 
HETATM   19  C19 UNL     1      18.195  -0.252  -0.685  1.00  0.00     0.010 C 
HETATM   20  C20 UNL     1      19.637   0.282  -0.671  1.00  0.00     0.012 C 
HETATM   21  C21 UNL     1      18.220  -1.640  -1.338  1.00  0.00     0.012 C 
HETATM   22  C22 UNL     1      17.331   1.111   1.345  1.00  0.00     0.163 C 
HETATM   23  C23 UNL     1       3.939   1.776   1.228  1.00  0.00     0.240 C 
HETATM   24  C24 UNL     1       2.894   2.485   2.108  1.00  0.00     0.172 C 
HETATM   25  C25 UNL     1       3.493   2.662   3.502  1.00  0.00     0.042 C 
HETATM   26  C26 UNL     1       0.496   2.216   2.653  1.00  0.00     0.240 C 
HETATM   27  C27 UNL     1      -0.752   1.325   2.460  1.00  0.00     0.172 C 
HETATM   28  C28 UNL     1      -0.951   0.513   3.737  1.00  0.00     0.042 C 
HETATM   29  C29 UNL     1      -0.785   0.942   0.032  1.00  0.00     0.241 C 
HETATM   30  C30 UNL     1      -1.065  -0.097  -1.079  1.00  0.00     0.180 C 
HETATM   31  C31 UNL     1       0.218  -0.691  -1.700  1.00  0.00     0.009 C 
HETATM   32  C32 UNL     1       0.938  -1.629  -0.728  1.00  0.00     0.012 C 
HETATM   33  C33 UNL     1       1.196   0.365  -2.224  1.00  0.00     0.012 C 
HETATM   34  C34 UNL     1      -3.255   0.672  -1.888  1.00  0.00     0.241 C 
HETATM   35  C35 UNL     1      -3.980   1.593  -2.896  1.00  0.00     0.180 C 
HETATM   36  C36 UNL     1      -3.735   3.084  -2.579  1.00  0.00     0.009 C 
HETATM   37  C37 UNL     1      -4.301   3.975  -3.689  1.00  0.00     0.012 C 
HETATM   38  C38 UNL     1      -4.306   3.515  -1.224  1.00  0.00     0.012 C 
HETATM   39  C39 UNL     1      -6.007   0.620  -3.929  1.00  0.00     0.241 C 
HETATM   40  C40 UNL     1      -7.392   0.022  -3.587  1.00  0.00     0.176 C 
HETATM   41  C41 UNL     1      -8.493   1.081  -3.743  1.00  0.00     0.035 C 
HETATM   42  C42 UNL     1      -8.698   1.519  -5.194  1.00  0.00     0.004 C 
HETATM   43  C43 UNL     1      -9.963   2.353  -5.434  1.00  0.00     0.030 C 
HETATM   44  C44 UNL     1      -9.990   3.713  -4.734  1.00  0.00     0.267 C 
HETATM   45  C45 UNL     1      -6.773  -1.658  -1.866  1.00  0.00     0.241 C 
HETATM   46  C46 UNL     1      -6.928  -2.040  -0.367  1.00  0.00     0.176 C 
HETATM   47  C47 UNL     1      -6.719  -3.546  -0.130  1.00  0.00     0.035 C 
HETATM   48  C48 UNL     1      -6.268  -3.909   1.291  1.00  0.00     0.004 C 
HETATM   49  C49 UNL     1      -7.341  -3.861   2.380  1.00  0.00     0.030 C 
HETATM   50  C50 UNL     1      -8.444  -4.901   2.189  1.00  0.00     0.267 C 
HETATM   51  C51 UNL     1      -9.418  -1.915  -0.140  1.00  0.00     0.241 C 
HETATM   52  C52 UNL     1     -10.583  -1.146   0.525  1.00  0.00     0.176 C 
HETATM   53  C53 UNL     1     -11.053  -0.065  -0.458  1.00  0.00     0.035 C 
HETATM   54  C54 UNL     1     -12.374   0.587  -0.035  1.00  0.00     0.004 C 
HETATM   55  C55 UNL     1     -12.751   1.787  -0.910  1.00  0.00     0.030 C 
HETATM   56  C56 UNL     1     -13.050   1.415  -2.362  1.00  0.00     0.267 C 
HETATM   57  C57 UNL     1     -10.246  -1.216   2.984  1.00  0.00     0.251 C 
HETATM   58  C58 UNL     1      -9.627  -0.442   4.162  1.00  0.00     0.308 C 
HETATM   59  C59 UNL     1     -10.425   0.817   4.536  1.00  0.00     0.045 C 
HETATM   60  C60 UNL     1     -11.779   0.536   5.205  1.00  0.00     0.004 C 
HETATM   61  C61 UNL     1     -12.915   0.253   4.219  1.00  0.00     0.030 C 
HETATM   62  C62 UNL     1     -14.256   0.130   4.944  1.00  0.00     0.267 C 
HETATM   63  O1  UNL     1       6.920  -1.588   1.216  1.00  0.00    -0.271 OA
HETATM   64  O2  UNL     1      10.202   1.530   1.883  1.00  0.00    -0.272 OA
HETATM   65  O3  UNL     1      11.308  -1.537   1.579  1.00  0.00    -0.271 OA
HETATM   66  O4  UNL     1      15.208  -0.113  -0.820  1.00  0.00    -0.271 OA
HETATM   67  O5  UNL     1      18.024   2.107   1.227  1.00  0.00    -0.648 OA
HETATM   68  O6  UNL     1      16.261   1.149   2.178  1.00  0.00    -0.775 OA
HETATM   69  O7  UNL     1       4.837   2.370   0.636  1.00  0.00    -0.271 OA
HETATM   70  O8  UNL     1       0.468   3.232   3.343  1.00  0.00    -0.271 OA
HETATM   71  O9  UNL     1      -0.631   2.139  -0.202  1.00  0.00    -0.271 OA
HETATM   72  O10 UNL     1      -3.839   0.120  -0.952  1.00  0.00    -0.271 OA
HETATM   73  O11 UNL     1      -5.565   0.673  -5.074  1.00  0.00    -0.271 OA
HETATM   74  O12 UNL     1      -6.053  -2.265  -2.653  1.00  0.00    -0.271 OA
HETATM   75  O13 UNL     1      -9.606  -2.713  -1.055  1.00  0.00    -0.271 OA
HETATM   76  O14 UNL     1     -10.733  -2.335   3.101  1.00  0.00    -0.271 OA
HETATM   77  O15 UNL     1       4.553  -1.505  -1.603  1.00  0.00    -0.393 OA
HETATM   78  N1  UNL     1       6.743   0.613   1.759  1.00  0.00    -0.350 N 
HETATM   79  N2  UNL     1       9.258  -0.040   0.487  1.00  0.00    -0.346 N 
HETATM   80  N3  UNL     1      12.810  -1.016  -0.046  1.00  0.00    -0.346 N 
HETATM   81  N4  UNL     1      16.376  -1.118   0.892  1.00  0.00    -0.345 N 
HETATM   82  N5  UNL     1       3.909   0.400   1.298  1.00  0.00    -0.344 N 
HETATM   83  N6  UNL     1       1.664   1.689   2.132  1.00  0.00    -0.346 N 
HETATM   84  N7  UNL     1      -0.660   0.416   1.306  1.00  0.00    -0.346 N 
HETATM   85  N8  UNL     1      -1.892   0.563  -2.083  1.00  0.00    -0.346 N 
HETATM   86  N9  UNL     1      -5.392   1.240  -2.857  1.00  0.00    -0.346 N 
HETATM   87  N10 UNL     1     -10.334   3.604  -3.320  1.00  0.00     0.078 N 
HETATM   88  N11 UNL     1      -7.371  -0.451  -2.195  1.00  0.00    -0.346 N 
HETATM   89  N12 UNL     1      -9.346  -4.877   3.335  1.00  0.00     0.078 N 
HETATM   90  N13 UNL     1      -8.155  -1.478   0.213  1.00  0.00    -0.346 N 
HETATM   91  N14 UNL     1     -13.351   2.620  -3.134  1.00  0.00     0.078 N 
HETATM   92  N15 UNL     1     -10.177  -0.537   1.787  1.00  0.00    -0.346 N 
HETATM   93  N16 UNL     1     -15.334  -0.156   4.004  1.00  0.00     0.078 N 
HETATM   94  N17 UNL     1      -8.251  -0.044   3.749  1.00  0.00     0.092 N 
HETATM   95  H94 UNL     1      16.222   2.086   2.465  1.00  0.00     0.167 HD
HETATM   96  H95 UNL     1       5.311  -2.111  -1.503  1.00  0.00     0.210 HD
HETATM   97  H96 UNL     1       6.334   1.484   1.420  1.00  0.00     0.163 HD
HETATM   98  H97 UNL     1       8.652  -0.849   0.620  1.00  0.00     0.163 HD
HETATM   99  H98 UNL     1      13.051  -0.397  -0.813  1.00  0.00     0.163 HD
HETATM  100  H99 UNL     1      16.203  -1.425   1.842  1.00  0.00     0.163 HD
HETATM  101  HA0 UNL     1       3.330  -0.007   2.025  1.00  0.00     0.163 HD
HETATM  102  HA1 UNL     1       1.491   1.103   1.322  1.00  0.00     0.163 HD
HETATM  103  HA2 UNL     1      -1.121  -0.479   1.428  1.00  0.00     0.163 HD
HETATM  104  HA3 UNL     1      -1.453   1.306  -2.614  1.00  0.00     0.163 HD
HETATM  105  HA4 UNL     1      -5.735   0.923  -1.955  1.00  0.00     0.163 HD
HETATM  106  HA5 UNL     1     -10.376   4.542  -2.920  1.00  0.00     0.312 HD
HETATM  107  HA6 UNL     1     -11.302   3.256  -3.248  1.00  0.00     0.312 HD
HETATM  108  HA7 UNL     1      -8.140  -0.185  -1.594  1.00  0.00     0.163 HD
HETATM  109  HA8 UNL     1     -10.058  -5.597   3.209  1.00  0.00     0.312 HD
HETATM  110  HA9 UNL     1      -9.880  -3.996   3.321  1.00  0.00     0.312 HD
HETATM  111  HB0 UNL     1      -8.075  -1.030   1.119  1.00  0.00     0.163 HD
HETATM  112  HB1 UNL     1     -13.616   2.345  -4.081  1.00  0.00     0.312 HD
HETATM  113  HB2 UNL     1     -14.177   3.073  -2.741  1.00  0.00     0.312 HD
HETATM  114  HB3 UNL     1      -9.577   0.284   1.784  1.00  0.00     0.163 HD
HETATM  115  HB4 UNL     1     -15.362   0.562   3.282  1.00  0.00     0.312 HD
HETATM  116  HB5 UNL     1     -15.140  -1.033   3.521  1.00  0.00     0.312 HD
HETATM  117  HB6 UNL     1      -7.676  -0.891   3.766  1.00  0.00     0.313 HD
HETATM  118  HB7 UNL     1      -7.855   0.543   4.487  1.00  0.00     0.313 HD
ENDROOT
TORSDOF 55
