REMARK  28 active torsions:
REMARK  status: ('A' for Active; 'I' for Inactive)
REMARK    1  A    between atoms: C2_2  and  C3_3 
REMARK    2  A    between atoms: C2_2  and  N4_91 
REMARK    3  A    between atoms: C3_3  and  C4_4 
REMARK    4  A    between atoms: C4_4  and  C5_5 
REMARK    5  A    between atoms: C5_5  and  N1_88 
REMARK    6  A    between atoms: C7_7  and  C9_9 
REMARK    7  A    between atoms: C7_7  and  N2_89 
REMARK       I    between atoms: C9_9  and  N3_90 
REMARK    8  A    between atoms: C10_10  and  C11_11 
REMARK       I    between atoms: C10_10  and  N4_91 
REMARK    9  A    between atoms: C11_11  and  N5_92 
REMARK   10  A    between atoms: C13_13  and  C14_14 
REMARK       I    between atoms: C13_13  and  N5_92 
REMARK   11  A    between atoms: C14_14  and  N6_93 
REMARK   12  A    between atoms: C16_16  and  C17_17 
REMARK       I    between atoms: C16_16  and  N6_93 
REMARK   13  A    between atoms: C17_17  and  N7_94 
REMARK   14  A    between atoms: C19_19  and  C20_20 
REMARK       I    between atoms: C19_19  and  N7_94 
REMARK   15  A    between atoms: C32_32  and  C68_68 
REMARK   16  A    between atoms: C34_34  and  C64_64 
REMARK   17  A    between atoms: C36_36  and  C57_57 
REMARK   18  A    between atoms: C38_38  and  C48_48 
REMARK   19  A    between atoms: C42_42  and  C44_44 
REMARK   20  A    between atoms: C44_44  and  C45_45 
REMARK   21  A    between atoms: C48_48  and  C49_49 
REMARK   22  A    between atoms: C57_57  and  C58_58 
REMARK   23  A    between atoms: C61_61  and  O13_84 
REMARK   24  A    between atoms: C64_64  and  C65_65 
REMARK   25  A    between atoms: C65_65  and  C66_66 
REMARK   26  A    between atoms: C66_66  and  O15_86 
REMARK   27  A    between atoms: C68_68  and  C69_69 
REMARK   28  A    between atoms: N1_88  and  N2_89 
ROOT
HETATM    1  C20 UNL     1       2.304   0.659  -1.608  1.00  0.00     0.110 C 
HETATM    2  C21 UNL     1       1.695   1.897  -2.350  1.00  0.00     0.041 C 
HETATM    3  C22 UNL     1       1.311   1.740  -3.833  1.00  0.00     0.015 C 
HETATM    4  C23 UNL     1       0.054   0.913  -4.098  1.00  0.00     0.095 C 
HETATM    5  C24 UNL     1      -1.163   1.732  -3.997  1.00  0.00    -0.092 C 
HETATM    6  C25 UNL     1      -2.149   2.418  -3.991  1.00  0.00    -0.015 C 
HETATM    7  C26 UNL     1      -3.412   3.297  -4.056  1.00  0.00    -0.015 C 
HETATM    8  C27 UNL     1      -4.417   3.951  -4.125  1.00  0.00    -0.092 C 
HETATM    9  C28 UNL     1      -5.670   4.720  -4.199  1.00  0.00     0.095 C 
HETATM   10  C29 UNL     1      -6.882   3.848  -3.852  1.00  0.00     0.012 C 
HETATM   11  C30 UNL     1      -6.931   3.493  -2.361  1.00  0.00     0.002 C 
HETATM   12  C31 UNL     1      -7.941   2.381  -2.035  1.00  0.00     0.019 C 
HETATM   13  C32 UNL     1      -9.268   2.829  -1.367  1.00  0.00     0.044 C 
HETATM   14  C33 UNL     1      -9.030   3.672  -0.094  1.00  0.00     0.227 C 
HETATM   15  C34 UNL     1      -7.872   3.709   2.111  1.00  0.00     0.177 C 
HETATM   16  C35 UNL     1      -6.535   3.117   2.596  1.00  0.00     0.241 C 
HETATM   17  C36 UNL     1      -5.206   1.053   2.917  1.00  0.00     0.180 C 
HETATM   18  C37 UNL     1      -5.168  -0.297   2.185  1.00  0.00     0.241 C 
HETATM   19  C38 UNL     1      -4.169  -1.538   0.298  1.00  0.00     0.158 C 
HETATM   20  C39 UNL     1      -2.804  -1.429  -0.394  1.00  0.00     0.149 C 
HETATM   21  C40 UNL     1      -2.140  -2.736  -0.800  1.00  0.00     0.081 C 
HETATM   22  C41 UNL     1      -0.652  -2.564  -1.118  1.00  0.00     0.021 C 
HETATM   23  C42 UNL     1       0.183  -2.066   0.088  1.00  0.00     0.078 C 
HETATM   24  C43 UNL     1       1.462  -1.396  -0.429  1.00  0.00     0.222 C 
HETATM   25  C67 UNL     1     -10.066   3.700  -2.366  1.00  0.00     0.026 C 
HETATM   26  C71 UNL     1       3.295  -0.072  -2.527  1.00  0.00     0.049 C 
HETATM   27  O8  UNL     1      -9.568   4.759   0.100  1.00  0.00    -0.273 OA
HETATM   28  O9  UNL     1      -5.684   3.800   3.161  1.00  0.00    -0.271 OA
HETATM   29  O10 UNL     1      -5.815  -1.279   2.549  1.00  0.00    -0.271 OA
HETATM   30  O11 UNL     1      -2.258  -0.337  -0.590  1.00  0.00    -0.296 OA
HETATM   31  O12 UNL     1       2.588  -1.831  -0.203  1.00  0.00    -0.273 OA
HETATM   32  N8  UNL     1      -8.183   3.108   0.819  1.00  0.00    -0.347 N 
HETATM   33  N9  UNL     1      -6.407   1.749   2.461  1.00  0.00    -0.346 N 
HETATM   34  N10 UNL     1      -4.429  -0.301   1.024  1.00  0.00    -0.348 N 
HETATM   35  N11 UNL     1       1.221  -0.236  -1.148  1.00  0.00    -0.343 N 
HETATM   36  H94 UNL     1      -7.943   2.128   0.687  1.00  0.00     0.163 HD
HETATM   37  H95 UNL     1      -7.207   1.180   2.191  1.00  0.00     0.163 HD
HETATM   38  H96 UNL     1      -3.910   0.526   0.740  1.00  0.00     0.163 HD
HETATM   39  H97 UNL     1       0.332   0.216  -0.942  1.00  0.00     0.163 HD
ENDROOT
BRANCH   1  40
HETATM   40  C19 UNL     1       2.925   1.228  -0.284  1.00  0.00     0.246 C 
HETATM   41  O7  UNL     1       2.290   1.994   0.444  1.00  0.00    -0.271 OA
HETATM   42  N7  UNL     1       4.141   0.722   0.104  1.00  0.00    -0.346 N 
HETATM   43  H93 UNL     1       4.643   0.066  -0.491  1.00  0.00     0.163 HD
BRANCH  42  44
HETATM   44  C17 UNL     1       4.685   0.942   1.442  1.00  0.00     0.172 C 
HETATM   45  C18 UNL     1       5.478   2.239   1.506  1.00  0.00     0.042 C 
BRANCH  44  46
HETATM   46  C16 UNL     1       5.551  -0.285   1.792  1.00  0.00     0.240 C 
HETATM   47  O6  UNL     1       6.658  -0.212   2.322  1.00  0.00    -0.271 OA
HETATM   48  N6  UNL     1       4.936  -1.490   1.490  1.00  0.00    -0.346 N 
HETATM   49  H92 UNL     1       4.101  -1.431   0.899  1.00  0.00     0.163 HD
BRANCH  48  50
HETATM   50  C14 UNL     1       5.744  -2.684   1.297  1.00  0.00     0.172 C 
HETATM   51  C15 UNL     1       4.895  -3.937   1.464  1.00  0.00     0.042 C 
BRANCH  50  52
HETATM   52  C13 UNL     1       6.364  -2.607  -0.121  1.00  0.00     0.240 C 
HETATM   53  O5  UNL     1       6.131  -1.683  -0.903  1.00  0.00    -0.271 OA
HETATM   54  N5  UNL     1       7.219  -3.645  -0.428  1.00  0.00    -0.346 N 
HETATM   55  H91 UNL     1       7.584  -4.167   0.365  1.00  0.00     0.163 HD
BRANCH  54  56
HETATM   56  C11 UNL     1       8.167  -3.530  -1.534  1.00  0.00     0.172 C 
HETATM   57  C12 UNL     1       8.178  -4.802  -2.367  1.00  0.00     0.042 C 
BRANCH  56  58
HETATM   58  C10 UNL     1       9.552  -3.299  -0.901  1.00  0.00     0.240 C 
HETATM   59  O4  UNL     1       9.775  -3.560   0.282  1.00  0.00    -0.271 OA
HETATM   60  N4  UNL     1      10.520  -2.836  -1.757  1.00  0.00    -0.348 N 
HETATM   61  H90 UNL     1      10.279  -2.530  -2.696  1.00  0.00     0.163 HD
BRANCH  60  62
HETATM   62  C2  UNL     1      11.888  -2.574  -1.304  1.00  0.00     0.158 C 
HETATM   63  C1  UNL     1      12.716  -3.852  -1.364  1.00  0.00     0.041 C 
BRANCH  62  64
HETATM   64  C3  UNL     1      12.492  -1.501  -2.196  1.00  0.00     0.218 C 
HETATM   65  O1  UNL     1      12.101  -1.231  -3.328  1.00  0.00    -0.287 OA
BRANCH  64  66
HETATM   66  C4  UNL     1      13.695  -0.788  -1.629  1.00  0.00     0.215 C 
HETATM   67  O2  UNL     1      14.780  -1.357  -1.696  1.00  0.00    -0.287 OA
BRANCH  66  68
HETATM   68  C5  UNL     1      13.457   0.607  -1.070  1.00  0.00     0.145 C 
HETATM   69  C6  UNL     1      14.733   1.131  -0.407  1.00  0.00     0.036 C 
BRANCH  68  70
HETATM   70  N1  UNL     1      12.373   0.564  -0.063  1.00  0.00    -0.249 NA
HETATM   71  H86 UNL     1      12.539   1.293   0.648  1.00  0.00     0.141 HD
BRANCH  70  72
HETATM   72  N2  UNL     1      11.096   0.817  -0.728  1.00  0.00    -0.247 NA
HETATM   73  H87 UNL     1      11.005   1.814  -0.975  1.00  0.00     0.141 HD
BRANCH  72  74
HETATM   74  C7  UNL     1       9.967   0.515   0.196  1.00  0.00     0.159 C 
HETATM   75  C8  UNL     1       8.689   0.504  -0.637  1.00  0.00     0.037 C 
BRANCH  74  76
HETATM   76  C9  UNL     1       9.864   1.594   1.291  1.00  0.00     0.234 C 
HETATM   77  O3  UNL     1      10.507   2.644   1.274  1.00  0.00    -0.272 OA
HETATM   78  N3  UNL     1       9.012   1.327   2.322  1.00  0.00    -0.369 N 
HETATM   79  H88 UNL     1       8.874   2.048   3.017  1.00  0.00     0.159 HD
HETATM   80  H89 UNL     1       8.303   0.591   2.287  1.00  0.00     0.159 HD
ENDBRANCH  74  76
ENDBRANCH  72  74
ENDBRANCH  70  72
ENDBRANCH  68  70
ENDBRANCH  66  68
ENDBRANCH  64  66
ENDBRANCH  62  64
ENDBRANCH  60  62
ENDBRANCH  56  58
ENDBRANCH  54  56
ENDBRANCH  50  52
ENDBRANCH  48  50
ENDBRANCH  44  46
ENDBRANCH  42  44
ENDBRANCH   1  40
BRANCH  23  81
HETATM   81  C44 UNL     1       0.470  -3.213   1.085  1.00  0.00     0.018 C 
BRANCH  81  82
HETATM   82  C45 UNL     1       0.437  -2.767   2.565  1.00  0.00    -0.022 C 
HETATM   83  C46 UNL     1       1.504  -1.727   2.905  1.00  0.00     0.009 C 
HETATM   84  C47 UNL     1       0.598  -3.986   3.477  1.00  0.00     0.009 C 
ENDBRANCH  81  82
ENDBRANCH  23  81
BRANCH  19  85
HETATM   85  C48 UNL     1      -5.308  -1.975  -0.628  1.00  0.00     0.073 C 
BRANCH  85  86
HETATM   86  C49 UNL     1      -5.555  -1.188  -1.885  1.00  0.00    -0.028 A 
HETATM   87  C50 UNL     1      -4.946  -0.034  -2.334  1.00  0.00     0.096 A 
HETATM   88  N12 UNL     1      -5.459   0.286  -3.563  1.00  0.00    -0.365 N 
HETATM   89  C51 UNL     1      -6.448  -0.601  -3.910  1.00  0.00     0.042 A 
HETATM   90  H98 UNL     1      -5.168   1.075  -4.124  1.00  0.00     0.165 HD
HETATM   91  C52 UNL     1      -7.263  -0.643  -5.047  1.00  0.00     0.030 A 
HETATM   92  C56 UNL     1      -6.529  -1.540  -2.883  1.00  0.00    -0.002 A 
HETATM   93  C53 UNL     1      -8.193  -1.682  -5.137  1.00  0.00     0.002 A 
HETATM   94  C54 UNL     1      -8.298  -2.640  -4.132  1.00  0.00     0.001 A 
HETATM   95  C55 UNL     1      -7.473  -2.582  -3.003  1.00  0.00     0.014 A 
ENDBRANCH  85  86
ENDBRANCH  19  85
BRANCH  17  96
HETATM   96  C57 UNL     1      -5.210   0.845   4.439  1.00  0.00     0.073 C 
BRANCH  96  97
HETATM   97  C58 UNL     1      -3.901   0.274   4.942  1.00  0.00    -0.056 A 
HETATM   98  C59 UNL     1      -3.793  -1.088   5.258  1.00  0.00     0.010 A 
HETATM   99  C60 UNL     1      -2.579  -1.620   5.699  1.00  0.00     0.037 A 
HETATM  100  C61 UNL     1      -1.472  -0.787   5.820  1.00  0.00     0.065 A 
HETATM  101  C62 UNL     1      -1.558   0.563   5.504  1.00  0.00     0.037 A 
HETATM  102  C63 UNL     1      -2.772   1.096   5.067  1.00  0.00     0.010 A 
BRANCH 100 103
HETATM  103  O13 UNL     1      -0.270  -1.264   6.252  1.00  0.00    -0.361 OA
HETATM  104  H84 UNL     1      -0.377  -2.198   6.494  1.00  0.00     0.217 HD
ENDBRANCH 100 103
ENDBRANCH  96  97
ENDBRANCH  17  96
BRANCH  13 105
HETATM  105  C68 UNL     1     -10.161   1.604  -1.020  1.00  0.00     0.096 C 
BRANCH 105 106
HETATM  106  C69 UNL     1      -9.486   0.424  -0.323  1.00  0.00     0.124 C 
HETATM  107  C70 UNL     1     -10.038  -0.944  -0.631  1.00  0.00     0.091 C 
HETATM  108  O16 UNL     1      -8.585   0.568   0.507  1.00  0.00    -0.298 OA
ENDBRANCH 105 106
ENDBRANCH  13 105
BRANCH  15 109
HETATM  109  C64 UNL     1      -8.992   3.436   3.120  1.00  0.00     0.045 C 
BRANCH 109 110
HETATM  110  C65 UNL     1      -8.811   4.230   4.413  1.00  0.00     0.112 C 
BRANCH 110 111
HETATM  111  C66 UNL     1      -9.951   3.988   5.364  1.00  0.00     0.139 C 
HETATM  112  O14 UNL     1     -10.811   3.128   5.285  1.00  0.00    -0.650 OA
BRANCH 111 113
HETATM  113  O15 UNL     1      -9.931   4.844   6.404  1.00  0.00    -0.776 OA
HETATM  114  H85 UNL     1     -10.704   4.583   6.946  1.00  0.00     0.167 HD
ENDBRANCH 111 113
ENDBRANCH 110 111
ENDBRANCH 109 110
ENDBRANCH  15 109
TORSDOF 28
