REMARK  0 active torsions:
REMARK  status: ('A' for Active; 'I' for Inactive)
REMARK       I    between atoms: C2_2  and  C4_4 
REMARK       I    between atoms: C4_4  and  C5_5 
REMARK       I    between atoms: C5_5  and  C6_6 
REMARK       I    between atoms: C5_5  and  N5_57 
REMARK       I    between atoms: C6_6  and  N1_53 
REMARK       I    between atoms: C7_7  and  C8_8 
REMARK       I    between atoms: C7_7  and  N1_53 
REMARK       I    between atoms: C8_8  and  N2_54 
REMARK       I    between atoms: C9_9  and  C10_10 
REMARK       I    between atoms: C9_9  and  N2_54 
REMARK       I    between atoms: C10_10  and  N3_55 
REMARK       I    between atoms: C11_11  and  C12_12 
REMARK       I    between atoms: C11_11  and  C13_13 
REMARK       I    between atoms: C11_11  and  N3_55 
REMARK       I    between atoms: C12_12  and  S1_72 
REMARK       I    between atoms: C13_13  and  N4_56 
REMARK       I    between atoms: C14_14  and  C15_15 
REMARK       I    between atoms: C14_14  and  N5_57 
REMARK       I    between atoms: C15_15  and  C16_16 
REMARK       I    between atoms: C15_15  and  N9_62 
REMARK       I    between atoms: C16_16  and  C17_17 
REMARK       I    between atoms: C17_17  and  C18_18 
REMARK       I    between atoms: C18_18  and  N6_58 
REMARK       I    between atoms: C19_19  and  N7_60 
REMARK       I    between atoms: C19_19  and  N8_61 
REMARK       I    between atoms: C20_20  and  C21_21 
REMARK       I    between atoms: C20_20  and  N9_62 
REMARK       I    between atoms: C21_21  and  C22_22 
REMARK       I    between atoms: C21_21  and  N13_67 
REMARK       I    between atoms: C22_22  and  C23_23 
REMARK       I    between atoms: C23_23  and  C24_24 
REMARK       I    between atoms: C24_24  and  N10_63 
REMARK       I    between atoms: C25_25  and  N11_65 
REMARK       I    between atoms: C25_25  and  N12_66 
REMARK       I    between atoms: C26_26  and  C27_27 
REMARK       I    between atoms: C26_26  and  N13_67 
REMARK       I    between atoms: C27_27  and  N14_68 
REMARK       I    between atoms: C28_28  and  C29_29 
REMARK       I    between atoms: C28_28  and  N14_68 
REMARK       I    between atoms: C29_29  and  N15_69 
REMARK       I    between atoms: C30_30  and  C31_31 
REMARK       I    between atoms: C30_30  and  N15_69 
REMARK       I    between atoms: C31_31  and  C32_32 
REMARK       I    between atoms: C31_31  and  N16_70 
REMARK       I    between atoms: C32_32  and  S2_73 
REMARK       I    between atoms: C33_33  and  C34_34 
REMARK       I    between atoms: C33_33  and  N16_70 
REMARK       I    between atoms: C34_34  and  C35_35 
REMARK       I    between atoms: C34_34  and  N17_71 
REMARK       I    between atoms: C35_35  and  C36_36 
REMARK       I    between atoms: C39_39  and  O11_52 
ROOT
HETATM    1  C1  UNL     1      -5.669  -0.508  -0.925  1.00  0.00     0.009 C 
HETATM    2  C2  UNL     1      -4.381  -0.252  -0.134  1.00  0.00    -0.020 C 
HETATM    3  C3  UNL     1      -4.208  -1.347   0.918  1.00  0.00     0.009 C 
HETATM    4  C4  UNL     1      -3.191  -0.147  -1.114  1.00  0.00     0.038 C 
HETATM    5  C5  UNL     1      -1.840   0.291  -0.522  1.00  0.00     0.177 C 
HETATM    6  C6  UNL     1      -1.952   1.561   0.345  1.00  0.00     0.240 C 
HETATM    7  C7  UNL     1      -2.579   3.926   0.373  1.00  0.00     0.225 C 
HETATM    8  C8  UNL     1      -4.080   3.928   0.674  1.00  0.00     0.235 C 
HETATM    9  C9  UNL     1      -5.763   4.347   2.425  1.00  0.00     0.225 C 
HETATM   10  C10 UNL     1      -6.991   4.998   1.765  1.00  0.00     0.236 C 
HETATM   11  C11 UNL     1      -7.951   5.823  -0.368  1.00  0.00     0.185 C 
HETATM   12  C12 UNL     1      -7.521   6.897  -1.375  1.00  0.00     0.105 C 
HETATM   13  C13 UNL     1      -8.441   4.556  -1.102  1.00  0.00     0.239 C 
HETATM   14  C14 UNL     1      -0.415  -1.735  -0.283  1.00  0.00     0.241 C 
HETATM   15  C15 UNL     1       0.249  -2.659   0.759  1.00  0.00     0.176 C 
HETATM   16  C16 UNL     1      -0.778  -3.681   1.280  1.00  0.00     0.036 C 
HETATM   17  C17 UNL     1      -1.510  -4.467   0.185  1.00  0.00     0.022 C 
HETATM   18  C18 UNL     1      -0.581  -5.280  -0.716  1.00  0.00     0.121 C 
HETATM   19  C19 UNL     1      -1.478  -5.260  -2.904  1.00  0.00     0.121 C 
HETATM   20  C20 UNL     1       1.555  -2.298   2.851  1.00  0.00     0.241 C 
HETATM   21  C21 UNL     1       2.168  -1.232   3.792  1.00  0.00     0.176 C 
HETATM   22  C22 UNL     1       1.136  -0.767   4.830  1.00  0.00     0.036 C 
HETATM   23  C23 UNL     1       0.459  -1.888   5.625  1.00  0.00     0.022 C 
HETATM   24  C24 UNL     1       1.430  -2.762   6.417  1.00  0.00     0.121 C 
HETATM   25  C25 UNL     1       0.594  -4.971   6.411  1.00  0.00     0.121 C 
HETATM   26  C26 UNL     1       3.844  -0.145   2.337  1.00  0.00     0.236 C 
HETATM   27  C27 UNL     1       4.136   1.094   1.475  1.00  0.00     0.225 C 
HETATM   28  C28 UNL     1       2.399   0.780  -0.235  1.00  0.00     0.235 C 
HETATM   29  C29 UNL     1       2.092   0.594  -1.725  1.00  0.00     0.225 C 
HETATM   30  C30 UNL     1       3.078   2.455  -3.003  1.00  0.00     0.241 C 
HETATM   31  C31 UNL     1       4.192   2.877  -3.982  1.00  0.00     0.185 C 
HETATM   32  C32 UNL     1       3.527   3.050  -5.356  1.00  0.00     0.105 C 
HETATM   33  C33 UNL     1       6.213   1.857  -3.000  1.00  0.00     0.251 C 
HETATM   34  C34 UNL     1       7.555   1.162  -3.351  1.00  0.00     0.313 C 
HETATM   35  C35 UNL     1       7.363  -0.341  -3.656  1.00  0.00     0.083 C 
HETATM   36  C36 UNL     1       6.516  -1.095  -2.655  1.00  0.00    -0.056 A 
HETATM   37  C37 UNL     1       6.906  -1.177  -1.312  1.00  0.00     0.010 A 
HETATM   38  C38 UNL     1       6.082  -1.786  -0.368  1.00  0.00     0.037 A 
HETATM   39  C39 UNL     1       4.864  -2.323  -0.765  1.00  0.00     0.065 A 
HETATM   40  C40 UNL     1       4.489  -2.319  -2.102  1.00  0.00     0.037 A 
HETATM   41  C41 UNL     1       5.315  -1.708  -3.048  1.00  0.00     0.010 A 
HETATM   42  O1  UNL     1      -1.807   1.542   1.568  1.00  0.00    -0.271 OA
HETATM   43  O2  UNL     1      -4.918   3.464  -0.102  1.00  0.00    -0.272 OA
HETATM   44  O3  UNL     1      -8.083   5.013   2.328  1.00  0.00    -0.272 OA
HETATM   45  O4  UNL     1      -9.589   4.419  -1.518  1.00  0.00    -0.271 OA
HETATM   46  O5  UNL     1      -0.341  -1.933  -1.495  1.00  0.00    -0.271 OA
HETATM   47  O6  UNL     1       1.627  -3.498   3.114  1.00  0.00    -0.271 OA
HETATM   48  O7  UNL     1       4.544  -1.156   2.327  1.00  0.00    -0.272 OA
HETATM   49  O8  UNL     1       1.520   0.688   0.626  1.00  0.00    -0.272 OA
HETATM   50  O9  UNL     1       2.173   3.225  -2.683  1.00  0.00    -0.271 OA
HETATM   51  O10 UNL     1       5.937   2.316  -1.893  1.00  0.00    -0.271 OA
HETATM   52  O11 UNL     1       3.995  -2.834   0.152  1.00  0.00    -0.361 OA
HETATM   53  N1  UNL     1      -2.249   2.715  -0.349  1.00  0.00    -0.351 N 
HETATM   54  N2  UNL     1      -4.449   4.584   1.830  1.00  0.00    -0.351 N 
HETATM   55  N3  UNL     1      -6.806   5.480   0.490  1.00  0.00    -0.346 N 
HETATM   56  N4  UNL     1      -7.494   3.620  -1.431  1.00  0.00    -0.368 N 
HETATM   57  N5  UNL     1      -1.202  -0.748   0.265  1.00  0.00    -0.346 N 
HETATM   58  N6  UNL     1      -1.365  -5.880  -1.792  1.00  0.00    -0.372 N 
ATOM     59  H6  UNL     1      -1.818  -6.784  -1.658  1.00  0.00     0.161 HD
HETATM   60  N7  UNL     1      -2.175  -5.832  -3.911  1.00  0.00    -0.279 NA
HETATM   61  N8  UNL     1      -0.998  -4.063  -3.308  1.00  0.00    -0.279 NA
HETATM   62  N9  UNL     1       0.784  -1.796   1.823  1.00  0.00    -0.346 N 
HETATM   63  N10 UNL     1       0.690  -3.858   7.035  1.00  0.00    -0.372 N 
ATOM     64  H10 UNL     1       0.256  -3.738   7.950  1.00  0.00     0.161 HD
HETATM   65  N11 UNL     1       1.063  -5.358   5.205  1.00  0.00    -0.279 NA
HETATM   66  N12 UNL     1      -0.062  -5.999   6.994  1.00  0.00    -0.279 NA
HETATM   67  N13 UNL     1       2.656  -0.073   3.040  1.00  0.00    -0.346 N 
HETATM   68  N14 UNL     1       3.730   0.883   0.099  1.00  0.00    -0.351 N 
HETATM   69  N15 UNL     1       3.097   1.136  -2.617  1.00  0.00    -0.351 N 
HETATM   70  N16 UNL     1       5.318   1.928  -4.053  1.00  0.00    -0.345 N 
HETATM   71  N17 UNL     1       8.553   1.406  -2.292  1.00  0.00     0.092 N 
HETATM   72  S1  UNL     1      -8.900   7.740  -2.215  1.00  0.00    -0.180 SA
HETATM   73  S2  UNL     1       4.726   3.589  -6.626  1.00  0.00    -0.180 SA
HETATM   74  H46 UNL     1       4.308  -2.559   1.042  1.00  0.00     0.217 HD
HETATM   75  H47 UNL     1      -2.613   2.628  -1.291  1.00  0.00     0.163 HD
HETATM   76  H48 UNL     1      -3.705   4.740   2.501  1.00  0.00     0.163 HD
HETATM   77  H49 UNL     1      -5.963   5.172   0.021  1.00  0.00     0.163 HD
HETATM   78  H50 UNL     1      -7.866   2.773  -1.843  1.00  0.00     0.159 HD
HETATM   79  H51 UNL     1      -6.660   3.497  -0.862  1.00  0.00     0.159 HD
HETATM   80  H52 UNL     1      -1.131  -0.585   1.268  1.00  0.00     0.163 HD
HETATM   81  H53 UNL     1      -2.394  -6.791  -3.658  1.00  0.00     0.126 HD
HETATM   82  H54 UNL     1      -1.659  -5.809  -4.782  1.00  0.00     0.126 HD
HETATM   83  H55 UNL     1      -1.656  -3.571  -3.900  1.00  0.00     0.126 HD
HETATM   84  H56 UNL     1      -0.695  -3.437  -2.560  1.00  0.00     0.126 HD
HETATM   85  H57 UNL     1       1.054  -0.859   1.519  1.00  0.00     0.163 HD
HETATM   86  H58 UNL     1       1.343  -4.608   4.569  1.00  0.00     0.126 HD
HETATM   87  H59 UNL     1       0.423  -5.974   4.717  1.00  0.00     0.126 HD
HETATM   88  H60 UNL     1      -0.255  -5.768   7.963  1.00  0.00     0.126 HD
HETATM   89  H61 UNL     1       0.465  -6.862   6.932  1.00  0.00     0.126 HD
HETATM   90  H62 UNL     1       1.969   0.581   2.669  1.00  0.00     0.163 HD
HETATM   91  H63 UNL     1       4.384   1.165  -0.628  1.00  0.00     0.163 HD
HETATM   92  H64 UNL     1       3.944   0.602  -2.776  1.00  0.00     0.163 HD
HETATM   93  H65 UNL     1       5.722   1.825  -4.979  1.00  0.00     0.163 HD
HETATM   94  H66 UNL     1       9.493   1.263  -2.655  1.00  0.00     0.313 HD
HETATM   95  H67 UNL     1       8.489   2.378  -1.984  1.00  0.00     0.313 HD
HETATM   96  H68 UNL     1      -9.584   8.074  -1.109  1.00  0.00     0.101 HD
HETATM   97  H69 UNL     1       4.880   4.843  -6.172  1.00  0.00     0.101 HD
ENDROOT
TORSDOF 37
