REMARK  19 active torsions:
REMARK  status: ('A' for Active; 'I' for Inactive)
REMARK    1  A    between atoms: C2_2  and  O1_44 
REMARK    2  A    between atoms: C3_3  and  N2_56 
REMARK    3  A    between atoms: C6_6  and  C8_8 
REMARK    4  A    between atoms: C7_7  and  O2_45 
REMARK       I    between atoms: C8_8  and  N1_55 
REMARK    5  A    between atoms: C9_9  and  N1_55 
REMARK    6  A    between atoms: C10_10  and  O7_50 
REMARK    7  A    between atoms: C11_11  and  O6_49 
REMARK    8  A    between atoms: C12_12  and  C15_15 
REMARK    9  A    between atoms: C15_15  and  O5_48 
REMARK   10  A    between atoms: C17_17  and  C18_18 
REMARK       I    between atoms: C17_17  and  N2_56 
REMARK   11  A    between atoms: C21_21  and  N3_57 
REMARK   12  A    between atoms: C24_24  and  C25_25 
REMARK       I    between atoms: C24_24  and  N3_57 
REMARK   13  A    between atoms: C25_25  and  C26_26 
REMARK   14  A    between atoms: C25_25  and  N7_63 
REMARK   15  A    between atoms: C26_26  and  C27_27 
REMARK   16  A    between atoms: C29_29  and  C30_30 
REMARK       I    between atoms: C29_29  and  N7_63 
REMARK   17  A    between atoms: C33_33  and  C36_36 
REMARK   18  A    between atoms: C37_37  and  C38_38 
REMARK   19  A    between atoms: C41_41  and  O11_54 
ROOT
HETATM    1  C18 UNL     1      -1.061   1.197   2.322  1.00  0.00     0.032 A 
HETATM    2  C19 UNL     1      -0.993   2.291   1.451  1.00  0.00     0.019 A 
HETATM    3  C20 UNL     1       0.248   2.843   1.108  1.00  0.00     0.030 A 
HETATM    4  C21 UNL     1       1.429   2.319   1.637  1.00  0.00     0.034 A 
HETATM    5  C22 UNL     1       1.354   1.237   2.524  1.00  0.00     0.030 A 
HETATM    6  C23 UNL     1       0.118   0.682   2.869  1.00  0.00     0.019 A 
ENDROOT
BRANCH   4   7
HETATM    7  N3  UNL     1       2.714   2.812   1.343  1.00  0.00    -0.325 N 
HETATM    8  C24 UNL     1       3.067   3.848   0.498  1.00  0.00     0.245 C 
HETATM    9  O9  UNL     1       2.276   4.559  -0.119  1.00  0.00    -0.271 OA
HETATM   10  H35 UNL     1       3.493   2.337   1.805  1.00  0.00     0.169 HD
BRANCH   8  11
HETATM   11  C25 UNL     1       4.595   4.125   0.465  1.00  0.00     0.182 C 
BRANCH  11  12
HETATM   12  C26 UNL     1       4.864   5.315  -0.479  1.00  0.00     0.095 C 
BRANCH  12  13
HETATM   13  C27 UNL     1       6.298   5.716  -0.511  1.00  0.00     0.046 A 
HETATM   14  C28 UNL     1       6.908   6.888  -0.025  1.00  0.00     0.135 A 
HETATM   15  N6  UNL     1       8.222   6.845  -0.258  1.00  0.00    -0.296 N 
HETATM   16  N5  UNL     1       8.348   5.662  -0.880  1.00  0.00    -0.243 N 
ATOM     17  H6  UNL     1       8.941   7.530  -0.025  1.00  0.00     0.187 HD
HETATM   18  N4  UNL     1       7.235   4.922  -1.057  1.00  0.00    -0.289 N 
HETATM   19  H36 UNL     1       9.256   5.335  -1.203  1.00  0.00     0.208 HD
ATOM     20  H4  UNL     1       7.132   4.004  -1.490  1.00  0.00     0.188 HD
ENDBRANCH  12  13
ENDBRANCH  11  12
BRANCH  11  21
HETATM   21  N7  UNL     1       5.377   2.942   0.057  1.00  0.00    -0.343 N 
HETATM   22  C29 UNL     1       5.676   1.927   0.939  1.00  0.00     0.252 C 
HETATM   23  O10 UNL     1       5.118   1.820   2.027  1.00  0.00    -0.268 OA
HETATM   24  H37 UNL     1       6.106   3.154  -0.623  1.00  0.00     0.163 HD
BRANCH  22  25
HETATM   25  C30 UNL     1       6.731   0.961   0.524  1.00  0.00     0.032 A 
HETATM   26  C31 UNL     1       7.064   0.749  -0.819  1.00  0.00     0.018 A 
HETATM   27  C32 UNL     1       8.062  -0.172  -1.158  1.00  0.00     0.012 A 
HETATM   28  C33 UNL     1       8.729  -0.903  -0.165  1.00  0.00    -0.036 A 
HETATM   29  C34 UNL     1       8.393  -0.683   1.176  1.00  0.00     0.012 A 
HETATM   30  C35 UNL     1       7.395   0.235   1.519  1.00  0.00     0.018 A 
BRANCH  28  31
HETATM   31  C36 UNL     1       9.804  -1.855  -0.480  1.00  0.00     0.012 C 
HETATM   32  C37 UNL     1       9.790  -2.675  -1.543  1.00  0.00     0.012 C 
BRANCH  32  33
HETATM   33  C38 UNL     1      10.868  -3.625  -1.854  1.00  0.00    -0.036 A 
HETATM   34  C39 UNL     1      11.511  -4.378  -0.861  1.00  0.00     0.014 A 
HETATM   35  C40 UNL     1      12.512  -5.294  -1.197  1.00  0.00     0.037 A 
HETATM   36  C41 UNL     1      12.864  -5.464  -2.532  1.00  0.00     0.065 A 
HETATM   37  C42 UNL     1      12.229  -4.738  -3.531  1.00  0.00     0.037 A 
HETATM   38  C43 UNL     1      11.228  -3.824  -3.194  1.00  0.00     0.014 A 
BRANCH  36  39
HETATM   39  O11 UNL     1      13.833  -6.346  -2.905  1.00  0.00    -0.361 OA
HETATM   40  H32 UNL     1      14.182  -6.780  -2.109  1.00  0.00     0.217 HD
ENDBRANCH  36  39
ENDBRANCH  32  33
ENDBRANCH  28  31
ENDBRANCH  22  25
ENDBRANCH  11  21
ENDBRANCH   8  11
ENDBRANCH   4   7
BRANCH   1  41
HETATM   41  C17 UNL     1      -2.359   0.574   2.710  1.00  0.00     0.256 C 
HETATM   42  O8  UNL     1      -2.461   0.083   3.827  1.00  0.00    -0.267 OA
HETATM   43  N2  UNL     1      -3.323   0.573   1.722  1.00  0.00    -0.320 N 
HETATM   44  H34 UNL     1      -3.060   0.899   0.799  1.00  0.00     0.169 HD
BRANCH  43  45
HETATM   45  C3  UNL     1      -4.654   0.112   1.816  1.00  0.00     0.071 A 
HETATM   46  C2  UNL     1      -5.425   0.101   0.643  1.00  0.00     0.129 A 
HETATM   47  C7  UNL     1      -6.784  -0.248   0.664  1.00  0.00     0.117 A 
HETATM   48  C6  UNL     1      -7.389  -0.668   1.853  1.00  0.00     0.068 A 
HETATM   49  C5  UNL     1      -6.600  -0.698   3.017  1.00  0.00     0.022 A 
HETATM   50  C4  UNL     1      -5.253  -0.305   3.002  1.00  0.00     0.034 A 
BRANCH  46  51
HETATM   51  O1  UNL     1      -4.863   0.483  -0.558  1.00  0.00    -0.351 OA
HETATM   52  C1  UNL     1      -4.312  -0.666  -1.217  1.00  0.00     0.210 C 
ENDBRANCH  46  51
BRANCH  47  53
HETATM   53  O2  UNL     1      -7.494  -0.154  -0.508  1.00  0.00    -0.357 OA
HETATM   54  H29 UNL     1      -6.925   0.336  -1.135  1.00  0.00     0.217 HD
ENDBRANCH  47  53
BRANCH  48  55
HETATM   55  C8  UNL     1      -8.827  -1.083   1.982  1.00  0.00     0.259 C 
HETATM   56  O3  UNL     1      -9.235  -1.440   3.083  1.00  0.00    -0.267 OA
HETATM   57  N1  UNL     1      -9.582  -1.034   0.830  1.00  0.00    -0.320 N 
HETATM   58  H33 UNL     1      -9.110  -0.718  -0.019  1.00  0.00     0.169 HD
BRANCH  57  59
HETATM   59  C9  UNL     1     -10.947  -1.345   0.650  1.00  0.00     0.071 A 
HETATM   60  C10 UNL     1     -11.470  -1.224  -0.656  1.00  0.00     0.129 A 
HETATM   61  C11 UNL     1     -12.830  -1.479  -0.902  1.00  0.00     0.118 A 
HETATM   62  C12 UNL     1     -13.663  -1.897   0.150  1.00  0.00     0.073 A 
HETATM   63  C13 UNL     1     -13.132  -2.043   1.438  1.00  0.00     0.023 A 
HETATM   64  C14 UNL     1     -11.784  -1.764   1.685  1.00  0.00     0.034 A 
BRANCH  60  65
HETATM   65  O7  UNL     1     -10.580  -0.789  -1.616  1.00  0.00    -0.351 OA
HETATM   66  C16 UNL     1     -10.622  -1.530  -2.833  1.00  0.00     0.210 C 
ENDBRANCH  60  65
BRANCH  61  67
HETATM   67  O6  UNL     1     -13.318  -1.286  -2.173  1.00  0.00    -0.357 OA
HETATM   68  H31 UNL     1     -14.282  -1.468  -2.184  1.00  0.00     0.217 HD
ENDBRANCH  61  67
BRANCH  62  69
HETATM   69  C15 UNL     1     -15.095  -2.169  -0.110  1.00  0.00     0.179 C 
HETATM   70  O4  UNL     1     -15.630  -2.038  -1.199  1.00  0.00    -0.646 OA
BRANCH  69  71
HETATM   71  O5  UNL     1     -15.778  -2.584   0.969  1.00  0.00    -0.773 OA
HETATM   72  H30 UNL     1     -16.695  -2.720   0.651  1.00  0.00     0.167 HD
ENDBRANCH  69  71
ENDBRANCH  62  69
ENDBRANCH  57  59
ENDBRANCH  48  55
ENDBRANCH  43  45
ENDBRANCH   1  41
TORSDOF 19
