REMARK  0 active torsions:
REMARK  status: ('A' for Active; 'I' for Inactive)
REMARK       I    between atoms: C2_2  and  C3_3 
REMARK       I    between atoms: C3_3  and  C5_5 
REMARK       I    between atoms: C5_5  and  C6_6 
REMARK       I    between atoms: C5_5  and  N11_104 
REMARK       I    between atoms: C6_6  and  C7_7 
REMARK       I    between atoms: C6_6  and  O15_91 
REMARK       I    between atoms: C7_7  and  C8_8 
REMARK       I    between atoms: C8_8  and  N1_94 
REMARK       I    between atoms: C10_10  and  O14_90 
REMARK       I    between atoms: C12_12  and  C13_13 
REMARK       I    between atoms: C13_13  and  C14_14 
REMARK       I    between atoms: C13_13  and  O13_89 
REMARK       I    between atoms: C14_14  and  C16_16 
REMARK       I    between atoms: C16_16  and  N2_95 
REMARK       I    between atoms: C17_17  and  C19_19 
REMARK       I    between atoms: C17_17  and  N2_95 
REMARK       I    between atoms: C19_19  and  C20_20 
REMARK       I    between atoms: C19_19  and  N3_96 
REMARK       I    between atoms: C23_23  and  O3_79 
REMARK       I    between atoms: C27_27  and  O5_81 
REMARK       I    between atoms: C27_27  and  N3_96 
REMARK       I    between atoms: C28_28  and  C29_29 
REMARK       I    between atoms: C28_28  and  O5_81 
REMARK       I    between atoms: C32_32  and  N4_97 
REMARK       I    between atoms: C35_35  and  C36_36 
REMARK       I    between atoms: C35_35  and  N4_97 
REMARK       I    between atoms: C36_36  and  C37_37 
REMARK       I    between atoms: C36_36  and  N7_100 
REMARK       I    between atoms: C37_37  and  C38_38 
REMARK       I    between atoms: C38_38  and  C39_39 
REMARK       I    between atoms: C39_39  and  N5_98 
REMARK       I    between atoms: C40_40  and  N5_98 
REMARK       I    between atoms: C40_40  and  N6_99 
REMARK       I    between atoms: C41_41  and  C42_42 
REMARK       I    between atoms: C41_41  and  N7_100 
REMARK       I    between atoms: C42_42  and  C43_43 
REMARK       I    between atoms: C42_42  and  N8_101 
REMARK       I    between atoms: C46_46  and  C47_47 
REMARK       I    between atoms: C46_46  and  N8_101 
REMARK       I    between atoms: C47_47  and  C48_48 
REMARK       I    between atoms: C48_48  and  C49_49 
REMARK       I    between atoms: C49_49  and  C50_50 
REMARK       I    between atoms: C50_50  and  C51_51 
REMARK       I    between atoms: C51_51  and  N9_102 
REMARK       I    between atoms: C54_54  and  S1_107 
REMARK       I    between atoms: C56_56  and  C57_57 
REMARK       I    between atoms: C56_56  and  S1_107 
REMARK       I    between atoms: C57_57  and  C60_60 
REMARK       I    between atoms: C60_60  and  C61_61 
REMARK       I    between atoms: C61_61  and  N10_103 
REMARK       I    between atoms: C65_65  and  C66_66 
REMARK       I    between atoms: C65_65  and  N11_104 
REMARK       I    between atoms: C66_66  and  C67_67 
REMARK       I    between atoms: C66_66  and  N12_105 
REMARK       I    between atoms: C70_70  and  C71_71 
REMARK       I    between atoms: C70_70  and  N12_105 
REMARK       I    between atoms: C71_71  and  C72_72 
REMARK       I    between atoms: C71_71  and  N13_106 
ROOT
HETATM    1  C1  UNL     1      -9.695   5.075   0.779  1.00  0.00     0.005 C 
HETATM    2  C2  UNL     1      -8.207   5.400   0.780  1.00  0.00     0.002 C 
HETATM    3  C3  UNL     1      -7.373   4.840  -0.394  1.00  0.00     0.006 C 
HETATM    4  C4  UNL     1      -8.152   4.848  -1.716  1.00  0.00     0.012 C 
HETATM    5  C5  UNL     1      -6.627   3.471  -0.157  1.00  0.00     0.119 C 
HETATM    6  C6  UNL     1      -5.523   3.576   0.957  1.00  0.00     0.152 C 
HETATM    7  C7  UNL     1      -4.802   2.258   1.296  1.00  0.00     0.137 C 
HETATM    8  C8  UNL     1      -4.282   1.461   0.117  1.00  0.00     0.222 C 
HETATM    9  C9  UNL     1      -3.676  -0.708  -0.829  1.00  0.00     0.158 C 
HETATM   10  C10 UNL     1      -3.998  -2.141  -0.430  1.00  0.00     0.138 C 
HETATM   11  C11 UNL     1      -4.068  -2.150   1.094  1.00  0.00     0.061 C 
HETATM   12  C12 UNL     1      -4.090  -0.681   1.551  1.00  0.00     0.119 C 
HETATM   13  C13 UNL     1      -2.968  -0.387   2.611  1.00  0.00     0.156 C 
HETATM   14  C14 UNL     1      -1.563  -0.124   2.010  1.00  0.00     0.105 C 
HETATM   15  C15 UNL     1      -0.645   0.666   2.951  1.00  0.00     0.022 C 
HETATM   16  C16 UNL     1      -0.922  -1.442   1.592  1.00  0.00     0.224 C 
HETATM   17  C17 UNL     1       0.223  -3.519   2.336  1.00  0.00     0.107 C 
HETATM   18  C18 UNL     1       0.319  -4.310   3.642  1.00  0.00     0.034 C 
HETATM   19  C19 UNL     1       1.588  -3.373   1.567  1.00  0.00     0.142 C 
HETATM   20  C20 UNL     1       2.495  -2.281   2.129  1.00  0.00    -0.033 A 
HETATM   21  C21 UNL     1       2.646  -1.079   1.420  1.00  0.00     0.012 A 
HETATM   22  C22 UNL     1       3.452  -0.047   1.912  1.00  0.00     0.037 A 
HETATM   23  C23 UNL     1       4.118  -0.200   3.125  1.00  0.00     0.068 A 
HETATM   24  C24 UNL     1       3.999  -1.404   3.822  1.00  0.00     0.037 A 
HETATM   25  C25 UNL     1       3.198  -2.438   3.330  1.00  0.00     0.012 A 
HETATM   26  C26 UNL     1       4.736   2.080   3.274  1.00  0.00     0.210 C 
HETATM   27  C27 UNL     1       1.873  -5.614   0.633  1.00  0.00     0.361 C 
HETATM   28  C28 UNL     1       2.640  -7.136  -0.982  1.00  0.00     0.219 C 
HETATM   29  C29 UNL     1       2.782  -6.246  -2.193  1.00  0.00    -0.034 A 
HETATM   30  C30 UNL     1       1.649  -5.767  -2.860  1.00  0.00     0.011 A 
HETATM   31  C31 UNL     1       1.769  -4.824  -3.887  1.00  0.00     0.030 A 
HETATM   32  C32 UNL     1       3.023  -4.339  -4.254  1.00  0.00     0.034 A 
HETATM   33  C33 UNL     1       4.161  -4.848  -3.616  1.00  0.00     0.030 A 
HETATM   34  C34 UNL     1       4.043  -5.792  -2.594  1.00  0.00     0.011 A 
HETATM   35  C35 UNL     1       2.270  -2.571  -5.865  1.00  0.00     0.245 C 
HETATM   36  C36 UNL     1       2.839  -1.311  -6.561  1.00  0.00     0.177 C 
HETATM   37  C37 UNL     1       3.813  -1.658  -7.696  1.00  0.00     0.036 C 
HETATM   38  C38 UNL     1       4.250  -0.420  -8.489  1.00  0.00     0.022 C 
HETATM   39  C39 UNL     1       5.188  -0.771  -9.640  1.00  0.00     0.124 C 
HETATM   40  C40 UNL     1       7.323  -1.855 -10.058  1.00  0.00     0.291 C 
HETATM   41  C41 UNL     1       4.516  -0.535  -4.850  1.00  0.00     0.241 C 
HETATM   42  C42 UNL     1       4.793   0.517  -3.752  1.00  0.00     0.180 C 
HETATM   43  C43 UNL     1       5.384   1.839  -4.292  1.00  0.00     0.009 C 
HETATM   44  C44 UNL     1       6.647   1.632  -5.134  1.00  0.00     0.012 C 
HETATM   45  C45 UNL     1       4.358   2.657  -5.079  1.00  0.00     0.012 C 
HETATM   46  C46 UNL     1       5.802   0.276  -1.484  1.00  0.00     0.218 C 
HETATM   47  C47 UNL     1       6.788  -0.564  -0.692  1.00  0.00     0.103 C 
HETATM   48  C48 UNL     1       7.264   0.111   0.593  1.00  0.00     0.009 C 
HETATM   49  C49 UNL     1       8.233   1.260   0.316  1.00  0.00     0.002 C 
HETATM   50  C50 UNL     1       8.633   2.061   1.560  1.00  0.00     0.020 C 
HETATM   51  C51 UNL     1       9.526   1.306   2.550  1.00  0.00     0.135 C 
HETATM   52  C52 UNL     1       8.883  -0.796   3.703  1.00  0.00     0.228 C 
HETATM   53  C53 UNL     1       8.077  -1.229   4.891  1.00  0.00     0.128 C 
HETATM   54  C54 UNL     1       7.656   0.075   5.544  1.00  0.00     0.148 C 
HETATM   55  C55 UNL     1       8.146   1.154   4.606  1.00  0.00     0.240 C 
HETATM   56  C56 UNL     1      10.103   0.291   6.953  1.00  0.00     0.084 C 
HETATM   57  C57 UNL     1      10.781   1.188   7.970  1.00  0.00    -0.024 A 
HETATM   58  C58 UNL     1      10.911   0.690   9.400  1.00  0.00     0.011 A 
HETATM   59  C59 UNL     1      12.122   0.733   8.517  1.00  0.00     0.011 A 
HETATM   60  C60 UNL     1      10.591   2.686   7.757  1.00  0.00     0.112 C 
HETATM   61  C61 UNL     1      11.117   3.176   6.421  1.00  0.00     0.216 C 
HETATM   62  C62 UNL     1      -4.164   0.408   4.531  1.00  0.00     0.202 C 
HETATM   63  C63 UNL     1      -3.982   5.279   1.644  1.00  0.00     0.202 C 
HETATM   64  C64 UNL     1      -7.588   1.483  -1.291  1.00  0.00     0.153 C 
HETATM   65  C65 UNL     1      -8.224   2.020   1.109  1.00  0.00     0.243 C 
HETATM   66  C66 UNL     1      -9.366   0.960   1.179  1.00  0.00     0.180 C 
HETATM   67  C67 UNL     1      -8.906  -0.446   1.655  1.00  0.00     0.009 C 
HETATM   68  C68 UNL     1      -8.230  -0.381   3.031  1.00  0.00     0.012 C 
HETATM   69  C69 UNL     1      -8.011  -1.208   0.682  1.00  0.00     0.012 C 
HETATM   70  C70 UNL     1     -11.442   0.366  -0.116  1.00  0.00     0.252 C 
HETATM   71  C71 UNL     1     -12.199   0.771  -1.437  1.00  0.00     0.316 C 
HETATM   72  C72 UNL     1     -13.495  -0.078  -1.638  1.00  0.00     0.020 C 
HETATM   73  C73 UNL     1     -14.545   0.251  -0.557  1.00  0.00     0.012 C 
HETATM   74  C74 UNL     1     -14.187   0.135  -2.990  1.00  0.00     0.012 C 
HETATM   75  C75 UNL     1     -11.420   1.737  -3.588  1.00  0.00     0.310 C 
HETATM   76  C76 UNL     1     -10.780  -0.527  -3.002  1.00  0.00     0.310 C 
HETATM   77  O1  UNL     1      -4.075   1.978  -0.982  1.00  0.00    -0.273 OA
HETATM   78  O2  UNL     1      -0.926  -1.816   0.420  1.00  0.00    -0.273 OA
HETATM   79  O3  UNL     1       4.930   0.735   3.706  1.00  0.00    -0.356 OA
HETATM   80  O4  UNL     1       0.704  -5.781   0.329  1.00  0.00    -0.238 OA
HETATM   81  O5  UNL     1       2.921  -6.343   0.182  1.00  0.00    -0.299 OA
HETATM   82  O6  UNL     1       1.070  -2.824  -5.934  1.00  0.00    -0.271 OA
HETATM   83  O7  UNL     1       7.118  -2.042 -11.246  1.00  0.00    -0.254 OA
HETATM   84  O8  UNL     1       5.291  -1.470  -5.066  1.00  0.00    -0.271 OA
HETATM   85  O9  UNL     1       5.145   1.193  -1.005  1.00  0.00    -0.274 OA
HETATM   86  O10 UNL     1       9.523  -1.566   3.001  1.00  0.00    -0.273 OA
HETATM   87  O11 UNL     1       8.049   2.360   4.799  1.00  0.00    -0.272 OA
HETATM   88  O12 UNL     1      12.250   2.951   6.007  1.00  0.00    -0.274 OA
HETATM   89  O13 UNL     1      -3.338   0.744   3.422  1.00  0.00    -0.388 OA
HETATM   90  O14 UNL     1      -3.021  -3.065  -0.886  1.00  0.00    -0.394 OA
HETATM   91  O15 UNL     1      -4.565   4.579   0.553  1.00  0.00    -0.388 OA
HETATM   92  O16 UNL     1      -7.909   2.587   2.163  1.00  0.00    -0.271 OA
HETATM   93  O17 UNL     1     -11.893  -0.376   0.748  1.00  0.00    -0.271 OA
HETATM   94  N1  UNL     1      -4.036   0.112   0.313  1.00  0.00    -0.342 N 
HETATM   95  N2  UNL     1      -0.433  -2.229   2.609  1.00  0.00    -0.354 N 
HETATM   96  N3  UNL     1       2.349  -4.607   1.420  1.00  0.00    -0.326 N 
HETATM   97  N4  UNL     1       3.226  -3.305  -5.186  1.00  0.00    -0.325 N 
HETATM   98  N5  UNL     1       6.450  -1.301  -9.168  1.00  0.00    -0.348 N 
HETATM   99  N6  UNL     1       8.495  -2.200  -9.467  1.00  0.00    -0.254 NA
HETATM  100  N7  UNL     1       3.350  -0.362  -5.559  1.00  0.00    -0.346 N 
HETATM  101  N8  UNL     1       5.694  -0.122  -2.794  1.00  0.00    -0.347 N 
HETATM  102  N9  UNL     1       8.787   0.557   3.553  1.00  0.00    -0.287 N 
HETATM  103  N10 UNL     1      10.239   3.903   5.672  1.00  0.00    -0.370 N 
HETATM  104  N11 UNL     1      -7.536   2.291  -0.072  1.00  0.00    -0.347 N 
HETATM  105  N12 UNL     1     -10.208   0.975  -0.010  1.00  0.00    -0.346 N 
HETATM  106  N13 UNL     1     -11.163   0.792  -2.510  1.00  0.00     0.094 N 
HETATM  107  S1  UNL     1       8.301   0.315   7.240  1.00  0.00    -0.153 SA
HETATM  108  HB0 UNL     1      -2.143  -2.755  -0.570  1.00  0.00     0.210 HD
HETATM  109  HB1 UNL     1      -0.177  -1.773   3.476  1.00  0.00     0.162 HD
HETATM  110  HB2 UNL     1       3.353  -4.520   1.343  1.00  0.00     0.165 HD
HETATM  111  HB3 UNL     1       4.185  -2.964  -5.264  1.00  0.00     0.169 HD
HETATM  112  HB4 UNL     1       6.912  -0.791  -8.428  1.00  0.00     0.163 HD
HETATM  113  HB5 UNL     1       9.097  -2.726 -10.090  1.00  0.00     0.128 HD
HETATM  114  HB6 UNL     1       8.410  -2.603  -8.545  1.00  0.00     0.128 HD
HETATM  115  HB7 UNL     1       2.650   0.249  -5.150  1.00  0.00     0.163 HD
HETATM  116  HB8 UNL     1       6.242  -0.906  -3.136  1.00  0.00     0.163 HD
HETATM  117  HB9 UNL     1       9.249   3.656   5.704  1.00  0.00     0.159 HD
HETATM  118  HC0 UNL     1      10.569   4.140   4.746  1.00  0.00     0.159 HD
HETATM  119  HC1 UNL     1     -10.014   1.647  -0.746  1.00  0.00     0.163 HD
ENDROOT
TORSDOF 47
