REMARK  32 active torsions:
REMARK  status: ('A' for Active; 'I' for Inactive)
REMARK    1  A    between atoms: C2_2  and  C3_3 
REMARK    2  A    between atoms: C2_2  and  N6_60 
REMARK       I    between atoms: C3_3  and  N1_55 
REMARK    3  A    between atoms: C4_4  and  C5_5 
REMARK    4  A    between atoms: C4_4  and  C8_8 
REMARK    5  A    between atoms: C4_4  and  N1_55 
REMARK    6  A    between atoms: C5_5  and  C6_6 
REMARK    7  A    between atoms: C6_6  and  C7_7 
REMARK    8  A    between atoms: C7_7  and  O3_43 
REMARK       I    between atoms: C8_8  and  N2_56 
REMARK    9  A    between atoms: C9_9  and  C11_11 
REMARK   10  A    between atoms: C9_9  and  N2_56 
REMARK       I    between atoms: C11_11  and  N3_57 
REMARK   11  A    between atoms: C12_12  and  C13_13 
REMARK   12  A    between atoms: C12_12  and  C16_16 
REMARK   13  A    between atoms: C12_12  and  N3_57 
REMARK   14  A    between atoms: C13_13  and  C14_14 
REMARK   15  A    between atoms: C14_14  and  C15_15 
REMARK   16  A    between atoms: C15_15  and  O7_47 
REMARK       I    between atoms: C16_16  and  N4_58 
REMARK   17  A    between atoms: C17_17  and  C19_19 
REMARK   18  A    between atoms: C17_17  and  N4_58 
REMARK       I    between atoms: C19_19  and  N5_59 
REMARK   19  A    between atoms: C20_20  and  C21_21 
REMARK   20  A    between atoms: C20_20  and  C22_22 
REMARK   21  A    between atoms: C20_20  and  N5_59 
REMARK   22  A    between atoms: C21_21  and  S1_71 
REMARK   23  A    between atoms: C22_22  and  O11_51 
REMARK   24  A    between atoms: C23_23  and  C24_24 
REMARK       I    between atoms: C23_23  and  N6_60 
REMARK   25  A    between atoms: C24_24  and  C25_25 
REMARK   26  A    between atoms: C25_25  and  C26_26 
REMARK   27  A    between atoms: C26_26  and  N7_61 
REMARK   28  A    between atoms: C27_27  and  C28_28 
REMARK       I    between atoms: C27_27  and  N7_61 
REMARK   29  A    between atoms: C31_31  and  N8_62 
REMARK   30  A    between atoms: C34_34  and  C35_35 
REMARK   31  A    between atoms: C34_34  and  N8_62 
REMARK   32  A    between atoms: C40_40  and  N13_70 
ROOT
HETATM    1  C3  UNL     1       0.186  -2.344   2.003  1.00  0.00     0.240 C 
HETATM    2  O1  UNL     1       1.138  -1.588   2.197  1.00  0.00    -0.271 OA
HETATM    3  N1  UNL     1      -0.269  -2.630   0.725  1.00  0.00    -0.346 N 
HETATM    4  H42 UNL     1      -0.727  -3.536   0.664  1.00  0.00     0.163 HD
ENDROOT
BRANCH   3   5
HETATM    5  C4  UNL     1       0.554  -2.203  -0.399  1.00  0.00     0.177 C 
BRANCH   5   6
HETATM    6  C5  UNL     1      -0.126  -2.323  -1.773  1.00  0.00     0.045 C 
BRANCH   6   7
HETATM    7  C6  UNL     1      -1.055  -3.518  -1.983  1.00  0.00     0.112 C 
BRANCH   7   8
HETATM    8  C7  UNL     1      -0.464  -4.816  -1.529  1.00  0.00     0.139 C 
HETATM    9  O2  UNL     1      -0.741  -5.377  -0.478  1.00  0.00    -0.650 OA
BRANCH   8  10
HETATM   10  O3  UNL     1       0.491  -5.275  -2.353  1.00  0.00    -0.776 OA
HETATM   11  H39 UNL     1       0.907  -6.014  -1.861  1.00  0.00     0.167 HD
ENDBRANCH   8  10
ENDBRANCH   7   8
ENDBRANCH   6   7
ENDBRANCH   5   6
BRANCH   5  12
HETATM   12  C8  UNL     1       1.901  -2.967  -0.356  1.00  0.00     0.241 C 
HETATM   13  O4  UNL     1       2.002  -4.121   0.058  1.00  0.00    -0.271 OA
HETATM   14  N2  UNL     1       2.977  -2.234  -0.800  1.00  0.00    -0.346 N 
HETATM   15  H43 UNL     1       2.851  -1.225  -0.934  1.00  0.00     0.163 HD
BRANCH  14  16
HETATM   16  C9  UNL     1       4.351  -2.649  -0.533  1.00  0.00     0.172 C 
HETATM   17  C10 UNL     1       5.181  -2.541  -1.804  1.00  0.00     0.042 C 
BRANCH  16  18
HETATM   18  C11 UNL     1       4.930  -1.761   0.593  1.00  0.00     0.240 C 
HETATM   19  O5  UNL     1       6.027  -1.209   0.517  1.00  0.00    -0.271 OA
HETATM   20  N3  UNL     1       4.149  -1.656   1.728  1.00  0.00    -0.346 N 
HETATM   21  H44 UNL     1       3.157  -1.871   1.635  1.00  0.00     0.163 HD
BRANCH  20  22
HETATM   22  C12 UNL     1       4.490  -0.729   2.817  1.00  0.00     0.177 C 
BRANCH  22  23
HETATM   23  C13 UNL     1       3.957  -1.282   4.147  1.00  0.00     0.045 C 
BRANCH  23  24
HETATM   24  C14 UNL     1       4.715  -0.759   5.366  1.00  0.00     0.112 C 
BRANCH  24  25
HETATM   25  C15 UNL     1       4.518   0.712   5.578  1.00  0.00     0.139 C 
HETATM   26  O6  UNL     1       5.289   1.589   5.226  1.00  0.00    -0.650 OA
BRANCH  25  27
HETATM   27  O7  UNL     1       3.350   0.999   6.178  1.00  0.00    -0.776 OA
HETATM   28  H40 UNL     1       3.276   1.973   6.100  1.00  0.00     0.167 HD
ENDBRANCH  25  27
ENDBRANCH  24  25
ENDBRANCH  23  24
ENDBRANCH  22  23
BRANCH  22  29
HETATM   29  C16 UNL     1       3.877   0.642   2.433  1.00  0.00     0.241 C 
HETATM   30  O8  UNL     1       2.932   1.160   3.021  1.00  0.00    -0.271 OA
HETATM   31  N4  UNL     1       4.482   1.230   1.337  1.00  0.00    -0.346 N 
HETATM   32  H45 UNL     1       5.138   0.649   0.818  1.00  0.00     0.163 HD
BRANCH  31  33
HETATM   33  C17 UNL     1       3.814   2.298   0.615  1.00  0.00     0.172 C 
HETATM   34  C18 UNL     1       4.835   3.211  -0.049  1.00  0.00     0.042 C 
BRANCH  33  35
HETATM   35  C19 UNL     1       2.881   1.685  -0.457  1.00  0.00     0.240 C 
HETATM   36  O9  UNL     1       2.972   0.525  -0.866  1.00  0.00    -0.271 OA
HETATM   37  N5  UNL     1       1.957   2.563  -0.970  1.00  0.00    -0.344 N 
HETATM   38  H46 UNL     1       1.892   3.508  -0.605  1.00  0.00     0.163 HD
BRANCH  37  39
HETATM   39  C20 UNL     1       1.099   2.230  -2.110  1.00  0.00     0.191 C 
BRANCH  39  40
HETATM   40  C21 UNL     1       1.841   2.354  -3.449  1.00  0.00     0.106 C 
BRANCH  40  41
HETATM   41  S1  UNL     1       2.563   4.010  -3.753  1.00  0.00    -0.180 SA
HETATM   42  H53 UNL     1       1.396   4.658  -3.948  1.00  0.00     0.101 HD
ENDBRANCH  40  41
ENDBRANCH  39  40
BRANCH  39  43
HETATM   43  C22 UNL     1      -0.146   3.110  -2.077  1.00  0.00     0.164 C 
HETATM   44  O10 UNL     1      -0.396   3.961  -1.234  1.00  0.00    -0.648 OA
BRANCH  43  45
HETATM   45  O11 UNL     1      -0.992   2.855  -3.095  1.00  0.00    -0.775 OA
HETATM   46  H41 UNL     1      -1.649   3.597  -3.078  1.00  0.00     0.167 HD
ENDBRANCH  43  45
ENDBRANCH  39  43
ENDBRANCH  37  39
ENDBRANCH  33  35
ENDBRANCH  31  33
ENDBRANCH  22  29
ENDBRANCH  20  22
ENDBRANCH  16  18
ENDBRANCH  14  16
ENDBRANCH   5  12
ENDBRANCH   3   5
BRANCH   1  47
HETATM   47  C2  UNL     1      -0.642  -2.973   3.142  1.00  0.00     0.172 C 
HETATM   48  C1  UNL     1       0.230  -3.216   4.367  1.00  0.00     0.042 C 
BRANCH  47  49
HETATM   49  N6  UNL     1      -1.281  -4.224   2.726  1.00  0.00    -0.348 N 
HETATM   50  C23 UNL     1      -2.633  -4.311   2.482  1.00  0.00     0.218 C 
HETATM   51  O12 UNL     1      -3.396  -3.355   2.581  1.00  0.00    -0.274 OA
HETATM   52  H47 UNL     1      -0.685  -5.006   2.471  1.00  0.00     0.163 HD
BRANCH  50  53
HETATM   53  C24 UNL     1      -3.085  -5.710   2.107  1.00  0.00     0.104 C 
BRANCH  53  54
HETATM   54  C25 UNL     1      -4.560  -5.790   1.710  1.00  0.00     0.029 C 
BRANCH  54  55
HETATM   55  C26 UNL     1      -4.843  -5.266   0.303  1.00  0.00     0.123 C 
BRANCH  55  56
HETATM   56  N7  UNL     1      -4.629  -3.843   0.169  1.00  0.00    -0.357 N 
HETATM   57  C27 UNL     1      -4.818  -3.212  -1.040  1.00  0.00     0.251 C 
HETATM   58  O13 UNL     1      -5.108  -3.809  -2.071  1.00  0.00    -0.268 OA
HETATM   59  H48 UNL     1      -4.546  -3.289   1.022  1.00  0.00     0.162 HD
BRANCH  57  60
HETATM   60  C28 UNL     1      -4.660  -1.732  -1.060  1.00  0.00     0.032 A 
HETATM   61  C29 UNL     1      -3.822  -1.051  -0.175  1.00  0.00     0.019 A 
HETATM   62  C30 UNL     1      -3.681   0.339  -0.278  1.00  0.00     0.024 A 
HETATM   63  C31 UNL     1      -4.346   1.074  -1.271  1.00  0.00     0.008 A 
HETATM   64  C32 UNL     1      -5.218   0.381  -2.118  1.00  0.00     0.024 A 
HETATM   65  C33 UNL     1      -5.355  -1.009  -2.033  1.00  0.00     0.019 A 
BRANCH  63  66
HETATM   66  N8  UNL     1      -4.199   2.467  -1.281  1.00  0.00    -0.287 NA
HETATM   67  H49 UNL     1      -3.276   2.740  -0.939  1.00  0.00     0.128 HD
BRANCH  66  68
HETATM   68  C34 UNL     1      -4.606   3.213  -2.469  1.00  0.00     0.151 C 
BRANCH  68  69
HETATM   69  C35 UNL     1      -4.080   4.628  -2.395  1.00  0.00     0.038 A 
HETATM   70  C36 UNL     1      -4.816   5.627  -1.757  1.00  0.00     0.116 A 
HETATM   71  N9  UNL     1      -4.383   6.908  -1.631  1.00  0.00    -0.348 N 
HETATM   72  C37 UNL     1      -3.160   7.171  -2.145  1.00  0.00     0.140 A 
ATOM     73  H9  UNL     1      -4.946   7.627  -1.177  1.00  0.00     0.167 HD
HETATM   74  C38 UNL     1      -2.423   6.170  -2.762  1.00  0.00     0.146 A 
HETATM   75  N12 UNL     1      -2.715   8.491  -2.005  1.00  0.00    -0.317 N 
HETATM   76  C39 UNL     1      -1.095   6.552  -3.276  1.00  0.00     0.278 A 
HETATM   77  N10 UNL     1      -2.844   4.877  -2.913  1.00  0.00    -0.350 N 
HETATM   78  O14 UNL     1      -0.367   5.760  -3.868  1.00  0.00    -0.265 OA
HETATM   79  N11 UNL     1      -0.729   7.859  -3.055  1.00  0.00    -0.298 N 
HETATM   80  C40 UNL     1      -1.538   8.780  -2.455  1.00  0.00     0.159 A 
HETATM   81  H50 UNL     1       0.158   8.146  -3.441  1.00  0.00     0.171 HD
ATOM     82  H10 UNL     1      -2.282   4.161  -3.373  1.00  0.00     0.166 HD
ATOM     83  H12 UNL     1      -3.300   9.201  -1.563  1.00  0.00     0.170 HD
BRANCH  80  84
HETATM   84  N13 UNL     1      -1.047  10.037  -2.345  1.00  0.00    -0.274 NA
HETATM   85  H51 UNL     1      -1.616  10.610  -1.726  1.00  0.00     0.127 HD
HETATM   86  H52 UNL     1      -0.059  10.125  -2.145  1.00  0.00     0.127 HD
ENDBRANCH  80  84
ENDBRANCH  68  69
ENDBRANCH  66  68
ENDBRANCH  63  66
ENDBRANCH  57  60
ENDBRANCH  55  56
ENDBRANCH  54  55
ENDBRANCH  53  54
ENDBRANCH  50  53
ENDBRANCH  47  49
ENDBRANCH   1  47
TORSDOF 32
