REMARK  28 active torsions:
REMARK  status: ('A' for Active; 'I' for Inactive)
REMARK    1  A    between atoms: C2_2  and  N1_72 
REMARK    2  A    between atoms: C3_3  and  N1_72 
REMARK    3  A    between atoms: C3_3  and  O1_77 
REMARK    4  A    between atoms: C4_4  and  O1_77 
REMARK    5  A    between atoms: C6_6  and  O13_89 
REMARK    6  A    between atoms: C16_16  and  O11_87 
REMARK    7  A    between atoms: C17_17  and  C19_19 
REMARK    8  A    between atoms: C21_21  and  O5_81 
REMARK    9  A    between atoms: C22_22  and  O4_80 
REMARK   10  A    between atoms: C23_23  and  O3_79 
REMARK   11  A    between atoms: C26_26  and  C27_27 
REMARK   12  A    between atoms: C26_26  and  O5_81 
REMARK   13  A    between atoms: C27_27  and  C28_28 
REMARK   14  A    between atoms: C27_27  and  C29_29 
REMARK   15  A    between atoms: C28_28  and  O6_82 
REMARK   16  A    between atoms: C44_44  and  C45_45 
REMARK   17  A    between atoms: C45_45  and  N2_73 
REMARK   18  A    between atoms: C53_53  and  C54_54 
REMARK   19  A    between atoms: C54_54  and  N3_74 
REMARK   20  A    between atoms: C61_61  and  C62_62 
REMARK   21  A    between atoms: C62_62  and  C63_63 
REMARK   22  A    between atoms: C63_63  and  O9_85 
REMARK   23  A    between atoms: C64_64  and  C65_65 
REMARK   24  A    between atoms: C65_65  and  O10_86 
REMARK   25  A    between atoms: C66_66  and  O12_88 
REMARK   26  A    between atoms: C69_69  and  C70_70 
REMARK   27  A    between atoms: C69_69  and  O13_89 
REMARK   28  A    between atoms: C70_70  and  N5_76 
ROOT
HETATM    1  C27 UNL     1      -0.584   2.844   2.182  1.00  0.00     0.048 C 
ENDROOT
BRANCH   1   2
HETATM    2  C26 UNL     1      -0.466   1.564   1.304  1.00  0.00     0.183 C 
BRANCH   2   3
HETATM    3  O5  UNL     1      -0.552   1.915  -0.086  1.00  0.00    -0.348 OA
BRANCH   3   4
HETATM    4  C21 UNL     1      -0.303   0.831  -0.884  1.00  0.00     0.105 A 
HETATM    5  C20 UNL     1       0.938   0.765  -1.514  1.00  0.00     0.047 A 
HETATM    6  C19 UNL     1       1.247  -0.304  -2.371  1.00  0.00    -0.044 A 
HETATM    7  C24 UNL     1       0.274  -1.298  -2.598  1.00  0.00     0.047 A 
HETATM    8  C23 UNL     1      -0.983  -1.219  -1.991  1.00  0.00     0.104 A 
HETATM    9  C22 UNL     1      -1.263  -0.145  -1.137  1.00  0.00     0.133 A 
BRANCH   6  10
HETATM   10  C17 UNL     1       2.624  -0.364  -3.019  1.00  0.00     0.076 C 
HETATM   11  C16 UNL     1       3.470  -1.538  -2.486  1.00  0.00     0.165 C 
HETATM   12  C15 UNL     1       4.629  -1.891  -3.396  1.00  0.00     0.012 A 
HETATM   13  C10 UNL     1       5.592  -2.875  -3.058  1.00  0.00    -0.033 A 
HETATM   14  C14 UNL     1       4.755  -1.236  -4.633  1.00  0.00     0.080 A 
HETATM   15  C9  UNL     1       5.479  -3.754  -1.827  1.00  0.00     0.045 C 
HETATM   16  C11 UNL     1       6.675  -3.141  -3.935  1.00  0.00     0.004 A 
HETATM   17  C8  UNL     1       6.845  -4.105  -1.229  1.00  0.00     0.047 C 
HETATM   18  C7  UNL     1       7.792  -4.642  -2.274  1.00  0.00    -0.012 A 
HETATM   19  C6  UNL     1       8.773  -5.588  -1.969  1.00  0.00     0.078 A 
HETATM   20  C68 UNL     1       7.717  -4.118  -3.582  1.00  0.00    -0.002 A 
HETATM   21  C5  UNL     1       9.679  -6.008  -2.938  1.00  0.00     0.074 A 
HETATM   22  C4  UNL     1       9.608  -5.483  -4.229  1.00  0.00     0.084 A 
HETATM   23  C67 UNL     1       8.646  -4.520  -4.568  1.00  0.00     0.030 A 
HETATM   24  C66 UNL     1       8.484  -3.961  -5.965  1.00  0.00     0.233 C 
HETATM   25  N4  UNL     1       7.900  -2.627  -6.002  1.00  0.00    -0.262 NA
HETATM   26  C12 UNL     1       6.775  -2.460  -5.160  1.00  0.00     0.025 A 
HETATM   27  H80 UNL     1       8.614  -1.991  -5.644  1.00  0.00     0.130 HD
HETATM   28  C13 UNL     1       5.835  -1.485  -5.480  1.00  0.00     0.061 A 
HETATM   29  O2  UNL     1       3.857  -0.313  -5.103  1.00  0.00    -0.350 OA
HETATM   30  C18 UNL     1       2.553  -0.454  -4.538  1.00  0.00     0.188 C 
BRANCH  11  31
HETATM   31  O11 UNL     1       3.973  -1.171  -1.197  1.00  0.00    -0.390 OA
HETATM   32  H86 UNL     1       3.204  -0.993  -0.627  1.00  0.00     0.210 HD
ENDBRANCH  11  31
BRANCH  19  33
HETATM   33  O13 UNL     1       8.890  -6.069  -0.693  1.00  0.00    -0.349 OA
BRANCH  33  34
HETATM   34  C69 UNL     1       8.359  -7.399  -0.581  1.00  0.00     0.205 C 
BRANCH  34  35
HETATM   35  C70 UNL     1       9.343  -8.294   0.189  1.00  0.00     0.295 C 
BRANCH  35  36
HETATM   36  N5  UNL     1      10.464  -8.738  -0.653  1.00  0.00     0.081 N 
HETATM   37  C71 UNL     1      11.395  -9.561   0.106  1.00  0.00     0.306 C 
HETATM   38  H81 UNL     1      10.108  -9.272  -1.445  1.00  0.00     0.315 HD
ENDBRANCH  35  36
ENDBRANCH  34  35
ENDBRANCH  33  34
ENDBRANCH  19  33
BRANCH  22  39
HETATM   39  O1  UNL     1      10.438  -5.985  -5.195  1.00  0.00    -0.321 OA
BRANCH  39  40
HETATM   40  C3  UNL     1      11.794  -5.580  -4.986  1.00  0.00     0.444 C 
BRANCH  40  41
HETATM   41  N1  UNL     1      12.462  -5.382  -6.270  1.00  0.00     0.106 N 
HETATM   42  H78 UNL     1      11.838  -4.749  -6.779  1.00  0.00     0.318 HD
BRANCH  41  43
HETATM   43  C2  UNL     1      12.585  -6.615  -7.047  1.00  0.00     0.268 C 
HETATM   44  C1  UNL     1      13.635  -7.566  -6.488  1.00  0.00     0.037 C 
ENDBRANCH  41  43
ENDBRANCH  40  41
ENDBRANCH  39  40
ENDBRANCH  22  39
BRANCH  24  45
HETATM   45  O12 UNL     1       9.713  -3.779  -6.636  1.00  0.00    -0.377 OA
HETATM   46  H87 UNL     1       9.448  -3.236  -7.397  1.00  0.00     0.212 HD
ENDBRANCH  24  45
ENDBRANCH   6  10
BRANCH   8  47
HETATM   47  O3  UNL     1      -2.012  -2.114  -2.146  1.00  0.00    -0.353 OA
HETATM   48  C25 UNL     1      -1.793  -3.199  -3.040  1.00  0.00     0.210 C 
ENDBRANCH   8  47
BRANCH   9  49
HETATM   49  O4  UNL     1      -2.503  -0.056  -0.562  1.00  0.00    -0.356 OA
HETATM   50  H82 UNL     1      -3.007  -0.815  -0.914  1.00  0.00     0.218 HD
ENDBRANCH   9  49
ENDBRANCH   3   4
ENDBRANCH   2   3
ENDBRANCH   1   2
BRANCH   1  51
HETATM   51  C28 UNL     1       0.367   2.646   3.381  1.00  0.00     0.172 C 
BRANCH  51  52
HETATM   52  O6  UNL     1       0.141   1.408   4.042  1.00  0.00    -0.400 OA
HETATM   53  H83 UNL     1       0.625   1.452   4.886  1.00  0.00     0.209 HD
ENDBRANCH  51  52
ENDBRANCH   1  51
BRANCH   1  54
HETATM   54  C29 UNL     1      -2.126   3.311   2.500  1.00  0.00     0.007 C 
HETATM   55  C30 UNL     1      -2.796   2.356   3.564  1.00  0.00     0.028 C 
HETATM   56  C31 UNL     1      -2.354   2.662   4.987  1.00  0.00    -0.020 C 
HETATM   57  C44 UNL     1      -4.361   2.317   3.580  1.00  0.00     0.023 C 
HETATM   58  C32 UNL     1      -1.923   3.866   5.382  1.00  0.00     0.008 C 
HETATM   59  C33 UNL     1      -1.861   4.976   4.432  1.00  0.00    -0.029 C 
HETATM   60  C34 UNL     1      -2.067   4.761   3.051  1.00  0.00    -0.031 C 
HETATM   61  C38 UNL     1      -1.602   6.263   4.917  1.00  0.00     0.012 C 
HETATM   62  C35 UNL     1      -2.176   5.881   2.198  1.00  0.00    -0.045 C 
HETATM   63  C36 UNL     1      -1.866   7.158   2.702  1.00  0.00     0.008 C 
HETATM   64  C39 UNL     1      -2.690   5.769   0.767  1.00  0.00     0.027 C 
HETATM   65  C37 UNL     1      -1.571   7.347   4.049  1.00  0.00     0.001 C 
HETATM   66  C40 UNL     1      -2.355   4.395   0.198  1.00  0.00     0.016 C 
HETATM   67  C58 UNL     1      -4.227   6.027   0.580  1.00  0.00     0.021 C 
HETATM   68  C41 UNL     1      -2.945   3.334   1.149  1.00  0.00     0.005 C 
HETATM   69  C42 UNL     1      -4.494   3.512   1.285  1.00  0.00    -0.004 C 
HETATM   70  C43 UNL     1      -4.978   3.441   2.725  1.00  0.00     0.013 C 
HETATM   71  C57 UNL     1      -5.050   4.712   0.442  1.00  0.00     0.005 C 
HETATM   72  C64 UNL     1      -6.587   5.004   0.452  1.00  0.00     0.022 C 
HETATM   73  C61 UNL     1      -7.065   5.812   1.702  1.00  0.00     0.016 C 
HETATM   74  C60 UNL     1      -6.085   6.910   2.040  1.00  0.00    -0.025 C 
HETATM   75  C59 UNL     1      -4.856   7.021   1.520  1.00  0.00    -0.025 C 
BRANCH  72  76
HETATM   76  C65 UNL     1      -7.405   3.725   0.203  1.00  0.00     0.169 C 
BRANCH  76  77
HETATM   77  O10 UNL     1      -8.642   4.016  -0.438  1.00  0.00    -0.400 OA
HETATM   78  H85 UNL     1      -8.433   4.307  -1.343  1.00  0.00     0.209 HD
ENDBRANCH  76  77
ENDBRANCH  72  76
BRANCH  73  79
HETATM   79  C62 UNL     1      -8.482   6.402   1.497  1.00  0.00     0.035 C 
BRANCH  79  80
HETATM   80  C63 UNL     1      -9.108   6.980   2.766  1.00  0.00     0.165 C 
BRANCH  80  81
HETATM   81  O9  UNL     1     -10.435   7.421   2.497  1.00  0.00    -0.401 OA
HETATM   82  H84 UNL     1     -10.906   6.696   2.052  1.00  0.00     0.209 HD
ENDBRANCH  80  81
ENDBRANCH  79  80
ENDBRANCH  73  79
BRANCH  57  83
HETATM   83  C45 UNL     1      -5.008   0.856   3.409  1.00  0.00     0.048 C 
HETATM   84  C46 UNL     1      -4.572   0.183   2.073  1.00  0.00     0.032 C 
HETATM   85  C47 UNL     1      -4.640  -1.354   2.043  1.00  0.00     0.002 C 
HETATM   86  C48 UNL     1      -5.498  -1.970   3.136  1.00  0.00     0.000 C 
HETATM   87  C49 UNL     1      -5.114  -1.477   4.528  1.00  0.00     0.002 C 
HETATM   88  C50 UNL     1      -4.467  -0.087   4.534  1.00  0.00     0.032 C 
BRANCH  83  89
HETATM   89  N2  UNL     1      -6.506   0.966   3.567  1.00  0.00    -0.270 N 
HETATM   90  C51 UNL     1      -7.115   1.370   4.719  1.00  0.00     0.251 A 
HETATM   91  C52 UNL     1      -8.550   1.479   4.468  1.00  0.00     0.089 A 
HETATM   92  O7  UNL     1      -6.635   1.637   5.806  1.00  0.00    -0.268 OA
HETATM   93  C53 UNL     1      -8.765   1.175   3.189  1.00  0.00     0.043 A 
HETATM   94  C56 UNL     1      -7.455   0.854   2.594  1.00  0.00     0.259 A 
HETATM   95  O8  UNL     1      -7.339   0.559   1.418  1.00  0.00    -0.267 OA
BRANCH  93  96
HETATM   96  C54 UNL     1     -10.000   1.160   2.358  1.00  0.00     0.313 C 
BRANCH  96  97
HETATM   97  N3  UNL     1     -11.186   1.767   2.964  1.00  0.00     0.083 N 
HETATM   98  C55 UNL     1     -11.154   3.221   2.931  1.00  0.00     0.307 C 
HETATM   99  H79 UNL     1     -11.332   1.421   3.910  1.00  0.00     0.315 HD
ENDBRANCH  96  97
ENDBRANCH  93  96
ENDBRANCH  83  89
ENDBRANCH  57  83
ENDBRANCH   1  54
TORSDOF 28
