REMARK  23 active torsions:
REMARK  status: ('A' for Active; 'I' for Inactive)
REMARK    1  A    between atoms: C2_2  and  C3_3 
REMARK    2  A    between atoms: C2_2  and  N11_92 
REMARK       I    between atoms: C3_3  and  N1_82 
REMARK    3  A    between atoms: C4_4  and  C5_5 
REMARK    4  A    between atoms: C4_4  and  C68_68 
REMARK    5  A    between atoms: C4_4  and  N1_82 
REMARK       I    between atoms: C5_5  and  N2_83 
REMARK    6  A    between atoms: C7_7  and  N4_85 
REMARK    7  A    between atoms: C9_9  and  C10_10 
REMARK       I    between atoms: C10_10  and  N3_84 
REMARK    8  A    between atoms: C11_11  and  N3_84 
REMARK    9  A    between atoms: C21_21  and  C22_22 
REMARK       I    between atoms: C21_21  and  N4_85 
REMARK   10  A    between atoms: C25_25  and  C28_28 
REMARK       I    between atoms: C28_28  and  N5_86 
REMARK   11  A    between atoms: C29_29  and  N5_86 
REMARK   12  A    between atoms: C34_34  and  C55_55 
REMARK   13  A    between atoms: C36_36  and  C37_37 
REMARK       I    between atoms: C36_36  and  N6_87 
REMARK   14  A    between atoms: C37_37  and  C38_38 
REMARK   15  A    between atoms: C37_37  and  N8_89 
REMARK   16  A    between atoms: C38_38  and  S1_93 
REMARK   17  A    between atoms: C41_41  and  C42_42 
REMARK   18  A    between atoms: C41_41  and  S1_93 
REMARK       I    between atoms: C42_42  and  N7_88 
REMARK   19  A    between atoms: C44_44  and  C45_45 
REMARK   20  A    between atoms: C44_44  and  N7_88 
REMARK   21  A    between atoms: C51_51  and  C52_52 
REMARK       I    between atoms: C51_51  and  N8_89 
REMARK   22  A    between atoms: C52_52  and  N9_90 
REMARK       I    between atoms: C55_55  and  N10_91 
REMARK   23  A    between atoms: C56_56  and  N10_91 
ROOT
HETATM    1  C29 UNL     1       1.206  -1.500   1.441  1.00  0.00     0.035 A 
HETATM    2  C30 UNL     1       2.466  -1.988   1.791  1.00  0.00     0.039 A 
HETATM    3  C31 UNL     1       2.997  -3.119   1.153  1.00  0.00    -0.032 A 
HETATM    4  C32 UNL     1       2.229  -3.802   0.182  1.00  0.00    -0.048 A 
HETATM    5  C33 UNL     1       2.808  -4.967  -0.607  1.00  0.00     0.074 C 
HETATM    6  C34 UNL     1       4.179  -5.409  -0.070  1.00  0.00     0.184 C 
HETATM    7  C35 UNL     1       4.398  -3.592   1.498  1.00  0.00     0.166 C 
HETATM    8  C36 UNL     1       5.494  -3.382  -0.692  1.00  0.00     0.245 C 
HETATM    9  C66 UNL     1       0.943  -3.346  -0.118  1.00  0.00     0.010 A 
HETATM   10  C67 UNL     1       0.441  -2.201   0.503  1.00  0.00     0.030 A 
HETATM   11  O6  UNL     1       5.282  -3.639  -1.879  1.00  0.00    -0.271 OA
HETATM   12  N6  UNL     1       4.986  -4.226   0.320  1.00  0.00    -0.332 N 
ENDROOT
BRANCH   1  13
HETATM   13  N5  UNL     1       0.649  -0.318   1.968  1.00  0.00    -0.323 N 
HETATM   14  C28 UNL     1       1.255   0.593   2.816  1.00  0.00     0.256 C 
HETATM   15  O5  UNL     1       2.411   0.559   3.219  1.00  0.00    -0.267 OA
HETATM   16  H86 UNL     1      -0.252  -0.060   1.584  1.00  0.00     0.169 HD
BRANCH  14  17
HETATM   17  C25 UNL     1       0.391   1.741   3.220  1.00  0.00     0.032 A 
HETATM   18  C24 UNL     1      -0.995   1.598   3.370  1.00  0.00     0.018 A 
HETATM   19  C23 UNL     1      -1.779   2.705   3.699  1.00  0.00     0.018 A 
HETATM   20  C22 UNL     1      -1.176   3.954   3.899  1.00  0.00     0.032 A 
HETATM   21  C27 UNL     1       0.211   4.091   3.814  1.00  0.00     0.018 A 
HETATM   22  C26 UNL     1       0.993   2.984   3.467  1.00  0.00     0.018 A 
BRANCH  20  23
HETATM   23  C21 UNL     1      -2.011   5.134   4.222  1.00  0.00     0.252 C 
HETATM   24  O4  UNL     1      -1.745   5.849   5.177  1.00  0.00    -0.268 OA
HETATM   25  N4  UNL     1      -3.086   5.322   3.379  1.00  0.00    -0.351 N 
HETATM   26  H85 UNL     1      -3.241   4.594   2.680  1.00  0.00     0.163 HD
BRANCH  25  27
HETATM   27  C7  UNL     1      -4.252   6.087   3.806  1.00  0.00     0.105 C 
HETATM   28  C6  UNL     1      -5.235   5.185   4.561  1.00  0.00     0.152 C 
HETATM   29  N2  UNL     1      -6.055   4.578   3.514  1.00  0.00    -0.335 N 
HETATM   30  C5  UNL     1      -6.834   3.477   3.784  1.00  0.00     0.244 C 
HETATM   31  C9  UNL     1      -5.924   5.305   2.249  1.00  0.00     0.181 C 
HETATM   32  O2  UNL     1      -6.788   2.923   4.889  1.00  0.00    -0.271 OA
HETATM   33  C8  UNL     1      -5.099   6.550   2.613  1.00  0.00     0.061 C 
BRANCH  30  34
HETATM   34  C4  UNL     1      -7.749   2.899   2.672  1.00  0.00     0.184 C 
BRANCH  34  35
HETATM   35  C68 UNL     1      -9.267   3.172   2.903  1.00  0.00    -0.022 C 
HETATM   36  C69 UNL     1     -10.069   2.565   1.730  1.00  0.00     0.017 C 
HETATM   37  C70 UNL     1      -9.540   4.688   2.923  1.00  0.00     0.017 C 
HETATM   38  C71 UNL     1      -9.799   2.564   4.214  1.00  0.00     0.017 C 
ENDBRANCH  34  35
BRANCH  34  39
HETATM   39  N1  UNL     1      -7.439   1.466   2.667  1.00  0.00    -0.345 N 
HETATM   40  C3  UNL     1      -6.668   0.902   1.671  1.00  0.00     0.251 C 
HETATM   41  O1  UNL     1      -6.429   1.473   0.609  1.00  0.00    -0.271 OA
HETATM   42  H83 UNL     1      -7.398   1.038   3.587  1.00  0.00     0.163 HD
BRANCH  40  43
HETATM   43  C2  UNL     1      -6.123  -0.501   2.016  1.00  0.00     0.307 C 
HETATM   44  C1  UNL     1      -4.911  -0.347   2.933  1.00  0.00     0.053 C 
BRANCH  43  45
HETATM   45  N11 UNL     1      -5.706  -1.231   0.802  1.00  0.00     0.092 N 
HETATM   46  C72 UNL     1      -6.852  -1.721   0.045  1.00  0.00     0.307 C 
HETATM   47  H90 UNL     1      -5.188  -0.579   0.202  1.00  0.00     0.316 HD
ENDBRANCH  43  45
ENDBRANCH  40  43
ENDBRANCH  34  39
ENDBRANCH  30  34
BRANCH  31  48
HETATM   48  C10 UNL     1      -5.150   4.506   1.178  1.00  0.00     0.241 C 
HETATM   49  O3  UNL     1      -4.263   3.704   1.470  1.00  0.00    -0.271 OA
HETATM   50  N3  UNL     1      -5.480   4.843  -0.113  1.00  0.00    -0.351 N 
HETATM   51  H84 UNL     1      -6.230   5.496  -0.301  1.00  0.00     0.163 HD
BRANCH  50  52
HETATM   52  C11 UNL     1      -4.875   4.192  -1.267  1.00  0.00     0.118 C 
HETATM   53  C12 UNL     1      -3.517   4.829  -1.599  1.00  0.00     0.030 C 
HETATM   54  C13 UNL     1      -3.696   6.198  -2.249  1.00  0.00     0.007 C 
HETATM   55  C14 UNL     1      -4.450   6.069  -3.570  1.00  0.00     0.039 C 
HETATM   56  C15 UNL     1      -5.670   5.185  -3.483  1.00  0.00    -0.050 A 
HETATM   57  C16 UNL     1      -6.618   5.234  -4.517  1.00  0.00     0.007 A 
HETATM   58  C20 UNL     1      -5.845   4.267  -2.431  1.00  0.00    -0.029 A 
HETATM   59  C17 UNL     1      -7.734   4.398  -4.501  1.00  0.00     0.001 A 
HETATM   60  C18 UNL     1      -7.912   3.496  -3.457  1.00  0.00     0.001 A 
HETATM   61  C19 UNL     1      -6.975   3.430  -2.428  1.00  0.00     0.010 A 
ENDBRANCH  50  52
ENDBRANCH  31  48
ENDBRANCH  25  27
ENDBRANCH  20  23
ENDBRANCH  14  17
ENDBRANCH   1  13
BRANCH   6  62
HETATM   62  C55 UNL     1       4.762  -6.561  -0.922  1.00  0.00     0.241 C 
HETATM   63  O9  UNL     1       4.266  -7.689  -0.854  1.00  0.00    -0.271 OA
HETATM   64  N10 UNL     1       5.760  -6.253  -1.804  1.00  0.00    -0.351 N 
HETATM   65  H89 UNL     1       5.858  -5.267  -2.042  1.00  0.00     0.163 HD
BRANCH  64  66
HETATM   66  C56 UNL     1       6.273  -7.197  -2.785  1.00  0.00     0.118 C 
HETATM   67  C57 UNL     1       7.800  -7.079  -2.882  1.00  0.00     0.030 C 
HETATM   68  C58 UNL     1       8.215  -5.826  -3.646  1.00  0.00     0.007 C 
HETATM   69  C59 UNL     1       7.683  -5.861  -5.075  1.00  0.00     0.039 C 
HETATM   70  C60 UNL     1       6.243  -6.301  -5.180  1.00  0.00    -0.050 A 
HETATM   71  C61 UNL     1       5.562  -6.093  -6.390  1.00  0.00     0.007 A 
HETATM   72  C65 UNL     1       5.592  -6.968  -4.125  1.00  0.00    -0.029 A 
HETATM   73  C62 UNL     1       4.247  -6.528  -6.552  1.00  0.00     0.001 A 
HETATM   74  C63 UNL     1       3.599  -7.182  -5.510  1.00  0.00     0.001 A 
HETATM   75  C64 UNL     1       4.266  -7.401  -4.305  1.00  0.00     0.010 A 
ENDBRANCH  64  66
ENDBRANCH   6  62
BRANCH   8  76
HETATM   76  C37 UNL     1       6.282  -2.103  -0.250  1.00  0.00     0.194 C 
BRANCH  76  77
HETATM   77  C38 UNL     1       6.766  -1.128  -1.381  1.00  0.00     0.030 C 
HETATM   78  C39 UNL     1       7.746  -1.765  -2.381  1.00  0.00     0.029 C 
HETATM   79  C40 UNL     1       7.477   0.092  -0.751  1.00  0.00     0.029 C 
BRANCH  77  80
HETATM   80  S1  UNL     1       5.374  -0.426  -2.429  1.00  0.00    -0.148 SA
BRANCH  80  81
HETATM   81  C41 UNL     1       4.139   0.045  -1.173  1.00  0.00     0.177 C 
BRANCH  81  82
HETATM   82  C42 UNL     1       3.020   0.870  -1.793  1.00  0.00     0.229 C 
HETATM   83  O7  UNL     1       3.018   2.096  -1.639  1.00  0.00    -0.273 OA
HETATM   84  N7  UNL     1       2.005   0.217  -2.486  1.00  0.00    -0.352 N 
HETATM   85  C43 UNL     1       2.011  -1.197  -2.840  1.00  0.00     0.153 C 
BRANCH  84  86
HETATM   86  C44 UNL     1       0.921   1.020  -3.040  1.00  0.00     0.164 C 
BRANCH  86  87
HETATM   87  C45 UNL     1      -0.258   1.110  -2.096  1.00  0.00    -0.037 A 
HETATM   88  C46 UNL     1      -1.343   0.230  -2.210  1.00  0.00     0.051 A 
HETATM   89  C47 UNL     1      -2.419   0.336  -1.333  1.00  0.00     0.117 A 
HETATM   90  C48 UNL     1      -2.441   1.301  -0.335  1.00  0.00     0.042 A 
HETATM   91  F1  UNL     1      -3.452  -0.508  -1.455  1.00  0.00    -0.206 F 
HETATM   92  C49 UNL     1      -1.367   2.178  -0.209  1.00  0.00     0.004 A 
HETATM   93  C50 UNL     1      -0.279   2.078  -1.078  1.00  0.00     0.009 A 
ENDBRANCH  86  87
ENDBRANCH  84  86
ENDBRANCH  81  82
ENDBRANCH  80  81
ENDBRANCH  77  80
ENDBRANCH  76  77
BRANCH  76  94
HETATM   94  N8  UNL     1       7.306  -2.465   0.739  1.00  0.00    -0.344 N 
HETATM   95  C51 UNL     1       8.305  -3.390   0.513  1.00  0.00     0.251 C 
HETATM   96  O8  UNL     1       8.354  -4.117  -0.472  1.00  0.00    -0.271 OA
HETATM   97  H87 UNL     1       7.521  -1.812   1.490  1.00  0.00     0.163 HD
BRANCH  95  98
HETATM   98  C52 UNL     1       9.324  -3.475   1.669  1.00  0.00     0.307 C 
HETATM   99  C53 UNL     1       8.732  -4.372   2.755  1.00  0.00     0.053 C 
BRANCH  98 100
HETATM  100  N9  UNL     1       9.601  -2.091   2.143  1.00  0.00     0.092 N 
HETATM  101  C54 UNL     1      10.607  -2.065   3.201  1.00  0.00     0.307 C 
HETATM  102  H88 UNL     1       9.980  -1.570   1.347  1.00  0.00     0.316 HD
ENDBRANCH  98 100
ENDBRANCH  95  98
ENDBRANCH  76  94
ENDBRANCH   8  76
TORSDOF 23
