REMARK  0 active torsions:
REMARK  status: ('A' for Active; 'I' for Inactive)
REMARK       I    between atoms: C3_3  and  C12_12 
REMARK       I    between atoms: C4_4  and  C6_6 
REMARK       I    between atoms: C5_5  and  N3_62 
REMARK       I    between atoms: C6_6  and  C7_7 
REMARK       I    between atoms: C6_6  and  N5_64 
REMARK       I    between atoms: C7_7  and  C8_8 
REMARK       I    between atoms: C8_8  and  N4_63 
REMARK       I    between atoms: C9_9  and  C10_10 
REMARK       I    between atoms: C9_9  and  N5_64 
REMARK       I    between atoms: C10_10  and  C11_11 
REMARK       I    between atoms: C10_10  and  N7_66 
REMARK       I    between atoms: C11_11  and  N6_65 
REMARK       I    between atoms: C12_12  and  N8_67 
REMARK       I    between atoms: C13_13  and  C14_14 
REMARK       I    between atoms: C13_13  and  C31_31 
REMARK       I    between atoms: C13_13  and  N8_67 
REMARK       I    between atoms: C14_14  and  C15_15 
REMARK       I    between atoms: C14_14  and  O4_85 
REMARK       I    between atoms: C18_18  and  O5_86 
REMARK       I    between atoms: C19_19  and  O10_91 
REMARK       I    between atoms: C20_20  and  O9_90 
REMARK       I    between atoms: C21_21  and  O8_89 
REMARK       I    between atoms: C22_22  and  C23_23 
REMARK       I    between atoms: C23_23  and  O7_88 
REMARK       I    between atoms: C24_24  and  O10_91 
REMARK       I    between atoms: C25_25  and  O16_97 
REMARK       I    between atoms: C26_26  and  O14_95 
REMARK       I    between atoms: C27_27  and  O13_94 
REMARK       I    between atoms: C28_28  and  C29_29 
REMARK       I    between atoms: C29_29  and  O12_93 
REMARK       I    between atoms: C30_30  and  N11_71 
REMARK       I    between atoms: C30_30  and  O14_95 
REMARK       I    between atoms: C31_31  and  N12_72 
REMARK       I    between atoms: C32_32  and  C34_34 
REMARK       I    between atoms: C32_32  and  N12_72 
REMARK       I    between atoms: C34_34  and  C35_35 
REMARK       I    between atoms: C34_34  and  O22_103 
REMARK       I    between atoms: C35_35  and  C37_37 
REMARK       I    between atoms: C37_37  and  N13_73 
REMARK       I    between atoms: C38_38  and  C39_39 
REMARK       I    between atoms: C38_38  and  C41_41 
REMARK       I    between atoms: C38_38  and  N13_73 
REMARK       I    between atoms: C39_39  and  O19_100 
REMARK       I    between atoms: C41_41  and  N14_74 
REMARK       I    between atoms: C42_42  and  C43_43 
REMARK       I    between atoms: C42_42  and  N14_74 
REMARK       I    between atoms: C43_43  and  C44_44 
REMARK       I    between atoms: C45_45  and  C47_47 
REMARK       I    between atoms: C48_48  and  C50_50 
REMARK       I    between atoms: C50_50  and  N17_79 
REMARK       I    between atoms: C51_51  and  C52_52 
REMARK       I    between atoms: C51_51  and  N17_79 
REMARK       I    between atoms: C52_52  and  C53_53 
REMARK       I    between atoms: C53_53  and  N18_80 
REMARK       I    between atoms: C54_54  and  C55_55 
REMARK       I    between atoms: C54_54  and  N18_80 
REMARK       I    between atoms: C55_55  and  C56_56 
REMARK       I    between atoms: C56_56  and  C57_57 
REMARK       I    between atoms: C57_57  and  N19_81 
REMARK       I    between atoms: O4_85  and  O5_86 
ROOT
HETATM    1  C1  UNL     1      -6.029  -0.246  -3.953  1.00  0.00     0.054 C 
HETATM    2  C2  UNL     1      -6.390   0.825  -2.973  1.00  0.00     0.009 A 
HETATM    3  C3  UNL     1      -5.732   0.985  -1.765  1.00  0.00     0.111 A 
HETATM    4  C4  UNL     1      -7.113   2.681  -1.097  1.00  0.00     0.117 A 
HETATM    5  C5  UNL     1      -7.455   1.694  -3.154  1.00  0.00     0.087 A 
HETATM    6  C6  UNL     1      -7.651   3.561   0.035  1.00  0.00     0.296 C 
HETATM    7  C7  UNL     1      -6.484   4.418   0.557  1.00  0.00     0.146 C 
HETATM    8  C8  UNL     1      -6.905   5.366   1.650  1.00  0.00     0.217 C 
HETATM    9  C9  UNL     1      -9.393   1.936   0.696  1.00  0.00     0.315 C 
HETATM   10  C10 UNL     1     -10.345   1.545   1.855  1.00  0.00     0.336 C 
HETATM   11  C11 UNL     1      -9.850   0.274   2.574  1.00  0.00     0.250 C 
HETATM   12  C12 UNL     1      -4.639   0.070  -1.283  1.00  0.00     0.269 C 
HETATM   13  C13 UNL     1      -3.165  -0.230   0.704  1.00  0.00     0.215 C 
HETATM   14  C14 UNL     1      -3.957  -0.418   2.021  1.00  0.00     0.243 C 
HETATM   15  C15 UNL     1      -4.435   0.874   2.630  1.00  0.00     0.060 A 
HETATM   16  C16 UNL     1      -3.758   1.965   3.142  1.00  0.00     0.116 A 
HETATM   17  C17 UNL     1      -5.825   2.403   3.428  1.00  0.00     0.180 A 
HETATM   18  C18 UNL     1      -5.946  -3.344   1.640  1.00  0.00     0.328 C 
HETATM   19  C19 UNL     1      -6.502  -3.404   0.199  1.00  0.00     0.214 C 
HETATM   20  C20 UNL     1      -5.558  -4.219  -0.714  1.00  0.00     0.183 C 
HETATM   21  C21 UNL     1      -4.499  -5.019   0.057  1.00  0.00     0.180 C 
HETATM   22  C22 UNL     1      -5.052  -5.596   1.367  1.00  0.00     0.179 C 
HETATM   23  C23 UNL     1      -5.985  -6.802   1.167  1.00  0.00     0.198 C 
HETATM   24  C24 UNL     1      -8.870  -3.191   0.609  1.00  0.00     0.292 C 
HETATM   25  C25 UNL     1     -10.195  -3.974   0.664  1.00  0.00     0.205 C 
HETATM   26  C26 UNL     1     -10.603  -4.405  -0.756  1.00  0.00     0.198 C 
HETATM   27  C27 UNL     1     -10.692  -3.168  -1.672  1.00  0.00     0.181 C 
HETATM   28  C28 UNL     1      -9.422  -2.300  -1.539  1.00  0.00     0.179 C 
HETATM   29  C29 UNL     1      -9.631  -0.954  -2.247  1.00  0.00     0.198 C 
HETATM   30  C30 UNL     1     -12.260  -5.872  -1.662  1.00  0.00     0.358 C 
HETATM   31  C31 UNL     1      -1.752   0.303   0.970  1.00  0.00     0.243 C 
HETATM   32  C32 UNL     1       0.162   1.541  -0.080  1.00  0.00     0.110 C 
HETATM   33  C33 UNL     1       0.670   1.638  -1.513  1.00  0.00     0.035 C 
HETATM   34  C34 UNL     1       0.112   2.900   0.690  1.00  0.00     0.153 C 
HETATM   35  C35 UNL     1       1.324   3.858   0.665  1.00  0.00     0.104 C 
HETATM   36  C36 UNL     1       1.424   4.673  -0.627  1.00  0.00     0.022 C 
HETATM   37  C37 UNL     1       2.656   3.179   0.966  1.00  0.00     0.224 C 
HETATM   38  C38 UNL     1       5.003   3.591   1.650  1.00  0.00     0.205 C 
HETATM   39  C39 UNL     1       5.813   2.954   0.501  1.00  0.00     0.146 C 
HETATM   40  C40 UNL     1       6.306   3.954  -0.539  1.00  0.00     0.042 C 
HETATM   41  C41 UNL     1       5.726   4.780   2.318  1.00  0.00     0.243 C 
HETATM   42  C42 UNL     1       7.825   5.528   3.395  1.00  0.00     0.129 C 
HETATM   43  C43 UNL     1       8.454   6.478   2.371  1.00  0.00     0.084 C 
HETATM   44  C44 UNL     1       9.404   5.782   1.441  1.00  0.00     0.052 A 
HETATM   45  C45 UNL     1      10.614   4.196   0.488  1.00  0.00     0.073 A 
HETATM   46  C46 UNL     1      10.893   5.226  -0.386  1.00  0.00     0.083 A 
HETATM   47  C47 UNL     1      11.206   2.749   0.290  1.00  0.00     0.102 A 
HETATM   48  C48 UNL     1      12.385   1.111  -0.665  1.00  0.00     0.108 A 
HETATM   49  C49 UNL     1      11.835   0.420   0.404  1.00  0.00     0.087 A 
HETATM   50  C50 UNL     1      13.271   0.549  -1.699  1.00  0.00     0.268 C 
HETATM   51  C51 UNL     1      14.832  -1.281  -2.275  1.00  0.00     0.125 C 
HETATM   52  C52 UNL     1      16.228  -0.695  -2.088  1.00  0.00     0.050 C 
HETATM   53  C53 UNL     1      17.263  -1.284  -3.052  1.00  0.00     0.271 C 
HETATM   54  C54 UNL     1      18.140  -3.047  -1.607  1.00  0.00     0.269 C 
HETATM   55  C55 UNL     1      18.815  -4.420  -1.638  1.00  0.00     0.032 C 
HETATM   56  C56 UNL     1      17.972  -5.614  -2.107  1.00  0.00     0.031 C 
HETATM   57  C57 UNL     1      16.690  -5.861  -1.312  1.00  0.00     0.267 C 
HETATM   58  N1  UNL     1      -6.047   1.916  -0.836  1.00  0.00    -0.339 N 
ATOM     59  H1  UNL     1      -5.501   2.029   0.018  1.00  0.00     0.167 HD
HETATM   60  N2  UNL     1      -7.824   2.599  -2.230  1.00  0.00    -0.335 N 
ATOM     61  H2  UNL     1      -8.626   3.209  -2.388  1.00  0.00     0.168 HD
HETATM   62  N3  UNL     1      -8.304   1.597  -4.261  1.00  0.00    -0.288 NA
HETATM   63  N4  UNL     1      -5.904   5.729   2.507  1.00  0.00    -0.370 N 
HETATM   64  N5  UNL     1      -8.257   2.766   1.150  1.00  0.00     0.098 N 
HETATM   65  N6  UNL     1      -8.933   0.499   3.568  1.00  0.00    -0.368 N 
HETATM   66  N7  UNL     1     -10.487   2.646   2.856  1.00  0.00     0.093 N 
HETATM   67  N8  UNL     1      -3.876   0.619  -0.269  1.00  0.00    -0.339 N 
HETATM   68  N9  UNL     1      -4.632   2.925   3.591  1.00  0.00    -0.360 N 
ATOM     69  H9  UNL     1      -4.403   3.844   3.969  1.00  0.00     0.166 HD
HETATM   70  N10 UNL     1      -5.763   1.191   2.804  1.00  0.00    -0.352 N 
HETATM   71  N11 UNL     1     -13.422  -6.488  -1.369  1.00  0.00    -0.346 N 
HETATM   72  N12 UNL     1      -1.180   0.935  -0.115  1.00  0.00    -0.352 N 
HETATM   73  N13 UNL     1       3.684   4.058   1.219  1.00  0.00    -0.345 N 
HETATM   74  N14 UNL     1       6.984   4.503   2.801  1.00  0.00    -0.359 N 
HETATM   75  N15 UNL     1       9.779   4.524   1.543  1.00  0.00    -0.351 N 
ATOM     76  H15 UNL     1       9.497   3.887   2.288  1.00  0.00     0.166 HD
HETATM   77  N16 UNL     1      12.004   2.454  -0.714  1.00  0.00    -0.344 N 
ATOM     78  H16 UNL     1      12.303   3.116  -1.430  1.00  0.00     0.167 HD
HETATM   79  N17 UNL     1      13.868  -0.661  -1.386  1.00  0.00    -0.356 N 
HETATM   80  N18 UNL     1      17.559  -2.709  -2.905  1.00  0.00     0.083 N 
HETATM   81  N19 UNL     1      15.586  -5.017  -1.767  1.00  0.00     0.078 N 
HETATM   82  O1  UNL     1      -8.040   5.815   1.770  1.00  0.00    -0.274 OA
HETATM   83  O2  UNL     1     -10.216  -0.864   2.296  1.00  0.00    -0.271 OA
HETATM   84  O3  UNL     1      -4.485  -1.068  -1.703  1.00  0.00    -0.266 OA
HETATM   85  O4  UNL     1      -5.146  -1.185   1.743  1.00  0.00    -0.224 OA
HETATM   86  O5  UNL     1      -4.734  -2.586   1.697  1.00  0.00    -0.204 OA
HETATM   87  O6  UNL     1      -5.758  -4.650   2.196  1.00  0.00    -0.346 OA
HETATM   88  O7  UNL     1      -6.404  -7.305   2.441  1.00  0.00    -0.398 OA
HETATM   89  O8  UNL     1      -3.944  -6.038  -0.778  1.00  0.00    -0.390 OA
HETATM   90  O9  UNL     1      -6.285  -5.132  -1.564  1.00  0.00    -0.390 OA
HETATM   91  O10 UNL     1      -7.814  -4.022   0.123  1.00  0.00    -0.346 OA
HETATM   92  O11 UNL     1      -9.044  -2.023  -0.190  1.00  0.00    -0.348 OA
HETATM   93  O12 UNL     1      -9.544  -1.068  -3.667  1.00  0.00    -0.398 OA
HETATM   94  O13 UNL     1     -10.825  -3.488  -3.069  1.00  0.00    -0.390 OA
HETATM   95  O14 UNL     1     -11.880  -5.086  -0.639  1.00  0.00    -0.293 OA
HETATM   96  O15 UNL     1     -11.658  -6.001  -2.715  1.00  0.00    -0.239 OA
HETATM   97  O16 UNL     1     -11.247  -3.176   1.243  1.00  0.00    -0.388 OA
HETATM   98  O17 UNL     1      -1.130   0.094   2.008  1.00  0.00    -0.271 OA
HETATM   99  O18 UNL     1       2.833   1.966   0.949  1.00  0.00    -0.273 OA
HETATM  100  O19 UNL     1       6.945   2.248   1.027  1.00  0.00    -0.393 OA
HETATM  101  O20 UNL     1       5.187   5.881   2.446  1.00  0.00    -0.271 OA
HETATM  102  O21 UNL     1      13.485   1.124  -2.764  1.00  0.00    -0.266 OA
HETATM  103  O22 UNL     1      -0.212   2.686   2.080  1.00  0.00    -0.393 OA
HETATM  104  S1  UNL     1      10.073   6.645   0.109  1.00  0.00    -0.086 SA
HETATM  105  S2  UNL     1      10.858   1.457   1.359  1.00  0.00    -0.080 SA
HETATM  106  H62 UNL     1      -7.788   1.641  -5.132  1.00  0.00     0.125 HD
HETATM  107  H63 UNL     1      -8.787   0.690  -4.236  1.00  0.00     0.125 HD
HETATM  108  H64 UNL     1      -5.159   5.061   2.705  1.00  0.00     0.159 HD
HETATM  109  H65 UNL     1      -6.195   6.277   3.307  1.00  0.00     0.159 HD
HETATM  110  H66 UNL     1      -8.638   3.435   1.831  1.00  0.00     0.317 HD
HETATM  111  H67 UNL     1      -8.962   1.439   3.957  1.00  0.00     0.159 HD
HETATM  112  H68 UNL     1      -8.760  -0.266   4.206  1.00  0.00     0.159 HD
HETATM  113  H69 UNL     1     -10.791   3.489   2.360  1.00  0.00     0.314 HD
HETATM  114  H70 UNL     1     -11.264   2.411   3.476  1.00  0.00     0.314 HD
HETATM  115  H71 UNL     1      -4.229   1.510   0.081  1.00  0.00     0.163 HD
HETATM  116  H72 UNL     1      -6.562   0.633   2.525  1.00  0.00     0.166 HD
HETATM  117  H73 UNL     1     -13.843  -7.108  -2.045  1.00  0.00     0.161 HD
HETATM  118  H74 UNL     1     -13.870  -6.317  -0.482  1.00  0.00     0.161 HD
HETATM  119  H75 UNL     1      -1.809   1.167  -0.878  1.00  0.00     0.163 HD
HETATM  120  H76 UNL     1       3.463   5.021   1.465  1.00  0.00     0.163 HD
HETATM  121  H77 UNL     1       7.467   3.699   2.392  1.00  0.00     0.162 HD
HETATM  122  H78 UNL     1      13.825  -1.004  -0.438  1.00  0.00     0.162 HD
HETATM  123  H79 UNL     1      16.709  -3.267  -3.014  1.00  0.00     0.315 HD
HETATM  124  H80 UNL     1      15.369  -5.264  -2.734  1.00  0.00     0.312 HD
HETATM  125  H81 UNL     1      14.751  -5.262  -1.234  1.00  0.00     0.312 HD
HETATM  126  H82 UNL     1      -6.532  -6.520   3.007  1.00  0.00     0.209 HD
HETATM  127  H83 UNL     1      -4.599  -6.178  -1.495  1.00  0.00     0.210 HD
HETATM  128  H84 UNL     1      -7.231  -4.997  -1.353  1.00  0.00     0.210 HD
HETATM  129  H85 UNL     1     -10.100  -1.845  -3.903  1.00  0.00     0.209 HD
HETATM  130  H86 UNL     1     -11.137  -4.415  -3.157  1.00  0.00     0.210 HD
HETATM  131  H87 UNL     1     -10.854  -2.365   1.641  1.00  0.00     0.210 HD
HETATM  132  H88 UNL     1       6.620   1.372   1.310  1.00  0.00     0.210 HD
HETATM  133  H89 UNL     1      -0.195   1.720   2.254  1.00  0.00     0.210 HD
ENDROOT
TORSDOF 52
