REMARK  24 active torsions:
REMARK  status: ('A' for Active; 'I' for Inactive)
REMARK    1  A    between atoms: C4_4  and  N6_41 
REMARK    2  A    between atoms: C5_5  and  S1_57 
REMARK    3  A    between atoms: C6_6  and  N1_35 
REMARK    4  A    between atoms: C7_7  and  C8_8 
REMARK       I    between atoms: C7_7  and  N1_35 
REMARK    5  A    between atoms: C8_8  and  C9_9 
REMARK    6  A    between atoms: C9_9  and  C10_10 
REMARK    7  A    between atoms: C10_10  and  C11_11 
REMARK    8  A    between atoms: C11_11  and  N2_36 
REMARK    9  A    between atoms: C12_12  and  C13_13 
REMARK   10  A    between atoms: C12_12  and  S1_57 
REMARK   11  A    between atoms: C13_13  and  N3_37 
REMARK       I    between atoms: C14_14  and  N4_39 
REMARK       I    between atoms: C14_14  and  N5_40 
REMARK   12  A    between atoms: C15_15  and  C16_16 
REMARK       I    between atoms: C15_15  and  N6_41 
REMARK   13  A    between atoms: C18_18  and  C20_20 
REMARK       I    between atoms: C20_20  and  N9_46 
REMARK   14  A    between atoms: C21_21  and  N9_46 
REMARK   15  A    between atoms: C25_25  and  N13_51 
REMARK   16  A    between atoms: C26_26  and  S2_58 
REMARK   17  A    between atoms: C27_27  and  C28_28 
REMARK   18  A    between atoms: C27_27  and  S2_58 
REMARK   19  A    between atoms: C28_28  and  N10_47 
REMARK       I    between atoms: C29_29  and  N11_49 
REMARK       I    between atoms: C29_29  and  N12_50 
REMARK   20  A    between atoms: C30_30  and  C31_31 
REMARK       I    between atoms: C30_30  and  N13_51 
REMARK   21  A    between atoms: C31_31  and  C32_32 
REMARK   22  A    between atoms: C32_32  and  C33_33 
REMARK   23  A    between atoms: C33_33  and  C34_34 
REMARK   24  A    between atoms: C34_34  and  N14_52 
ROOT
HETATM    1  C16 UNL     1      -0.986   1.096   1.734  1.00  0.00     0.104 A 
HETATM    2  C17 UNL     1      -0.058   1.726   0.943  1.00  0.00     0.070 A 
HETATM    3  C18 UNL     1       1.240   1.586   1.368  1.00  0.00     0.104 A 
HETATM    4  C19 UNL     1       0.613   0.331   3.168  1.00  0.00     0.181 A 
HETATM    5  N7  UNL     1       1.610   0.890   2.475  1.00  0.00    -0.348 N 
ATOM      6  H7  UNL     1       2.586   0.800   2.759  1.00  0.00     0.167 HD
HETATM    7  N8  UNL     1      -0.686   0.393   2.858  1.00  0.00    -0.348 N 
ATOM      8  H8  UNL     1      -1.403  -0.057   3.427  1.00  0.00     0.167 HD
ENDROOT
BRANCH   1   9
HETATM    9  C15 UNL     1      -2.439   1.166   1.374  1.00  0.00     0.272 C 
HETATM   10  N6  UNL     1      -3.248   0.424   2.218  1.00  0.00    -0.320 N 
HETATM   11  H38 UNL     1      -2.800   0.198   3.103  1.00  0.00     0.169 HD
HETATM   12  O2  UNL     1      -2.799   1.889   0.454  1.00  0.00    -0.266 OA
BRANCH  10  13
HETATM   13  C4  UNL     1      -4.658   0.367   2.160  1.00  0.00     0.057 A 
HETATM   14  C3  UNL     1      -5.314   0.446   3.394  1.00  0.00     0.073 A 
HETATM   15  C2  UNL     1      -6.701   0.472   3.446  1.00  0.00     0.120 A 
HETATM   16  C1  UNL     1      -7.469   0.398   2.295  1.00  0.00     0.073 A 
HETATM   17  F2  UNL     1      -7.306   0.589   4.636  1.00  0.00    -0.206 F 
HETATM   18  C6  UNL     1      -6.844   0.248   1.056  1.00  0.00     0.056 A 
HETATM   19  C5  UNL     1      -5.423   0.206   0.979  1.00  0.00     0.054 A 
BRANCH  18  20
HETATM   20  N1  UNL     1      -7.585   0.122  -0.145  1.00  0.00    -0.326 N 
HETATM   21  C7  UNL     1      -8.906  -0.259  -0.280  1.00  0.00     0.222 C 
HETATM   22  O1  UNL     1      -9.659  -0.579   0.635  1.00  0.00    -0.273 OA
HETATM   23  H31 UNL     1      -7.003   0.087  -0.979  1.00  0.00     0.169 HD
BRANCH  21  24
HETATM   24  C8  UNL     1      -9.335  -0.275  -1.740  1.00  0.00     0.103 C 
BRANCH  24  25
HETATM   25  C9  UNL     1     -10.759  -0.799  -1.921  1.00  0.00     0.011 C 
BRANCH  25  26
HETATM   26  C10 UNL     1     -11.168  -0.948  -3.391  1.00  0.00     0.030 C 
BRANCH  26  27
HETATM   27  C11 UNL     1     -11.168   0.342  -4.215  1.00  0.00     0.267 C 
BRANCH  27  28
HETATM   28  N2  UNL     1     -12.118   1.321  -3.705  1.00  0.00     0.078 N 
HETATM   29  H32 UNL     1     -11.851   1.622  -2.769  1.00  0.00     0.312 HD
HETATM   30  H33 UNL     1     -12.093   2.157  -4.288  1.00  0.00     0.312 HD
ENDBRANCH  27  28
ENDBRANCH  26  27
ENDBRANCH  25  26
ENDBRANCH  24  25
ENDBRANCH  21  24
ENDBRANCH  18  20
BRANCH  19  31
HETATM   31  S1  UNL     1      -4.691  -0.273  -0.613  1.00  0.00    -0.124 SA
BRANCH  31  32
HETATM   32  C12 UNL     1      -4.133  -1.976  -0.211  1.00  0.00     0.099 C 
BRANCH  32  33
HETATM   33  C13 UNL     1      -5.233  -3.027  -0.400  1.00  0.00     0.132 C 
BRANCH  33  34
HETATM   34  N3  UNL     1      -6.177  -2.967   0.713  1.00  0.00    -0.371 N 
HETATM   35  C14 UNL     1      -7.410  -3.230   0.509  1.00  0.00     0.121 C 
HETATM   36  N4  UNL     1      -8.305  -3.096   1.513  1.00  0.00    -0.279 NA
HETATM   37  N5  UNL     1      -8.040  -3.637  -0.615  1.00  0.00    -0.279 NA
HETATM   38  H34 UNL     1      -7.844  -2.680   2.317  1.00  0.00     0.126 HD
HETATM   39  H35 UNL     1      -9.069  -2.470   1.250  1.00  0.00     0.126 HD
HETATM   40  H36 UNL     1      -8.856  -4.199  -0.393  1.00  0.00     0.126 HD
HETATM   41  H37 UNL     1      -7.440  -4.122  -1.269  1.00  0.00     0.126 HD
ATOM     42  H3  UNL     1      -5.853  -2.717   1.647  1.00  0.00     0.161 HD
ENDBRANCH  33  34
ENDBRANCH  32  33
ENDBRANCH  31  32
ENDBRANCH  19  31
ENDBRANCH  10  13
ENDBRANCH   1   9
BRANCH   3  43
HETATM   43  C20 UNL     1       2.352   2.209   0.579  1.00  0.00     0.272 C 
HETATM   44  N9  UNL     1       3.602   1.935   1.094  1.00  0.00    -0.320 N 
HETATM   45  H39 UNL     1       3.618   1.246   1.845  1.00  0.00     0.169 HD
HETATM   46  O3  UNL     1       2.103   2.836  -0.446  1.00  0.00    -0.266 OA
BRANCH  44  47
HETATM   47  C21 UNL     1       4.861   2.290   0.565  1.00  0.00     0.057 A 
HETATM   48  C22 UNL     1       5.011   3.302  -0.381  1.00  0.00     0.073 A 
HETATM   49  C23 UNL     1       6.278   3.617  -0.856  1.00  0.00     0.120 A 
HETATM   50  C24 UNL     1       7.415   2.956  -0.402  1.00  0.00     0.073 A 
HETATM   51  F1  UNL     1       6.409   4.593  -1.765  1.00  0.00    -0.206 F 
HETATM   52  C25 UNL     1       7.296   1.942   0.548  1.00  0.00     0.056 A 
HETATM   53  C26 UNL     1       6.006   1.589   1.019  1.00  0.00     0.054 A 
BRANCH  52  54
HETATM   54  N13 UNL     1       8.413   1.253   1.081  1.00  0.00    -0.326 N 
HETATM   55  C30 UNL     1       9.751   1.411   0.766  1.00  0.00     0.222 C 
HETATM   56  O4  UNL     1      10.216   2.198  -0.049  1.00  0.00    -0.273 OA
HETATM   57  H44 UNL     1       8.179   0.570   1.794  1.00  0.00     0.169 HD
BRANCH  55  58
HETATM   58  C31 UNL     1      10.627   0.477   1.591  1.00  0.00     0.103 C 
BRANCH  58  59
HETATM   59  C32 UNL     1      12.093   0.469   1.156  1.00  0.00     0.011 C 
BRANCH  59  60
HETATM   60  C33 UNL     1      12.303  -0.302  -0.153  1.00  0.00     0.030 C 
BRANCH  60  61
HETATM   61  C34 UNL     1      13.740  -0.238  -0.673  1.00  0.00     0.267 C 
BRANCH  61  62
HETATM   62  N14 UNL     1      14.684  -0.889   0.229  1.00  0.00     0.078 N 
HETATM   63  H45 UNL     1      14.756  -0.353   1.092  1.00  0.00     0.312 HD
HETATM   64  H46 UNL     1      15.613  -0.862  -0.190  1.00  0.00     0.312 HD
ENDBRANCH  61  62
ENDBRANCH  60  61
ENDBRANCH  59  60
ENDBRANCH  58  59
ENDBRANCH  55  58
ENDBRANCH  52  54
BRANCH  53  65
HETATM   65  S2  UNL     1       5.809   0.221   2.197  1.00  0.00    -0.124 SA
BRANCH  65  66
HETATM   66  C27 UNL     1       5.928  -1.215   1.048  1.00  0.00     0.099 C 
BRANCH  66  67
HETATM   67  C28 UNL     1       4.637  -1.505   0.273  1.00  0.00     0.132 C 
BRANCH  67  68
HETATM   68  N10 UNL     1       4.522  -0.580  -0.849  1.00  0.00    -0.371 N 
HETATM   69  C29 UNL     1       3.372  -0.339  -1.349  1.00  0.00     0.121 C 
HETATM   70  N11 UNL     1       3.241   0.583  -2.328  1.00  0.00    -0.279 NA
HETATM   71  N12 UNL     1       2.164  -0.863  -1.044  1.00  0.00    -0.279 NA
HETATM   72  H40 UNL     1       4.137   1.043  -2.473  1.00  0.00     0.126 HD
HETATM   73  H41 UNL     1       2.569   1.307  -2.074  1.00  0.00     0.126 HD
HETATM   74  H42 UNL     1       2.219  -1.774  -0.607  1.00  0.00     0.126 HD
HETATM   75  H43 UNL     1       1.569  -0.899  -1.867  1.00  0.00     0.126 HD
ATOM     76  H10 UNL     1       5.353  -0.129  -1.231  1.00  0.00     0.161 HD
ENDBRANCH  67  68
ENDBRANCH  66  67
ENDBRANCH  65  66
ENDBRANCH  53  65
ENDBRANCH  44  47
ENDBRANCH   3  43
TORSDOF 24
