REMARK  0 active torsions:
REMARK  status: ('A' for Active; 'I' for Inactive)
REMARK       I    between atoms: C2_2  and  C3_3 
REMARK       I    between atoms: C2_2  and  N2_62 
REMARK       I    between atoms: C3_3  and  N1_61 
REMARK       I    between atoms: C4_4  and  C5_5 
REMARK       I    between atoms: C4_4  and  N2_62 
REMARK       I    between atoms: C5_5  and  C6_6 
REMARK       I    between atoms: C5_5  and  N4_64 
REMARK       I    between atoms: C6_6  and  C7_7 
REMARK       I    between atoms: C7_7  and  C8_8 
REMARK       I    between atoms: C8_8  and  C9_9 
REMARK       I    between atoms: C9_9  and  N3_63 
REMARK       I    between atoms: C10_10  and  C11_11 
REMARK       I    between atoms: C10_10  and  N4_64 
REMARK       I    between atoms: C11_11  and  N5_65 
REMARK       I    between atoms: C13_13  and  C14_14 
REMARK       I    between atoms: C13_13  and  N5_65 
REMARK       I    between atoms: C14_14  and  N6_66 
REMARK       I    between atoms: C16_16  and  C17_17 
REMARK       I    between atoms: C16_16  and  N6_66 
REMARK       I    between atoms: C17_17  and  N7_67 
REMARK       I    between atoms: C19_19  and  C20_20 
REMARK       I    between atoms: C19_19  and  N7_67 
REMARK       I    between atoms: C20_20  and  C21_21 
REMARK       I    between atoms: C20_20  and  N9_69 
REMARK       I    between atoms: C21_21  and  C22_22 
REMARK       I    between atoms: C22_22  and  C23_23 
REMARK       I    between atoms: C23_23  and  C24_24 
REMARK       I    between atoms: C24_24  and  N8_68 
REMARK       I    between atoms: C25_25  and  C26_26 
REMARK       I    between atoms: C25_25  and  N9_69 
REMARK       I    between atoms: C26_26  and  N10_70 
REMARK       I    between atoms: C28_28  and  C29_29 
REMARK       I    between atoms: C28_28  and  N10_70 
REMARK       I    between atoms: C29_29  and  N11_71 
REMARK       I    between atoms: C31_31  and  C32_32 
REMARK       I    between atoms: C31_31  and  N11_71 
REMARK       I    between atoms: C32_32  and  N12_72 
REMARK       I    between atoms: C34_34  and  C35_35 
REMARK       I    between atoms: C34_34  and  N12_72 
REMARK       I    between atoms: C35_35  and  C36_36 
REMARK       I    between atoms: C35_35  and  N14_74 
REMARK       I    between atoms: C36_36  and  C37_37 
REMARK       I    between atoms: C37_37  and  C38_38 
REMARK       I    between atoms: C38_38  and  C39_39 
REMARK       I    between atoms: C39_39  and  N13_73 
REMARK       I    between atoms: C40_40  and  C41_41 
REMARK       I    between atoms: C40_40  and  N14_74 
REMARK       I    between atoms: C41_41  and  N15_75 
REMARK       I    between atoms: C43_43  and  C44_44 
REMARK       I    between atoms: C43_43  and  N15_75 
REMARK       I    between atoms: C44_44  and  N16_76 
REMARK       I    between atoms: C46_46  and  N16_76 
ROOT
HETATM    1  C1  UNL     1     -10.323   2.348   3.493  1.00  0.00     0.042 C 
HETATM    2  C2  UNL     1     -10.586   2.669   2.029  1.00  0.00     0.172 C 
HETATM    3  C3  UNL     1      -9.264   2.849   1.254  1.00  0.00     0.237 C 
HETATM    4  C4  UNL     1     -12.079   1.784   0.264  1.00  0.00     0.241 C 
HETATM    5  C5  UNL     1     -12.507   0.505  -0.489  1.00  0.00     0.176 C 
HETATM    6  C6  UNL     1     -13.036  -0.621   0.415  1.00  0.00     0.035 C 
HETATM    7  C7  UNL     1     -13.769  -1.724  -0.360  1.00  0.00     0.004 C 
HETATM    8  C8  UNL     1     -15.302  -1.673  -0.281  1.00  0.00     0.030 C 
HETATM    9  C9  UNL     1     -15.964  -0.504  -1.012  1.00  0.00     0.267 C 
HETATM   10  C10 UNL     1     -10.189  -0.323  -0.925  1.00  0.00     0.240 C 
HETATM   11  C11 UNL     1      -9.124  -0.516  -2.022  1.00  0.00     0.172 C 
HETATM   12  C12 UNL     1      -9.278  -1.898  -2.641  1.00  0.00     0.042 C 
HETATM   13  C13 UNL     1      -7.244   0.905  -1.291  1.00  0.00     0.240 C 
HETATM   14  C14 UNL     1      -5.976   0.929  -0.400  1.00  0.00     0.172 C 
HETATM   15  C15 UNL     1      -5.341   2.314  -0.384  1.00  0.00     0.042 C 
HETATM   16  C16 UNL     1      -5.045  -1.390  -0.525  1.00  0.00     0.240 C 
HETATM   17  C17 UNL     1      -3.949  -2.258  -1.194  1.00  0.00     0.172 C 
HETATM   18  C18 UNL     1      -3.975  -3.684  -0.659  1.00  0.00     0.042 C 
HETATM   19  C19 UNL     1      -2.137  -0.651  -1.786  1.00  0.00     0.241 C 
HETATM   20  C20 UNL     1      -0.754  -0.115  -1.339  1.00  0.00     0.176 C 
HETATM   21  C21 UNL     1      -0.311   1.104  -2.157  1.00  0.00     0.035 C 
HETATM   22  C22 UNL     1      -1.058   2.376  -1.738  1.00  0.00     0.004 C 
HETATM   23  C23 UNL     1      -0.658   3.571  -2.608  1.00  0.00     0.030 C 
HETATM   24  C24 UNL     1      -1.303   4.883  -2.156  1.00  0.00     0.267 C 
HETATM   25  C25 UNL     1       0.409  -2.148  -0.491  1.00  0.00     0.240 C 
HETATM   26  C26 UNL     1       1.412  -3.266  -0.868  1.00  0.00     0.172 C 
HETATM   27  C27 UNL     1       1.673  -4.190   0.315  1.00  0.00     0.042 C 
HETATM   28  C28 UNL     1       2.856  -2.296  -2.655  1.00  0.00     0.240 C 
HETATM   29  C29 UNL     1       4.239  -1.661  -2.939  1.00  0.00     0.172 C 
HETATM   30  C30 UNL     1       4.407  -1.350  -4.421  1.00  0.00     0.042 C 
HETATM   31  C31 UNL     1       5.743  -2.550  -1.168  1.00  0.00     0.240 C 
HETATM   32  C32 UNL     1       6.884  -3.539  -0.863  1.00  0.00     0.172 C 
HETATM   33  C33 UNL     1       6.320  -4.947  -0.737  1.00  0.00     0.042 C 
HETATM   34  C34 UNL     1       8.581  -2.241   0.351  1.00  0.00     0.241 C 
HETATM   35  C35 UNL     1       8.973  -1.665   1.727  1.00  0.00     0.176 C 
HETATM   36  C36 UNL     1       8.025  -0.515   2.093  1.00  0.00     0.035 C 
HETATM   37  C37 UNL     1       8.268  -0.006   3.519  1.00  0.00     0.004 C 
HETATM   38  C38 UNL     1       7.315   1.122   3.929  1.00  0.00     0.030 C 
HETATM   39  C39 UNL     1       7.594   2.435   3.197  1.00  0.00     0.267 C 
HETATM   40  C40 UNL     1      11.410  -1.967   2.051  1.00  0.00     0.240 C 
HETATM   41  C41 UNL     1      12.788  -1.402   1.639  1.00  0.00     0.172 C 
HETATM   42  C42 UNL     1      13.857  -1.798   2.650  1.00  0.00     0.042 C 
HETATM   43  C43 UNL     1      13.614   0.771   0.737  1.00  0.00     0.240 C 
HETATM   44  C44 UNL     1      13.377   2.299   0.779  1.00  0.00     0.172 C 
HETATM   45  C45 UNL     1      14.295   3.028  -0.194  1.00  0.00     0.042 C 
HETATM   46  C46 UNL     1      12.604   2.732   3.097  1.00  0.00     0.214 C 
HETATM   47  C47 UNL     1      13.005   3.270   4.442  1.00  0.00     0.117 C 
HETATM   48  O1  UNL     1      -8.174   2.435   1.636  1.00  0.00    -0.271 OA
HETATM   49  O2  UNL     1     -12.243   2.906  -0.216  1.00  0.00    -0.271 OA
HETATM   50  O3  UNL     1      -9.979  -0.568   0.262  1.00  0.00    -0.271 OA
HETATM   51  O4  UNL     1      -7.769   1.914  -1.763  1.00  0.00    -0.271 OA
HETATM   52  O5  UNL     1      -5.969  -1.859   0.138  1.00  0.00    -0.271 OA
HETATM   53  O6  UNL     1      -2.801  -0.170  -2.702  1.00  0.00    -0.271 OA
HETATM   54  O7  UNL     1      -0.282  -2.170   0.527  1.00  0.00    -0.271 OA
HETATM   55  O8  UNL     1       1.935  -2.315  -3.471  1.00  0.00    -0.271 OA
HETATM   56  O9  UNL     1       5.183  -1.888  -0.292  1.00  0.00    -0.271 OA
HETATM   57  O10 UNL     1       9.138  -1.898  -0.692  1.00  0.00    -0.271 OA
HETATM   58  O11 UNL     1      11.263  -3.047   2.616  1.00  0.00    -0.271 OA
HETATM   59  O12 UNL     1      14.501   0.242   0.074  1.00  0.00    -0.271 OA
HETATM   60  O13 UNL     1      11.506   2.222   2.889  1.00  0.00    -0.274 OA
HETATM   61  N1  UNL     1      -9.397   3.464   0.038  1.00  0.00    -0.368 N 
HETATM   62  N2  UNL     1     -11.325   1.573   1.402  1.00  0.00    -0.346 N 
HETATM   63  N3  UNL     1     -15.790   0.758  -0.306  1.00  0.00     0.078 N 
HETATM   64  N4  UNL     1     -11.412   0.121  -1.389  1.00  0.00    -0.346 N 
HETATM   65  N5  UNL     1      -7.802  -0.353  -1.442  1.00  0.00    -0.346 N 
HETATM   66  N6  UNL     1      -4.993  -0.054  -0.859  1.00  0.00    -0.346 N 
HETATM   67  N7  UNL     1      -2.620  -1.681  -1.009  1.00  0.00    -0.346 N 
HETATM   68  N8  UNL     1      -2.757   4.827  -2.225  1.00  0.00     0.078 N 
HETATM   69  N9  UNL     1       0.236  -1.185  -1.463  1.00  0.00    -0.346 N 
HETATM   70  N10 UNL     1       2.676  -2.719  -1.356  1.00  0.00    -0.346 N 
HETATM   71  N11 UNL     1       5.326  -2.527  -2.479  1.00  0.00    -0.346 N 
HETATM   72  N12 UNL     1       7.523  -3.127   0.379  1.00  0.00    -0.346 N 
HETATM   73  N13 UNL     1       6.687   3.476   3.671  1.00  0.00     0.078 N 
HETATM   74  N14 UNL     1      10.347  -1.189   1.636  1.00  0.00    -0.346 N 
HETATM   75  N15 UNL     1      12.713   0.049   1.489  1.00  0.00    -0.346 N 
HETATM   76  N16 UNL     1      13.581   2.810   2.136  1.00  0.00    -0.348 N 
HETATM   77  H67 UNL     1     -10.324   3.520  -0.380  1.00  0.00     0.159 HD
HETATM   78  H68 UNL     1      -8.623   3.336  -0.611  1.00  0.00     0.159 HD
HETATM   79  H69 UNL     1     -10.843   0.670   1.418  1.00  0.00     0.163 HD
HETATM   80  H70 UNL     1     -16.230   0.702   0.612  1.00  0.00     0.312 HD
HETATM   81  H71 UNL     1     -16.284   1.498  -0.805  1.00  0.00     0.312 HD
HETATM   82  H72 UNL     1     -11.410   0.589  -2.288  1.00  0.00     0.163 HD
HETATM   83  H73 UNL     1      -7.530  -1.023  -0.718  1.00  0.00     0.163 HD
HETATM   84  H74 UNL     1      -4.431   0.190  -1.674  1.00  0.00     0.163 HD
HETATM   85  H75 UNL     1      -2.118  -1.882  -0.142  1.00  0.00     0.163 HD
HETATM   86  H76 UNL     1      -3.053   4.626  -3.180  1.00  0.00     0.312 HD
HETATM   87  H77 UNL     1      -3.148   5.737  -1.987  1.00  0.00     0.312 HD
HETATM   88  H78 UNL     1       0.553  -1.429  -2.402  1.00  0.00     0.163 HD
HETATM   89  H79 UNL     1       3.326  -2.339  -0.666  1.00  0.00     0.163 HD
HETATM   90  H80 UNL     1       5.690  -3.216  -3.125  1.00  0.00     0.163 HD
HETATM   91  H81 UNL     1       6.923  -3.092   1.196  1.00  0.00     0.163 HD
HETATM   92  H82 UNL     1       6.831   3.624   4.669  1.00  0.00     0.312 HD
HETATM   93  H83 UNL     1       6.924   4.357   3.217  1.00  0.00     0.312 HD
HETATM   94  H84 UNL     1      10.549  -0.565   0.860  1.00  0.00     0.163 HD
HETATM   95  H85 UNL     1      12.064   0.563   2.088  1.00  0.00     0.163 HD
HETATM   96  H86 UNL     1      14.539   2.940   2.440  1.00  0.00     0.163 HD
ENDROOT
TORSDOF 39
