REMARK  0 active torsions:
REMARK  status: ('A' for Active; 'I' for Inactive)
REMARK       I    between atoms: C2_2  and  C3_3 
REMARK       I    between atoms: C2_2  and  C58_58 
REMARK       I    between atoms: C2_2  and  N1_67 
REMARK       I    between atoms: C3_3  and  C4_4 
REMARK       I    between atoms: C4_4  and  N2_68 
REMARK       I    between atoms: C5_5  and  C6_6 
REMARK       I    between atoms: C5_5  and  N2_68 
REMARK       I    between atoms: C5_5  and  O10_103 
REMARK       I    between atoms: C6_6  and  C7_7 
REMARK       I    between atoms: C7_7  and  N3_70 
REMARK       I    between atoms: C8_8  and  C9_9 
REMARK       I    between atoms: C8_8  and  N3_70 
REMARK       I    between atoms: C11_11  and  N5_72 
REMARK       I    between atoms: C14_14  and  C15_15 
REMARK       I    between atoms: C14_14  and  N5_72 
REMARK       I    between atoms: C17_17  and  N7_74 
REMARK       I    between atoms: C20_20  and  C21_21 
REMARK       I    between atoms: C20_20  and  N7_74 
REMARK       I    between atoms: C23_23  and  N9_76 
REMARK       I    between atoms: C26_26  and  C27_27 
REMARK       I    between atoms: C26_26  and  N9_76 
REMARK       I    between atoms: C29_29  and  N11_78 
REMARK       I    between atoms: C32_32  and  C33_33 
REMARK       I    between atoms: C32_32  and  N11_78 
REMARK       I    between atoms: C32_32  and  O9_102 
REMARK       I    between atoms: C33_33  and  C34_34 
REMARK       I    between atoms: C34_34  and  C35_35 
REMARK       I    between atoms: C35_35  and  N12_80 
REMARK       I    between atoms: C36_36  and  C37_37 
REMARK       I    between atoms: C36_36  and  N12_80 
REMARK       I    between atoms: C39_39  and  N14_82 
REMARK       I    between atoms: C42_42  and  C43_43 
REMARK       I    between atoms: C42_42  and  N14_82 
REMARK       I    between atoms: C45_45  and  N16_84 
REMARK       I    between atoms: C48_48  and  C49_49 
REMARK       I    between atoms: C48_48  and  N16_84 
REMARK       I    between atoms: C50_50  and  N19_88 
REMARK       I    between atoms: C53_53  and  C54_54 
REMARK       I    between atoms: C53_53  and  N19_88 
REMARK       I    between atoms: C58_58  and  N22_92 
REMARK       I    between atoms: C59_59  and  C60_60 
REMARK       I    between atoms: C59_59  and  N22_92 
REMARK       I    between atoms: C60_60  and  N23_93 
REMARK       I    between atoms: C61_61  and  C62_62 
REMARK       I    between atoms: C61_61  and  N23_93 
REMARK       I    between atoms: C62_62  and  O13_106 
REMARK       I    between atoms: C63_63  and  C64_64 
REMARK       I    between atoms: C63_63  and  N23_93 
REMARK       I    between atoms: C64_64  and  O15_108 
REMARK       I    between atoms: C65_65  and  C66_66 
REMARK       I    between atoms: C65_65  and  N22_92 
REMARK       I    between atoms: C66_66  and  O17_110 
ROOT
HETATM    1  C1  UNL     1     -10.513   1.338   1.751  1.00  0.00     0.307 C 
HETATM    2  C2  UNL     1     -11.692   2.667   3.493  1.00  0.00     0.312 C 
HETATM    3  C3  UNL     1     -12.933   1.757   3.563  1.00  0.00     0.065 C 
HETATM    4  C4  UNL     1     -12.770   0.568   4.510  1.00  0.00     0.124 C 
HETATM    5  C5  UNL     1     -11.949   0.315   6.735  1.00  0.00     0.112 C 
HETATM    6  C6  UNL     1     -11.504   0.827   8.075  1.00  0.00     0.103 C 
HETATM    7  C7  UNL     1     -10.463   1.927   7.916  1.00  0.00     0.131 C 
HETATM    8  C8  UNL     1      -8.461   2.312   6.504  1.00  0.00     0.268 C 
HETATM    9  C9  UNL     1      -7.373   1.654   5.800  1.00  0.00     0.104 A 
HETATM   10  C10 UNL     1      -6.816   0.395   6.001  1.00  0.00     0.066 A 
HETATM   11  C11 UNL     1      -5.787   0.190   5.053  1.00  0.00     0.053 A 
HETATM   12  C12 UNL     1      -5.721   1.329   4.288  1.00  0.00     0.120 A 
HETATM   13  C13 UNL     1      -6.915   3.510   4.153  1.00  0.00     0.156 C 
HETATM   14  C14 UNL     1      -4.972  -2.067   5.584  1.00  0.00     0.273 C 
HETATM   15  C15 UNL     1      -3.985  -3.057   5.155  1.00  0.00     0.105 A 
HETATM   16  C16 UNL     1      -3.175  -3.082   4.022  1.00  0.00     0.066 A 
HETATM   17  C17 UNL     1      -2.382  -4.251   4.045  1.00  0.00     0.053 A 
HETATM   18  C18 UNL     1      -2.719  -4.935   5.188  1.00  0.00     0.120 A 
HETATM   19  C19 UNL     1      -4.279  -4.636   7.104  1.00  0.00     0.156 C 
HETATM   20  C20 UNL     1      -1.056  -4.073   1.984  1.00  0.00     0.273 C 
HETATM   21  C21 UNL     1      -0.019  -4.771   1.225  1.00  0.00     0.105 A 
HETATM   22  C22 UNL     1       0.758  -5.873   1.575  1.00  0.00     0.066 A 
HETATM   23  C23 UNL     1       1.628  -6.184   0.505  1.00  0.00     0.053 A 
HETATM   24  C24 UNL     1       1.382  -5.264  -0.485  1.00  0.00     0.120 A 
HETATM   25  C25 UNL     1      -0.127  -3.317  -0.837  1.00  0.00     0.156 C 
HETATM   26  C26 UNL     1       2.838  -8.158   1.323  1.00  0.00     0.273 C 
HETATM   27  C27 UNL     1       3.922  -9.065   0.950  1.00  0.00     0.105 A 
HETATM   28  C28 UNL     1       4.922  -8.909  -0.007  1.00  0.00     0.066 A 
HETATM   29  C29 UNL     1       5.731 -10.056   0.030  1.00  0.00     0.051 A 
HETATM   30  C30 UNL     1       5.234 -10.916   0.969  1.00  0.00     0.120 A 
HETATM   31  C31 UNL     1       3.333 -10.909   2.575  1.00  0.00     0.156 C 
HETATM   32  C32 UNL     1       7.984  -9.996  -0.312  1.00  0.00     0.115 C 
HETATM   33  C33 UNL     1       9.239 -10.174  -1.119  1.00  0.00     0.085 C 
HETATM   34  C34 UNL     1       9.668  -8.866  -1.776  1.00  0.00     0.027 C 
HETATM   35  C35 UNL     1       8.705  -8.422  -2.877  1.00  0.00     0.123 C 
HETATM   36  C36 UNL     1      10.087  -7.183  -4.514  1.00  0.00     0.268 C 
HETATM   37  C37 UNL     1      10.465  -5.859  -4.989  1.00  0.00     0.104 A 
HETATM   38  C38 UNL     1       9.938  -4.611  -4.669  1.00  0.00     0.066 A 
HETATM   39  C39 UNL     1      10.639  -3.615  -5.386  1.00  0.00     0.053 A 
HETATM   40  C40 UNL     1      11.582  -4.265  -6.146  1.00  0.00     0.120 A 
HETATM   41  C41 UNL     1      12.307  -6.615  -6.538  1.00  0.00     0.156 C 
HETATM   42  C42 UNL     1       9.576  -1.529  -4.639  1.00  0.00     0.273 C 
HETATM   43  C43 UNL     1       9.615  -0.084  -4.860  1.00  0.00     0.105 A 
HETATM   44  C44 UNL     1      10.273   0.655  -5.841  1.00  0.00     0.066 A 
HETATM   45  C45 UNL     1      10.006   2.028  -5.640  1.00  0.00     0.053 A 
HETATM   46  C46 UNL     1       9.182   2.117  -4.546  1.00  0.00     0.120 A 
HETATM   47  C47 UNL     1       8.114   0.555  -2.931  1.00  0.00     0.156 C 
HETATM   48  C48 UNL     1      11.266   3.121  -7.447  1.00  0.00     0.290 C 
HETATM   49  C49 UNL     1      11.505   4.470  -7.941  1.00  0.00     0.178 A 
HETATM   50  C50 UNL     1      11.409   6.610  -8.088  1.00  0.00     0.125 A 
HETATM   51  C51 UNL     1      12.220   6.207  -9.120  1.00  0.00     0.140 A 
HETATM   52  C52 UNL     1      13.010   3.959  -9.888  1.00  0.00     0.157 C 
HETATM   53  C53 UNL     1      10.265   8.325  -6.783  1.00  0.00     0.291 C 
HETATM   54  C54 UNL     1      10.126   9.778  -6.787  1.00  0.00     0.176 A 
HETATM   55  C55 UNL     1      10.360  11.838  -7.368  1.00  0.00     0.107 A 
HETATM   56  C56 UNL     1       9.535  11.854  -6.270  1.00  0.00     0.109 A 
HETATM   57  C57 UNL     1       8.609  10.054  -4.801  1.00  0.00     0.157 C 
HETATM   58  C58 UNL     1     -12.039   3.952   2.685  1.00  0.00     0.253 C 
HETATM   59  C59 UNL     1     -12.763   6.308   2.615  1.00  0.00     0.156 C 
HETATM   60  C60 UNL     1     -11.731   7.461   2.664  1.00  0.00     0.293 C 
HETATM   61  C61 UNL     1      -9.433   6.627   2.345  1.00  0.00     0.382 C 
HETATM   62  C62 UNL     1      -8.759   7.303   3.538  1.00  0.00     0.169 C 
HETATM   63  C63 UNL     1     -10.802   7.024   0.388  1.00  0.00     0.382 C 
HETATM   64  C64 UNL     1     -11.798   7.919  -0.344  1.00  0.00     0.169 C 
HETATM   65  C65 UNL     1     -12.614   5.169   4.841  1.00  0.00     0.235 C 
HETATM   66  C66 UNL     1     -11.394   5.232   5.755  1.00  0.00     0.158 C 
HETATM   67  N1  UNL     1     -10.429   2.042   3.021  1.00  0.00     0.092 N 
HETATM   68  N2  UNL     1     -12.479   1.069   5.847  1.00  0.00    -0.374 N 
ATOM     69  H2  UNL     1     -12.701   2.037   6.079  1.00  0.00     0.161 HD
HETATM   70  N3  UNL     1      -9.265   1.468   7.237  1.00  0.00    -0.355 N 
HETATM   71  N4  UNL     1      -6.674   2.207   4.741  1.00  0.00    -0.354 N 
HETATM   72  N5  UNL     1      -4.956  -0.895   4.849  1.00  0.00    -0.320 N 
HETATM   73  N6  UNL     1      -3.686  -4.219   5.849  1.00  0.00    -0.354 N 
HETATM   74  N7  UNL     1      -1.432  -4.710   3.153  1.00  0.00    -0.320 N 
HETATM   75  N8  UNL     1       0.396  -4.415  -0.048  1.00  0.00    -0.354 N 
HETATM   76  N9  UNL     1       2.577  -7.180   0.381  1.00  0.00    -0.320 N 
HETATM   77  N10 UNL     1       4.145 -10.304   1.538  1.00  0.00    -0.354 N 
HETATM   78  N11 UNL     1       6.821 -10.288  -0.796  1.00  0.00    -0.339 N 
ATOM     79  H11 UNL     1       6.711 -10.669  -1.736  1.00  0.00     0.168 HD
HETATM   80  N12 UNL     1       9.150  -7.195  -3.504  1.00  0.00    -0.356 N 
HETATM   81  N13 UNL     1      11.471  -5.613  -5.908  1.00  0.00    -0.354 N 
HETATM   82  N14 UNL     1      10.485  -2.242  -5.400  1.00  0.00    -0.320 N 
HETATM   83  N15 UNL     1       8.943   0.847  -4.083  1.00  0.00    -0.354 N 
HETATM   84  N16 UNL     1      10.433   3.130  -6.345  1.00  0.00    -0.319 N 
HETATM   85  N17 UNL     1      10.973   5.540  -7.368  1.00  0.00    -0.323 N 
ATOM     86  H17 UNL     1      10.361   5.558  -6.552  1.00  0.00     0.169 HD
HETATM   87  N18 UNL     1      12.274   4.842  -9.017  1.00  0.00    -0.339 N 
HETATM   88  N19 UNL     1      11.078   7.907  -7.815  1.00  0.00    -0.305 N 
HETATM   89  N20 UNL     1      10.723  10.555  -7.685  1.00  0.00    -0.346 N 
ATOM     90  H20 UNL     1      11.327  10.258  -8.452  1.00  0.00     0.167 HD
HETATM   91  N21 UNL     1       9.393  10.542  -5.909  1.00  0.00    -0.342 N 
HETATM   92  N22 UNL     1     -12.393   5.111   3.383  1.00  0.00    -0.339 N 
HETATM   93  N23 UNL     1     -10.539   7.438   1.785  1.00  0.00     0.109 N 
HETATM   94  O1  UNL     1      -8.685   3.520   6.431  1.00  0.00    -0.266 OA
HETATM   95  O2  UNL     1      -5.737  -2.277   6.523  1.00  0.00    -0.266 OA
HETATM   96  O3  UNL     1      -1.545  -3.015   1.594  1.00  0.00    -0.266 OA
HETATM   97  O4  UNL     1       2.222  -8.284   2.378  1.00  0.00    -0.266 OA
HETATM   98  O5  UNL     1      10.567  -8.222  -4.959  1.00  0.00    -0.266 OA
HETATM   99  O6  UNL     1       8.805  -2.043  -3.832  1.00  0.00    -0.266 OA
HETATM  100  O7  UNL     1      11.757   2.120  -7.963  1.00  0.00    -0.264 OA
HETATM  101  O8  UNL     1       9.714   7.609  -5.952  1.00  0.00    -0.264 OA
HETATM  102  O9  UNL     1       8.229  -9.479   0.911  1.00  0.00    -0.349 OA
HETATM  103  O10 UNL     1     -11.721  -1.002   6.582  1.00  0.00    -0.350 OA
HETATM  104  O11 UNL     1     -12.045   3.937   1.449  1.00  0.00    -0.271 OA
HETATM  105  O12 UNL     1      -9.098   8.305   4.147  1.00  0.00    -0.649 OA
HETATM  106  O13 UNL     1      -7.630   6.657   3.914  1.00  0.00    -0.775 OA
HETATM  107  O14 UNL     1     -12.859   8.364   0.066  1.00  0.00    -0.649 OA
HETATM  108  O15 UNL     1     -11.427   8.165  -1.622  1.00  0.00    -0.775 OA
HETATM  109  O16 UNL     1     -11.451   5.312   6.974  1.00  0.00    -0.649 OA
HETATM  110  O17 UNL     1     -10.220   5.090   5.116  1.00  0.00    -0.775 OA
HETATM  111  H68 UNL     1     -10.103   1.394   3.738  1.00  0.00     0.316 HD
HETATM  112  H69 UNL     1      -8.990   0.501   7.342  1.00  0.00     0.162 HD
HETATM  113  H70 UNL     1      -4.276  -0.795   4.111  1.00  0.00     0.169 HD
HETATM  114  H71 UNL     1      -1.002  -5.593   3.383  1.00  0.00     0.169 HD
HETATM  115  H72 UNL     1       3.077  -7.207  -0.495  1.00  0.00     0.169 HD
HETATM  116  H73 UNL     1       8.866  -6.320  -3.091  1.00  0.00     0.162 HD
HETATM  117  H74 UNL     1      11.115  -1.735  -6.002  1.00  0.00     0.169 HD
HETATM  118  H75 UNL     1      10.120   4.052  -6.043  1.00  0.00     0.169 HD
HETATM  119  H76 UNL     1      11.451   8.640  -8.408  1.00  0.00     0.170 HD
HETATM  120  H77 UNL     1       7.411  -9.382   1.423  1.00  0.00     0.219 HD
HETATM  121  H78 UNL     1     -12.093  -1.342   5.757  1.00  0.00     0.219 HD
HETATM  122  H79 UNL     1      -7.330   7.192   4.680  1.00  0.00     0.167 HD
HETATM  123  H80 UNL     1     -12.151   8.730  -1.963  1.00  0.00     0.167 HD
HETATM  124  H81 UNL     1      -9.573   4.787   5.807  1.00  0.00     0.167 HD
ENDROOT
TORSDOF 43
