REMARK  0 active torsions:
REMARK  status: ('A' for Active; 'I' for Inactive)
REMARK       I    between atoms: C2_2  and  C3_3 
REMARK       I    between atoms: C3_3  and  C5_5 
REMARK       I    between atoms: C5_5  and  C6_6 
REMARK       I    between atoms: C5_5  and  N6_90 
REMARK       I    between atoms: C6_6  and  N1_85 
REMARK       I    between atoms: C7_7  and  C8_8 
REMARK       I    between atoms: C7_7  and  C10_10 
REMARK       I    between atoms: C7_7  and  N1_85 
REMARK       I    between atoms: C8_8  and  O2_68 
REMARK       I    between atoms: C10_10  and  N2_86 
REMARK       I    between atoms: C11_11  and  C12_12 
REMARK       I    between atoms: C11_11  and  N2_86 
REMARK       I    between atoms: C12_12  and  N3_87 
REMARK       I    between atoms: C13_13  and  C14_14 
REMARK       I    between atoms: C13_13  and  C16_16 
REMARK       I    between atoms: C13_13  and  N3_87 
REMARK       I    between atoms: C14_14  and  C15_15 
REMARK       I    between atoms: C15_15  and  N4_88 
REMARK       I    between atoms: C16_16  and  N5_89 
REMARK       I    between atoms: C17_17  and  C18_18 
REMARK       I    between atoms: C17_17  and  C19_19 
REMARK       I    between atoms: C17_17  and  N5_89 
REMARK       I    between atoms: C18_18  and  O7_73 
REMARK       I    between atoms: C19_19  and  O9_75 
REMARK       I    between atoms: C20_20  and  C21_21 
REMARK       I    between atoms: C20_20  and  N6_90 
REMARK       I    between atoms: C21_21  and  C22_22 
REMARK       I    between atoms: C21_21  and  N10_95 
REMARK       I    between atoms: C22_22  and  C23_23 
REMARK       I    between atoms: C23_23  and  C24_24 
REMARK       I    between atoms: C24_24  and  N7_91 
REMARK       I    between atoms: C25_25  and  N8_93 
REMARK       I    between atoms: C25_25  and  N9_94 
REMARK       I    between atoms: C26_26  and  C27_27 
REMARK       I    between atoms: C26_26  and  N10_95 
REMARK       I    between atoms: C27_27  and  C28_28 
REMARK       I    between atoms: C27_27  and  N11_96 
REMARK       I    between atoms: C28_28  and  C29_29 
REMARK       I    between atoms: C32_32  and  C33_33 
REMARK       I    between atoms: C32_32  and  N11_96 
REMARK       I    between atoms: C33_33  and  C34_34 
REMARK       I    between atoms: C33_33  and  N12_97 
REMARK       I    between atoms: C34_34  and  C35_35 
REMARK       I    between atoms: C34_34  and  O13_79 
REMARK       I    between atoms: C38_38  and  C39_39 
REMARK       I    between atoms: C38_38  and  N12_97 
REMARK       I    between atoms: C39_39  and  C40_40 
REMARK       I    between atoms: C39_39  and  N14_99 
REMARK       I    between atoms: C40_40  and  C41_41 
REMARK       I    between atoms: C43_43  and  N13_98 
REMARK       I    between atoms: C47_47  and  C48_48 
REMARK       I    between atoms: C47_47  and  N14_99 
REMARK       I    between atoms: C48_48  and  C49_49 
REMARK       I    between atoms: C48_48  and  N15_100 
REMARK       I    between atoms: C49_49  and  C50_50 
REMARK       I    between atoms: C53_53  and  C54_54 
REMARK       I    between atoms: C53_53  and  N15_100 
REMARK       I    between atoms: C54_54  and  C55_55 
REMARK       I    between atoms: C54_54  and  N16_101 
REMARK       I    between atoms: C55_55  and  C56_56 
REMARK       I    between atoms: C59_59  and  O18_84 
REMARK       I    between atoms: C59_59  and  N16_101 
REMARK       I    between atoms: C60_60  and  C61_61 
REMARK       I    between atoms: C60_60  and  O18_84 
ROOT
HETATM    1  C1  UNL     1       9.553   1.950  -2.977  1.00  0.00     0.005 C 
HETATM    2  C2  UNL     1       8.523   1.883  -4.093  1.00  0.00     0.002 C 
HETATM    3  C3  UNL     1       7.079   2.278  -3.716  1.00  0.00     0.013 C 
HETATM    4  C4  UNL     1       6.954   3.776  -3.419  1.00  0.00     0.012 C 
HETATM    5  C5  UNL     1       6.442   1.335  -2.666  1.00  0.00     0.180 C 
HETATM    6  C6  UNL     1       6.843   1.569  -1.187  1.00  0.00     0.241 C 
HETATM    7  C7  UNL     1       6.766   0.550   1.080  1.00  0.00     0.205 C 
HETATM    8  C8  UNL     1       5.627   1.318   1.794  1.00  0.00     0.146 C 
HETATM    9  C9  UNL     1       4.251   0.672   1.649  1.00  0.00     0.042 C 
HETATM   10  C10 UNL     1       6.946  -0.870   1.657  1.00  0.00     0.243 C 
HETATM   11  C11 UNL     1       7.923  -3.110   1.205  1.00  0.00     0.225 C 
HETATM   12  C12 UNL     1       9.330  -3.237   1.807  1.00  0.00     0.236 C 
HETATM   13  C13 UNL     1      11.361  -1.951   2.457  1.00  0.00     0.185 C 
HETATM   14  C14 UNL     1      12.493  -2.708   1.764  1.00  0.00     0.137 C 
HETATM   15  C15 UNL     1      13.582  -3.059   2.747  1.00  0.00     0.217 C 
HETATM   16  C16 UNL     1      11.623  -0.428   2.490  1.00  0.00     0.241 C 
HETATM   17  C17 UNL     1      13.024   1.398   3.395  1.00  0.00     0.206 C 
HETATM   18  C18 UNL     1      12.170   1.938   4.550  1.00  0.00     0.200 C 
HETATM   19  C19 UNL     1      14.512   1.608   3.665  1.00  0.00     0.165 C 
HETATM   20  C20 UNL     1       4.173   0.336  -2.406  1.00  0.00     0.241 C 
HETATM   21  C21 UNL     1       2.664   0.560  -2.601  1.00  0.00     0.176 C 
HETATM   22  C22 UNL     1       2.246   0.759  -4.065  1.00  0.00     0.036 C 
HETATM   23  C23 UNL     1       2.281  -0.489  -4.963  1.00  0.00     0.022 C 
HETATM   24  C24 UNL     1       3.669  -1.013  -5.326  1.00  0.00     0.121 C 
HETATM   25  C25 UNL     1       5.592  -0.230  -6.432  1.00  0.00     0.121 C 
HETATM   26  C26 UNL     1       0.707  -0.362  -1.390  1.00  0.00     0.241 C 
HETATM   27  C27 UNL     1       0.126  -1.606  -0.686  1.00  0.00     0.177 C 
HETATM   28  C28 UNL     1      -0.124  -2.786  -1.643  1.00  0.00     0.038 C 
HETATM   29  C29 UNL     1      -1.363  -2.777  -2.569  1.00  0.00    -0.020 C 
HETATM   30  C30 UNL     1      -2.655  -3.166  -1.847  1.00  0.00     0.009 C 
HETATM   31  C31 UNL     1      -1.562  -1.480  -3.348  1.00  0.00     0.009 C 
HETATM   32  C32 UNL     1      -1.568  -1.920   1.109  1.00  0.00     0.243 C 
HETATM   33  C33 UNL     1      -2.686  -1.207   1.916  1.00  0.00     0.205 C 
HETATM   34  C34 UNL     1      -3.632  -2.273   2.534  1.00  0.00     0.153 C 
HETATM   35  C35 UNL     1      -4.826  -1.740   3.365  1.00  0.00     0.009 C 
HETATM   36  C36 UNL     1      -5.941  -1.145   2.512  1.00  0.00     0.012 C 
HETATM   37  C37 UNL     1      -4.404  -0.756   4.459  1.00  0.00     0.012 C 
HETATM   38  C38 UNL     1      -3.178   1.115   1.145  1.00  0.00     0.241 C 
HETATM   39  C39 UNL     1      -3.771   1.945  -0.014  1.00  0.00     0.180 C 
HETATM   40  C40 UNL     1      -4.241   3.338   0.448  1.00  0.00     0.073 C 
HETATM   41  C41 UNL     1      -5.565   3.389   1.186  1.00  0.00    -0.054 A 
HETATM   42  C42 UNL     1      -5.701   2.849   2.475  1.00  0.00     0.030 A 
HETATM   43  C43 UNL     1      -6.916   2.907   3.166  1.00  0.00     0.006 A 
HETATM   44  C44 UNL     1      -7.964   3.641   2.611  1.00  0.00     0.023 A 
HETATM   45  C45 UNL     1      -7.848   4.194   1.334  1.00  0.00     0.002 A 
HETATM   46  C46 UNL     1      -6.660   4.052   0.617  1.00  0.00     0.007 A 
HETATM   47  C47 UNL     1      -5.042   1.554  -2.099  1.00  0.00     0.241 C 
HETATM   48  C48 UNL     1      -6.176   0.760  -2.788  1.00  0.00     0.177 C 
HETATM   49  C49 UNL     1      -5.835  -0.737  -2.902  1.00  0.00     0.038 C 
HETATM   50  C50 UNL     1      -6.504  -1.450  -4.098  1.00  0.00    -0.020 C 
HETATM   51  C51 UNL     1      -5.950  -2.871  -4.232  1.00  0.00     0.009 C 
HETATM   52  C52 UNL     1      -8.027  -1.505  -3.989  1.00  0.00     0.009 C 
HETATM   53  C53 UNL     1      -7.893   0.659  -0.950  1.00  0.00     0.241 C 
HETATM   54  C54 UNL     1      -9.329   1.099  -0.568  1.00  0.00     0.179 C 
HETATM   55  C55 UNL     1     -10.403   0.434  -1.448  1.00  0.00     0.038 C 
HETATM   56  C56 UNL     1     -11.753   1.181  -1.499  1.00  0.00    -0.020 C 
HETATM   57  C57 UNL     1     -12.482   1.221  -0.156  1.00  0.00     0.009 C 
HETATM   58  C58 UNL     1     -12.659   0.529  -2.549  1.00  0.00     0.009 C 
HETATM   59  C59 UNL     1      -9.727  -0.173   1.546  1.00  0.00     0.361 C 
HETATM   60  C60 UNL     1      -9.796  -1.027   3.726  1.00  0.00     0.219 C 
HETATM   61  C61 UNL     1      -9.439  -0.583   5.122  1.00  0.00    -0.034 A 
HETATM   62  C62 UNL     1     -10.171   0.437   5.749  1.00  0.00     0.009 A 
HETATM   63  C63 UNL     1      -9.825   0.875   7.028  1.00  0.00     0.001 A 
HETATM   64  C64 UNL     1      -8.745   0.298   7.693  1.00  0.00     0.000 A 
HETATM   65  C65 UNL     1      -8.014  -0.719   7.083  1.00  0.00     0.001 A 
HETATM   66  C66 UNL     1      -8.359  -1.159   5.805  1.00  0.00     0.009 A 
HETATM   67  O1  UNL     1       7.297   2.619  -0.749  1.00  0.00    -0.271 OA
HETATM   68  O2  UNL     1       5.907   1.490   3.188  1.00  0.00    -0.393 OA
HETATM   69  O3  UNL     1       6.674  -1.161   2.819  1.00  0.00    -0.271 OA
HETATM   70  O4  UNL     1       9.756  -4.296   2.261  1.00  0.00    -0.272 OA
HETATM   71  O5  UNL     1      13.702  -2.543   3.852  1.00  0.00    -0.274 OA
HETATM   72  O6  UNL     1      10.842   0.371   1.964  1.00  0.00    -0.271 OA
HETATM   73  O7  UNL     1      12.377   1.172   5.739  1.00  0.00    -0.398 OA
HETATM   74  O8  UNL     1      15.398   0.768   3.597  1.00  0.00    -0.648 OA
HETATM   75  O9  UNL     1      14.834   2.893   3.925  1.00  0.00    -0.775 OA
HETATM   76  O10 UNL     1       4.629  -0.708  -1.930  1.00  0.00    -0.271 OA
HETATM   77  O11 UNL     1       0.105   0.712  -1.421  1.00  0.00    -0.271 OA
HETATM   78  O12 UNL     1      -1.126  -3.026   1.419  1.00  0.00    -0.271 OA
HETATM   79  O13 UNL     1      -2.897  -3.130   3.431  1.00  0.00    -0.393 OA
HETATM   80  O14 UNL     1      -2.487   1.608   2.033  1.00  0.00    -0.271 OA
HETATM   81  O15 UNL     1      -4.410   2.419  -2.703  1.00  0.00    -0.271 OA
HETATM   82  O16 UNL     1      -7.141   0.047  -0.194  1.00  0.00    -0.271 OA
HETATM   83  O17 UNL     1     -10.017  -1.258   1.072  1.00  0.00    -0.238 OA
HETATM   84  O18 UNL     1      -9.575   0.091   2.863  1.00  0.00    -0.299 OA
HETATM   85  N1  UNL     1       6.600   0.477  -0.374  1.00  0.00    -0.344 N 
HETATM   86  N2  UNL     1       7.576  -1.753   0.802  1.00  0.00    -0.350 N 
HETATM   87  N3  UNL     1      10.094  -2.099   1.732  1.00  0.00    -0.346 N 
HETATM   88  N4  UNL     1      14.491  -3.970   2.294  1.00  0.00    -0.370 N 
HETATM   89  N5  UNL     1      12.752  -0.020   3.146  1.00  0.00    -0.343 N 
HETATM   90  N6  UNL     1       4.978   1.393  -2.754  1.00  0.00    -0.346 N 
HETATM   91  N7  UNL     1       4.402   0.027  -6.040  1.00  0.00    -0.372 N 
ATOM     92  H7  UNL     1       3.976   0.936  -6.222  1.00  0.00     0.161 HD
HETATM   93  N8  UNL     1       6.339  -1.344  -6.269  1.00  0.00    -0.279 NA
HETATM   94  N9  UNL     1       6.289   0.694  -7.125  1.00  0.00    -0.279 NA
HETATM   95  N10 UNL     1       1.944  -0.537  -1.962  1.00  0.00    -0.346 N 
HETATM   96  N11 UNL     1      -1.040  -1.188   0.073  1.00  0.00    -0.346 N 
HETATM   97  N12 UNL     1      -3.364  -0.248   1.037  1.00  0.00    -0.344 N 
HETATM   98  N13 UNL     1      -7.004   2.439   4.481  1.00  0.00    -0.303 NA
HETATM   99  N14 UNL     1      -4.769   1.208  -0.793  1.00  0.00    -0.346 N 
HETATM  100  N15 UNL     1      -7.484   1.061  -2.203  1.00  0.00    -0.346 N 
HETATM  101  N16 UNL     1      -9.510   0.983   0.868  1.00  0.00    -0.324 N 
HETATM  102  H84 UNL     1       6.018   0.596   3.575  1.00  0.00     0.210 HD
HETATM  103  H85 UNL     1      11.723   1.479   6.391  1.00  0.00     0.209 HD
HETATM  104  H86 UNL     1      15.805   2.858   4.065  1.00  0.00     0.167 HD
HETATM  105  H87 UNL     1      -2.153  -3.516   2.920  1.00  0.00     0.210 HD
HETATM  106  H88 UNL     1       5.960  -0.230  -0.744  1.00  0.00     0.163 HD
HETATM  107  H89 UNL     1       7.906  -1.399  -0.089  1.00  0.00     0.163 HD
HETATM  108  H90 UNL     1       9.598  -1.228   1.558  1.00  0.00     0.163 HD
HETATM  109  H91 UNL     1      14.279  -4.590   1.525  1.00  0.00     0.159 HD
HETATM  110  H92 UNL     1      15.188  -4.277   2.961  1.00  0.00     0.159 HD
HETATM  111  H93 UNL     1      13.245  -0.689   3.746  1.00  0.00     0.163 HD
HETATM  112  H94 UNL     1       4.548   2.292  -2.939  1.00  0.00     0.163 HD
HETATM  113  H95 UNL     1       6.895  -1.549  -7.093  1.00  0.00     0.126 HD
HETATM  114  H96 UNL     1       5.812  -2.160  -5.987  1.00  0.00     0.126 HD
HETATM  115  H97 UNL     1       7.240   0.804  -6.796  1.00  0.00     0.126 HD
HETATM  116  H98 UNL     1       5.797   1.583  -7.123  1.00  0.00     0.126 HD
HETATM  117  H99 UNL     1       2.484  -1.372  -1.753  1.00  0.00     0.163 HD
HETATM  118  HA0 UNL     1      -1.267  -0.198   0.027  1.00  0.00     0.163 HD
HETATM  119  HA1 UNL     1      -3.806  -0.589   0.189  1.00  0.00     0.163 HD
HETATM  120  HA2 UNL     1      -6.345   1.698   4.702  1.00  0.00     0.124 HD
HETATM  121  HA3 UNL     1      -7.944   2.185   4.776  1.00  0.00     0.124 HD
HETATM  122  HA4 UNL     1      -5.525   0.747  -0.280  1.00  0.00     0.163 HD
HETATM  123  HA5 UNL     1      -8.079   1.689  -2.729  1.00  0.00     0.163 HD
HETATM  124  HA6 UNL     1      -9.039   1.664   1.447  1.00  0.00     0.165 HD
ENDROOT
TORSDOF 50
