REMARK  24 active torsions:
REMARK  status: ('A' for Active; 'I' for Inactive)
REMARK       I    between atoms: C2_2  and  N1_39 
REMARK       I    between atoms: C2_2  and  N3_42 
REMARK    1  A    between atoms: C4_4  and  C5_5 
REMARK    2  A    between atoms: C4_4  and  N3_42 
REMARK    3  A    between atoms: C5_5  and  C6_6 
REMARK    4  A    between atoms: C6_6  and  C7_7 
REMARK    5  A    between atoms: C7_7  and  C8_8 
REMARK       I    between atoms: C8_8  and  N4_43 
REMARK    6  A    between atoms: C9_9  and  N4_43 
REMARK    7  A    between atoms: C10_10  and  S2_64 
REMARK    8  A    between atoms: C11_11  and  N5_44 
REMARK    9  A    between atoms: C15_15  and  C16_16 
REMARK       I    between atoms: C15_15  and  N5_44 
REMARK   10  A    between atoms: C18_18  and  C20_20 
REMARK       I    between atoms: C20_20  and  N8_49 
REMARK   11  A    between atoms: C21_21  and  N8_49 
REMARK   12  A    between atoms: C25_25  and  N10_51 
REMARK   13  A    between atoms: C26_26  and  S1_63 
REMARK   14  A    between atoms: C27_27  and  C28_28 
REMARK   15  A    between atoms: C27_27  and  S1_63 
REMARK   16  A    between atoms: C28_28  and  N9_50 
REMARK   17  A    between atoms: C29_29  and  C30_30 
REMARK       I    between atoms: C29_29  and  N10_51 
REMARK   18  A    between atoms: C30_30  and  C31_31 
REMARK   19  A    between atoms: C31_31  and  C32_32 
REMARK   20  A    between atoms: C32_32  and  C33_33 
REMARK   21  A    between atoms: C33_33  and  N11_52 
REMARK       I    between atoms: C34_34  and  N11_52 
REMARK       I    between atoms: C34_34  and  N13_55 
REMARK   22  A    between atoms: C37_37  and  C38_38 
REMARK   23  A    between atoms: C37_37  and  S2_64 
REMARK   24  A    between atoms: C38_38  and  N14_56 
ROOT
HETATM    1  C16 UNL     1       1.012  -1.311   2.026  1.00  0.00     0.104 A 
HETATM    2  C17 UNL     1      -0.357  -1.253   2.119  1.00  0.00     0.070 A 
HETATM    3  C18 UNL     1      -1.017  -2.223   1.404  1.00  0.00     0.104 A 
HETATM    4  C19 UNL     1       0.935  -3.130   0.650  1.00  0.00     0.181 A 
HETATM    5  N6  UNL     1      -0.401  -3.182   0.662  1.00  0.00    -0.348 N 
ATOM      6  H6  UNL     1      -0.923  -3.893   0.149  1.00  0.00     0.167 HD
HETATM    7  N7  UNL     1       1.690  -2.235   1.295  1.00  0.00    -0.348 N 
ATOM      8  H7  UNL     1       2.709  -2.245   1.242  1.00  0.00     0.167 HD
ENDROOT
BRANCH   1   9
HETATM    9  C15 UNL     1       1.854  -0.311   2.761  1.00  0.00     0.272 C 
HETATM   10  N5  UNL     1       3.207  -0.512   2.587  1.00  0.00    -0.320 N 
HETATM   11  H46 UNL     1       3.456  -1.302   1.992  1.00  0.00     0.169 HD
HETATM   12  O2  UNL     1       1.316   0.568   3.421  1.00  0.00    -0.266 OA
BRANCH  10  13
HETATM   13  C11 UNL     1       4.294   0.200   3.143  1.00  0.00     0.055 A 
HETATM   14  C10 UNL     1       5.607  -0.186   2.775  1.00  0.00     0.054 A 
HETATM   15  C9  UNL     1       6.734   0.463   3.338  1.00  0.00     0.055 A 
HETATM   16  C14 UNL     1       6.528   1.502   4.249  1.00  0.00     0.050 A 
HETATM   17  C13 UNL     1       5.232   1.889   4.590  1.00  0.00     0.015 A 
HETATM   18  C12 UNL     1       4.120   1.250   4.045  1.00  0.00     0.050 A 
HETATM   19 BR1  UNL     1       4.979   3.308   5.819  1.00  0.00    -0.051 Br
BRANCH  14  20
HETATM   20  S2  UNL     1       5.838  -1.558   1.611  1.00  0.00    -0.124 SA
BRANCH  20  21
HETATM   21  C37 UNL     1       5.727  -0.638   0.028  1.00  0.00     0.109 C 
BRANCH  21  22
HETATM   22  C38 UNL     1       6.998   0.137  -0.346  1.00  0.00     0.277 C 
BRANCH  22  23
HETATM   23  N14 UNL     1       8.207  -0.691  -0.350  1.00  0.00     0.079 N 
HETATM   24  H53 UNL     1       8.087  -1.468  -1.000  1.00  0.00     0.312 HD
HETATM   25  H54 UNL     1       8.976  -0.135  -0.746  1.00  0.00     0.312 HD
ENDBRANCH  22  23
ENDBRANCH  21  22
ENDBRANCH  20  21
ENDBRANCH  14  20
BRANCH  15  26
HETATM   26  N4  UNL     1       8.026   0.040   2.937  1.00  0.00    -0.326 N 
HETATM   27  C8  UNL     1       9.251   0.503   3.376  1.00  0.00     0.222 C 
HETATM   28  O1  UNL     1       9.444   1.346   4.246  1.00  0.00    -0.273 OA
HETATM   29  H45 UNL     1       8.029  -0.665   2.200  1.00  0.00     0.169 HD
BRANCH  27  30
HETATM   30  C7  UNL     1      10.420  -0.152   2.662  1.00  0.00     0.103 C 
BRANCH  30  31
HETATM   31  C6  UNL     1      11.391   0.876   2.079  1.00  0.00     0.011 C 
BRANCH  31  32
HETATM   32  C5  UNL     1      10.701   1.831   1.097  1.00  0.00     0.021 C 
BRANCH  32  33
HETATM   33  C4  UNL     1      11.669   2.610   0.211  1.00  0.00     0.138 C 
BRANCH  33  34
HETATM   34  N3  UNL     1      12.381   1.751  -0.725  1.00  0.00    -0.227 N 
HETATM   35  C2  UNL     1      11.795   1.184  -1.827  1.00  0.00     0.668 C 
HETATM   36  N1  UNL     1      12.774   0.455  -2.442  1.00  0.00    -0.231 N 
HETATM   37  N2  UNL     1      10.561   1.388  -2.097  1.00  0.00    -0.231 N 
HETATM   38  C1  UNL     1      12.730  -0.084  -3.779  1.00  0.00     0.165 C 
HETATM   39  H43 UNL     1      13.683   0.859  -2.246  1.00  0.00     0.177 HD
HETATM   40  C3  UNL     1       9.909   0.809  -3.249  1.00  0.00     0.165 C 
ATOM     41  H2  UNL     1      10.016   1.983  -1.474  1.00  0.00     0.177 HD
HETATM   42  H44 UNL     1      13.053   1.143  -0.275  1.00  0.00     0.177 HD
ENDBRANCH  33  34
ENDBRANCH  32  33
ENDBRANCH  31  32
ENDBRANCH  30  31
ENDBRANCH  27  30
ENDBRANCH  15  26
ENDBRANCH  10  13
ENDBRANCH   1   9
BRANCH   3  43
HETATM   43  C20 UNL     1      -2.514  -2.272   1.424  1.00  0.00     0.272 C 
HETATM   44  N8  UNL     1      -3.041  -3.248   0.592  1.00  0.00    -0.320 N 
HETATM   45  H47 UNL     1      -2.367  -3.975   0.362  1.00  0.00     0.169 HD
HETATM   46  O3  UNL     1      -3.136  -1.541   2.183  1.00  0.00    -0.266 OA
BRANCH  44  47
HETATM   47  C21 UNL     1      -4.415  -3.555   0.478  1.00  0.00     0.055 A 
HETATM   48  C22 UNL     1      -4.735  -4.917   0.486  1.00  0.00     0.050 A 
HETATM   49  C23 UNL     1      -6.065  -5.325   0.432  1.00  0.00     0.015 A 
HETATM   50  C24 UNL     1      -7.097  -4.393   0.355  1.00  0.00     0.050 A 
HETATM   51 BR2  UNL     1      -6.472  -7.172   0.486  1.00  0.00    -0.051 Br
HETATM   52  C25 UNL     1      -6.803  -3.028   0.288  1.00  0.00     0.055 A 
HETATM   53  C26 UNL     1      -5.447  -2.601   0.311  1.00  0.00     0.054 A 
BRANCH  52  54
HETATM   54  N10 UNL     1      -7.809  -2.035   0.197  1.00  0.00    -0.326 N 
HETATM   55  C29 UNL     1      -9.179  -2.198   0.102  1.00  0.00     0.222 C 
HETATM   56  O4  UNL     1      -9.779  -3.264   0.035  1.00  0.00    -0.273 OA
HETATM   57  H50 UNL     1      -7.451  -1.083   0.216  1.00  0.00     0.169 HD
BRANCH  55  58
HETATM   58  C30 UNL     1      -9.896  -0.855   0.070  1.00  0.00     0.103 C 
BRANCH  58  59
HETATM   59  C31 UNL     1     -11.415  -1.007  -0.008  1.00  0.00     0.010 C 
BRANCH  59  60
HETATM   60  C32 UNL     1     -12.166   0.322   0.095  1.00  0.00     0.015 C 
BRANCH  60  61
HETATM   61  C33 UNL     1     -11.882   1.272  -1.069  1.00  0.00     0.095 C 
BRANCH  61  62
HETATM   62  N11 UNL     1     -12.734   2.449  -0.957  1.00  0.00    -0.265 NA
HETATM   63  C34 UNL     1     -12.700   3.426  -1.920  1.00  0.00     0.147 C 
HETATM   64  N12 UNL     1     -11.968   3.286  -2.959  1.00  0.00    -0.371 N 
HETATM   65  N13 UNL     1     -13.532   4.420  -1.487  1.00  0.00    -0.371 N 
HETATM   66  C35 UNL     1     -11.854   4.305  -3.975  1.00  0.00     0.148 C 
ATOM     67  H12 UNL     1     -11.443   2.419  -3.075  1.00  0.00     0.161 HD
HETATM   68  C36 UNL     1     -14.058   5.493  -2.295  1.00  0.00     0.148 C 
HETATM   69  H52 UNL     1     -14.253   4.029  -0.890  1.00  0.00     0.161 HD
HETATM   70  H51 UNL     1     -12.711   2.854  -0.028  1.00  0.00     0.130 HD
ENDBRANCH  61  62
ENDBRANCH  60  61
ENDBRANCH  59  60
ENDBRANCH  58  59
ENDBRANCH  55  58
ENDBRANCH  52  54
BRANCH  53  71
HETATM   71  S1  UNL     1      -5.099  -0.862  -0.081  1.00  0.00    -0.124 SA
BRANCH  71  72
HETATM   72  C27 UNL     1      -5.168  -0.934  -1.908  1.00  0.00     0.109 C 
BRANCH  72  73
HETATM   73  C28 UNL     1      -3.902  -1.547  -2.516  1.00  0.00     0.277 C 
BRANCH  73  74
HETATM   74  N9  UNL     1      -3.945  -1.505  -3.979  1.00  0.00     0.079 N 
HETATM   75  H48 UNL     1      -4.724  -2.070  -4.319  1.00  0.00     0.312 HD
HETATM   76  H49 UNL     1      -3.100  -1.935  -4.354  1.00  0.00     0.312 HD
ENDBRANCH  73  74
ENDBRANCH  72  73
ENDBRANCH  71  72
ENDBRANCH  53  71
ENDBRANCH  44  47
ENDBRANCH   3  43
TORSDOF 24
