REMARK  32 active torsions:
REMARK  status: ('A' for Active; 'I' for Inactive)
REMARK       I    between atoms: C2_2  and  N1_65 
REMARK    1  A    between atoms: C3_3  and  N1_65 
REMARK    2  A    between atoms: C5_5  and  C10_10 
REMARK    3  A    between atoms: C6_6  and  O2_54 
REMARK       I    between atoms: C10_10  and  N2_66 
REMARK    4  A    between atoms: C11_11  and  C12_12 
REMARK    5  A    between atoms: C11_11  and  C16_16 
REMARK    6  A    between atoms: C11_11  and  N2_66 
REMARK    7  A    between atoms: C12_12  and  C13_13 
REMARK    8  A    between atoms: C13_13  and  C14_14 
REMARK    9  A    between atoms: C14_14  and  N3_67 
REMARK       I    between atoms: C15_15  and  N4_69 
REMARK       I    between atoms: C15_15  and  N5_70 
REMARK       I    between atoms: C16_16  and  N6_71 
REMARK   10  A    between atoms: C17_17  and  N6_71 
REMARK   11  A    between atoms: C19_19  and  C24_24 
REMARK   12  A    between atoms: C20_20  and  O5_57 
REMARK       I    between atoms: C24_24  and  N7_72 
REMARK   13  A    between atoms: C25_25  and  C26_26 
REMARK   14  A    between atoms: C25_25  and  C30_30 
REMARK   15  A    between atoms: C25_25  and  N7_72 
REMARK   16  A    between atoms: C26_26  and  C27_27 
REMARK   17  A    between atoms: C27_27  and  C28_28 
REMARK   18  A    between atoms: C28_28  and  N8_73 
REMARK       I    between atoms: C29_29  and  N9_75 
REMARK       I    between atoms: C29_29  and  N10_76 
REMARK       I    between atoms: C30_30  and  N11_77 
REMARK   19  A    between atoms: C31_31  and  N11_77 
REMARK   20  A    between atoms: C33_33  and  C38_38 
REMARK   21  A    between atoms: C34_34  and  O8_60 
REMARK       I    between atoms: C38_38  and  N12_78 
REMARK   22  A    between atoms: C39_39  and  C40_40 
REMARK   23  A    between atoms: C39_39  and  C44_44 
REMARK   24  A    between atoms: C39_39  and  N12_78 
REMARK   25  A    between atoms: C40_40  and  C41_41 
REMARK   26  A    between atoms: C41_41  and  C42_42 
REMARK   27  A    between atoms: C42_42  and  N13_79 
REMARK   28  A    between atoms: C43_43  and  N13_79 
REMARK   29  A    between atoms: C43_43  and  N14_80 
REMARK       I    between atoms: C44_44  and  N15_81 
REMARK   30  A    between atoms: C45_45  and  N15_81 
REMARK   31  A    between atoms: C47_47  and  C52_52 
REMARK   32  A    between atoms: C48_48  and  O11_63 
REMARK       I    between atoms: C52_52  and  N16_82 
ROOT
HETATM    1  C25 UNL     1      -0.879   1.461  -1.071  1.00  0.00     0.177 C 
ENDROOT
BRANCH   1   2
HETATM    2  C26 UNL     1      -1.152   0.904  -2.476  1.00  0.00     0.036 C 
BRANCH   2   3
HETATM    3  C27 UNL     1      -0.498   1.746  -3.577  1.00  0.00     0.022 C 
BRANCH   3   4
HETATM    4  C28 UNL     1      -0.871   1.261  -4.977  1.00  0.00     0.121 C 
BRANCH   4   5
HETATM    5  N8  UNL     1      -0.319  -0.076  -5.183  1.00  0.00    -0.372 N 
HETATM    6  C29 UNL     1      -0.545  -0.653  -6.302  1.00  0.00     0.121 C 
HETATM    7  N9  UNL     1      -0.065  -1.895  -6.529  1.00  0.00    -0.279 NA
HETATM    8  N10 UNL     1      -1.236  -0.222  -7.380  1.00  0.00    -0.279 NA
HETATM    9  H59 UNL     1       0.315  -2.275  -5.668  1.00  0.00     0.126 HD
HETATM   10  H60 UNL     1      -0.771  -2.512  -6.911  1.00  0.00     0.126 HD
HETATM   11  H61 UNL     1      -1.417   0.773  -7.384  1.00  0.00     0.126 HD
HETATM   12  H62 UNL     1      -0.797  -0.507  -8.248  1.00  0.00     0.126 HD
ATOM     13  H8  UNL     1       0.230  -0.535  -4.456  1.00  0.00     0.161 HD
ENDBRANCH   4   5
ENDBRANCH   3   4
ENDBRANCH   2   3
ENDBRANCH   1   2
BRANCH   1  14
HETATM   14  C30 UNL     1       0.629   1.394  -0.734  1.00  0.00     0.245 C 
HETATM   15  O7  UNL     1       1.337   2.394  -0.785  1.00  0.00    -0.271 OA
HETATM   16  N11 UNL     1       1.052   0.100  -0.458  1.00  0.00    -0.325 N 
HETATM   17  H63 UNL     1       0.342  -0.616  -0.571  1.00  0.00     0.169 HD
BRANCH  16  18
HETATM   18  C31 UNL     1       2.340  -0.336  -0.096  1.00  0.00     0.035 A 
HETATM   19  C32 UNL     1       3.429   0.516   0.107  1.00  0.00     0.049 A 
HETATM   20  C33 UNL     1       4.685   0.005   0.489  1.00  0.00     0.067 A 
HETATM   21  C34 UNL     1       4.842  -1.382   0.629  1.00  0.00     0.084 A 
HETATM   22  C35 UNL     1       3.751  -2.235   0.451  1.00  0.00     0.040 A 
HETATM   23  C36 UNL     1       2.510  -1.713   0.086  1.00  0.00     0.032 A 
BRANCH  20  24
HETATM   24  C38 UNL     1       5.786   0.989   0.710  1.00  0.00     0.255 C 
HETATM   25  O9  UNL     1       5.737   2.106   0.203  1.00  0.00    -0.268 OA
HETATM   26  N12 UNL     1       6.836   0.592   1.512  1.00  0.00    -0.344 N 
HETATM   27  H64 UNL     1       6.920  -0.411   1.662  1.00  0.00     0.163 HD
BRANCH  26  28
HETATM   28  C39 UNL     1       8.068   1.369   1.552  1.00  0.00     0.177 C 
BRANCH  28  29
HETATM   29  C40 UNL     1       8.691   1.346   2.959  1.00  0.00     0.036 C 
BRANCH  29  30
HETATM   30  C41 UNL     1       9.309  -0.000   3.379  1.00  0.00     0.033 C 
BRANCH  30  31
HETATM   31  C42 UNL     1      10.840   0.009   3.251  1.00  0.00     0.272 C 
BRANCH  31  32
HETATM   32  N13 UNL     1      11.439  -1.315   3.445  1.00  0.00     0.111 N 
HETATM   33  H65 UNL     1      10.908  -1.809   4.163  1.00  0.00     0.318 HD
BRANCH  32  34
HETATM   34  C43 UNL     1      11.440  -2.114   2.244  1.00  0.00     0.534 C 
BRANCH  34  35
HETATM   35  N14 UNL     1      12.711  -1.832   1.620  1.00  0.00     0.106 N 
HETATM   36  H66 UNL     1      13.418  -2.099   2.308  1.00  0.00     0.315 HD
HETATM   37  H67 UNL     1      12.797  -0.816   1.594  1.00  0.00     0.315 HD
ENDBRANCH  34  35
ENDBRANCH  32  34
ENDBRANCH  31  32
ENDBRANCH  30  31
ENDBRANCH  29  30
ENDBRANCH  28  29
BRANCH  28  38
HETATM   38  C44 UNL     1       9.043   0.828   0.481  1.00  0.00     0.245 C 
HETATM   39  O10 UNL     1       8.988  -0.341   0.105  1.00  0.00    -0.271 OA
HETATM   40  N15 UNL     1       9.999   1.756   0.099  1.00  0.00    -0.325 N 
HETATM   41  H68 UNL     1       9.820   2.721   0.351  1.00  0.00     0.169 HD
BRANCH  40  42
HETATM   42  C45 UNL     1      11.154   1.519  -0.677  1.00  0.00     0.035 A 
HETATM   43  C46 UNL     1      11.575   0.249  -1.083  1.00  0.00     0.049 A 
HETATM   44  C47 UNL     1      12.765   0.085  -1.812  1.00  0.00     0.067 A 
HETATM   45  C48 UNL     1      13.520   1.209  -2.162  1.00  0.00     0.084 A 
HETATM   46  C49 UNL     1      13.113   2.479  -1.748  1.00  0.00     0.040 A 
HETATM   47  C50 UNL     1      11.935   2.632  -1.013  1.00  0.00     0.032 A 
BRANCH  44  48
HETATM   48  C52 UNL     1      13.182  -1.280  -2.222  1.00  0.00     0.252 C 
HETATM   49  O12 UNL     1      13.631  -1.524  -3.335  1.00  0.00    -0.268 OA
HETATM   50  N16 UNL     1      13.032  -2.271  -1.291  1.00  0.00    -0.366 N 
HETATM   51  H69 UNL     1      12.882  -2.078  -0.298  1.00  0.00     0.159 HD
HETATM   52  H70 UNL     1      13.431  -3.171  -1.519  1.00  0.00     0.159 HD
ENDBRANCH  44  48
BRANCH  45  53
HETATM   53  O11 UNL     1      14.721   1.097  -2.808  1.00  0.00    -0.355 OA
HETATM   54  C51 UNL     1      14.561   1.359  -4.204  1.00  0.00     0.210 C 
ENDBRANCH  45  53
ENDBRANCH  40  42
ENDBRANCH  28  38
ENDBRANCH  26  28
ENDBRANCH  20  24
BRANCH  21  55
HETATM   55  O8  UNL     1       6.043  -1.935   0.996  1.00  0.00    -0.355 OA
HETATM   56  C37 UNL     1       6.688  -2.521  -0.143  1.00  0.00     0.210 C 
ENDBRANCH  21  55
ENDBRANCH  16  18
ENDBRANCH   1  14
BRANCH   1  57
HETATM   57  N7  UNL     1      -1.585   0.690  -0.039  1.00  0.00    -0.344 N 
HETATM   58  C24 UNL     1      -2.946   0.758   0.141  1.00  0.00     0.255 C 
HETATM   59  O6  UNL     1      -3.688   1.329  -0.652  1.00  0.00    -0.268 OA
HETATM   60  H58 UNL     1      -1.052   0.397   0.776  1.00  0.00     0.163 HD
BRANCH  58  61
HETATM   61  C19 UNL     1      -3.515   0.097   1.364  1.00  0.00     0.067 A 
HETATM   62  C18 UNL     1      -4.910   0.200   1.520  1.00  0.00     0.049 A 
HETATM   63  C17 UNL     1      -5.575  -0.414   2.584  1.00  0.00     0.035 A 
HETATM   64  C22 UNL     1      -4.828  -1.123   3.518  1.00  0.00     0.032 A 
HETATM   65  C21 UNL     1      -3.436  -1.216   3.393  1.00  0.00     0.040 A 
HETATM   66  C20 UNL     1      -2.763  -0.609   2.325  1.00  0.00     0.084 A 
BRANCH  63  67
HETATM   67  N6  UNL     1      -6.972  -0.278   2.626  1.00  0.00    -0.325 N 
HETATM   68  C16 UNL     1      -7.872  -0.868   3.498  1.00  0.00     0.245 C 
HETATM   69  O4  UNL     1      -7.577  -1.583   4.453  1.00  0.00    -0.271 OA
HETATM   70  H57 UNL     1      -7.400   0.285   1.896  1.00  0.00     0.169 HD
BRANCH  68  71
HETATM   71  C11 UNL     1      -9.344  -0.465   3.206  1.00  0.00     0.177 C 
BRANCH  71  72
HETATM   72  C12 UNL     1     -10.276  -1.654   3.469  1.00  0.00     0.036 C 
BRANCH  72  73
HETATM   73  C13 UNL     1     -11.758  -1.287   3.328  1.00  0.00     0.022 C 
BRANCH  73  74
HETATM   74  C14 UNL     1     -12.684  -2.442   3.707  1.00  0.00     0.121 C 
BRANCH  74  75
HETATM   75  N3  UNL     1     -12.568  -3.516   2.728  1.00  0.00    -0.372 N 
HETATM   76  C15 UNL     1     -12.013  -4.624   3.033  1.00  0.00     0.121 C 
HETATM   77  N4  UNL     1     -11.959  -5.614   2.115  1.00  0.00    -0.279 NA
HETATM   78  N5  UNL     1     -11.424  -5.033   4.177  1.00  0.00    -0.279 NA
HETATM   79  H53 UNL     1     -12.540  -5.365   1.320  1.00  0.00     0.126 HD
HETATM   80  H54 UNL     1     -12.259  -6.502   2.500  1.00  0.00     0.126 HD
HETATM   81  H55 UNL     1     -11.170  -4.285   4.808  1.00  0.00     0.126 HD
HETATM   82  H56 UNL     1     -10.622  -5.627   3.999  1.00  0.00     0.126 HD
ATOM     83  H3  UNL     1     -12.935  -3.380   1.786  1.00  0.00     0.161 HD
ENDBRANCH  74  75
ENDBRANCH  73  74
ENDBRANCH  72  73
ENDBRANCH  71  72
BRANCH  71  84
HETATM   84  N2  UNL     1      -9.493   0.023   1.833  1.00  0.00    -0.344 N 
HETATM   85  C10 UNL     1      -9.745   1.340   1.530  1.00  0.00     0.255 C 
HETATM   86  O3  UNL     1      -9.952   2.195   2.384  1.00  0.00    -0.268 OA
HETATM   87  H52 UNL     1      -9.315  -0.624   1.069  1.00  0.00     0.163 HD
BRANCH  85  88
HETATM   88  C5  UNL     1      -9.773   1.705   0.084  1.00  0.00     0.067 A 
HETATM   89  C4  UNL     1     -10.598   2.788  -0.269  1.00  0.00     0.049 A 
HETATM   90  C3  UNL     1     -10.695   3.218  -1.594  1.00  0.00     0.035 A 
HETATM   91  C8  UNL     1      -9.951   2.553  -2.566  1.00  0.00     0.032 A 
HETATM   92  C7  UNL     1      -9.112   1.483  -2.222  1.00  0.00     0.040 A 
HETATM   93  C6  UNL     1      -9.004   1.052  -0.896  1.00  0.00     0.084 A 
BRANCH  90  94
HETATM   94  N1  UNL     1     -11.550   4.308  -1.859  1.00  0.00    -0.327 N 
HETATM   95  C2  UNL     1     -11.809   4.897  -3.083  1.00  0.00     0.218 C 
HETATM   96  C1  UNL     1     -12.767   6.057  -2.967  1.00  0.00     0.117 C 
HETATM   97  O1  UNL     1     -11.335   4.580  -4.168  1.00  0.00    -0.274 OA
HETATM   98  H51 UNL     1     -12.019   4.708  -1.055  1.00  0.00     0.169 HD
ENDBRANCH  90  94
BRANCH  93  99
HETATM   99  O2  UNL     1      -8.185   0.030  -0.489  1.00  0.00    -0.355 OA
HETATM  100  C9  UNL     1      -7.248  -0.475  -1.439  1.00  0.00     0.210 C 
ENDBRANCH  93  99
ENDBRANCH  85  88
ENDBRANCH  71  84
ENDBRANCH  68  71
ENDBRANCH  63  67
BRANCH  66 101
HETATM  101  O5  UNL     1      -1.402  -0.678   2.158  1.00  0.00    -0.355 OA
HETATM  102  C23 UNL     1      -0.627  -1.205   3.232  1.00  0.00     0.210 C 
ENDBRANCH  66 101
ENDBRANCH  58  61
ENDBRANCH   1  57
TORSDOF 32
