REMARK  30 active torsions:
REMARK  status: ('A' for Active; 'I' for Inactive)
REMARK    1  A    between atoms: C3_3  and  N20_86 
REMARK    2  A    between atoms: C5_5  and  C6_6 
REMARK       I    between atoms: C6_6  and  N2_68 
REMARK    3  A    between atoms: C7_7  and  N2_68 
REMARK    4  A    between atoms: C9_9  and  C11_11 
REMARK       I    between atoms: C11_11  and  N4_70 
REMARK    5  A    between atoms: C12_12  and  N4_70 
REMARK    6  A    between atoms: C14_14  and  C16_16 
REMARK       I    between atoms: C16_16  and  N6_72 
REMARK    7  A    between atoms: C17_17  and  C18_18 
REMARK    8  A    between atoms: C17_17  and  N6_72 
REMARK    9  A    between atoms: C18_18  and  N7_73 
REMARK   10  A    between atoms: C19_19  and  C20_20 
REMARK   11  A    between atoms: C19_19  and  N7_73 
REMARK   12  A    between atoms: C20_20  and  N8_74 
REMARK   13  A    between atoms: C21_21  and  C22_22 
REMARK       I    between atoms: C21_21  and  N8_74 
REMARK   14  A    between atoms: C24_24  and  C40_40 
REMARK   15  A    between atoms: C26_26  and  N9_75 
REMARK   16  A    between atoms: C35_35  and  N10_76 
REMARK       I    between atoms: C40_40  and  N11_77 
REMARK   17  A    between atoms: C41_41  and  C42_42 
REMARK   18  A    between atoms: C41_41  and  N11_77 
REMARK   19  A    between atoms: C42_42  and  N12_78 
REMARK   20  A    between atoms: C43_43  and  C44_44 
REMARK   21  A    between atoms: C43_43  and  N12_78 
REMARK   22  A    between atoms: C44_44  and  N13_79 
REMARK   23  A    between atoms: C45_45  and  C46_46 
REMARK       I    between atoms: C45_45  and  N13_79 
REMARK   24  A    between atoms: C48_48  and  N15_81 
REMARK   25  A    between atoms: C51_51  and  C52_52 
REMARK       I    between atoms: C51_51  and  N15_81 
REMARK   26  A    between atoms: C54_54  and  N17_83 
REMARK   27  A    between atoms: C57_57  and  C58_58 
REMARK       I    between atoms: C57_57  and  N17_83 
REMARK   28  A    between atoms: C60_60  and  N19_85 
REMARK   29  A    between atoms: C63_63  and  N19_85 
REMARK   30  A    between atoms: C66_66  and  N20_86 
ROOT
HETATM    1  C22 UNL     1       1.464   1.229  -3.765  1.00  0.00     0.035 A 
HETATM    2  C23 UNL     1       0.127   1.319  -4.141  1.00  0.00     0.034 A 
HETATM    3  C24 UNL     1      -0.725   0.237  -3.895  1.00  0.00     0.035 A 
HETATM    4  C25 UNL     1      -0.246  -0.917  -3.251  1.00  0.00     0.047 A 
HETATM    5  C26 UNL     1       1.101  -1.038  -2.883  1.00  0.00     0.048 A 
HETATM    6  C27 UNL     1       1.940   0.051  -3.165  1.00  0.00     0.047 A 
ENDROOT
BRANCH   1   7
HETATM    7  C21 UNL     1       2.450   2.321  -3.986  1.00  0.00     0.251 C 
HETATM    8  N8  UNL     1       1.970   3.611  -4.047  1.00  0.00    -0.355 N 
HETATM    9  H61 UNL     1       1.006   3.754  -3.776  1.00  0.00     0.162 HD
HETATM   10  O4  UNL     1       3.636   2.022  -4.059  1.00  0.00    -0.268 OA
BRANCH   8  11
HETATM   11  C20 UNL     1       2.825   4.791  -3.899  1.00  0.00     0.152 C 
BRANCH  11  12
HETATM   12  C19 UNL     1       3.991   4.938  -4.902  1.00  0.00     0.289 C 
BRANCH  12  13
HETATM   13  N7  UNL     1       5.152   4.140  -4.494  1.00  0.00     0.086 N 
HETATM   14  H60 UNL     1       4.822   3.166  -4.396  1.00  0.00     0.316 HD
BRANCH  13  15
HETATM   15  C18 UNL     1       6.235   4.172  -5.486  1.00  0.00     0.289 C 
BRANCH  15  16
HETATM   16  C17 UNL     1       7.130   2.924  -5.366  1.00  0.00     0.153 C 
BRANCH  16  17
HETATM   17  N6  UNL     1       7.386   2.562  -3.986  1.00  0.00    -0.354 N 
HETATM   18  C16 UNL     1       8.108   1.443  -3.650  1.00  0.00     0.268 C 
HETATM   19  O3  UNL     1       8.695   0.772  -4.493  1.00  0.00    -0.266 OA
HETATM   20  H59 UNL     1       6.947   3.132  -3.275  1.00  0.00     0.162 HD
BRANCH  18  21
HETATM   21  C14 UNL     1       8.134   1.135  -2.234  1.00  0.00     0.104 A 
HETATM   22  C15 UNL     1       9.236   0.698  -1.508  1.00  0.00     0.066 A 
HETATM   23  C12 UNL     1       8.846   0.497  -0.166  1.00  0.00     0.053 A 
HETATM   24  C13 UNL     1       7.502   0.781  -0.096  1.00  0.00     0.120 A 
HETATM   25  N5  UNL     1       7.071   1.137  -1.351  1.00  0.00    -0.354 N 
HETATM   26  C64 UNL     1       5.680   1.355  -1.687  1.00  0.00     0.156 C 
BRANCH  23  27
HETATM   27  N4  UNL     1       9.576   0.080   0.929  1.00  0.00    -0.320 N 
HETATM   28  C11 UNL     1      10.934  -0.174   0.936  1.00  0.00     0.273 C 
HETATM   29  O2  UNL     1      11.693   0.006  -0.009  1.00  0.00    -0.266 OA
HETATM   30  H58 UNL     1       9.079   0.028   1.807  1.00  0.00     0.169 HD
BRANCH  28  31
HETATM   31  C9  UNL     1      11.413  -0.652   2.223  1.00  0.00     0.105 A 
HETATM   32  C10 UNL     1      12.530  -0.196   2.910  1.00  0.00     0.066 A 
HETATM   33  C7  UNL     1      12.639  -0.914   4.122  1.00  0.00     0.053 A 
HETATM   34  C8  UNL     1      11.609  -1.827   4.137  1.00  0.00     0.120 A 
HETATM   35  N3  UNL     1      10.891  -1.685   2.974  1.00  0.00    -0.354 N 
HETATM   36  C65 UNL     1       9.798  -2.557   2.594  1.00  0.00     0.156 C 
BRANCH  33  37
HETATM   37  N2  UNL     1      13.559  -0.814   5.148  1.00  0.00    -0.320 N 
HETATM   38  C6  UNL     1      14.576   0.121   5.224  1.00  0.00     0.273 C 
HETATM   39  O1  UNL     1      14.750   1.020   4.407  1.00  0.00    -0.266 OA
HETATM   40  H57 UNL     1      13.434  -1.452   5.918  1.00  0.00     0.169 HD
BRANCH  38  41
HETATM   41  C5  UNL     1      15.430  -0.031   6.400  1.00  0.00     0.105 A 
HETATM   42  C4  UNL     1      15.599  -1.121   7.251  1.00  0.00     0.066 A 
HETATM   43  C3  UNL     1      16.546  -0.783   8.250  1.00  0.00     0.052 A 
HETATM   44  C2  UNL     1      16.946   0.503   7.992  1.00  0.00     0.120 A 
HETATM   45  N1  UNL     1      16.289   0.947   6.873  1.00  0.00    -0.354 N 
HETATM   46  C1  UNL     1      16.476   2.265   6.301  1.00  0.00     0.156 C 
BRANCH  43  47
HETATM   47  N20 UNL     1      16.967  -1.618   9.266  1.00  0.00    -0.333 N 
HETATM   48  H68 UNL     1      16.570  -2.547   9.286  1.00  0.00     0.168 HD
BRANCH  47  49
HETATM   49  C66 UNL     1      17.882  -1.289  10.240  1.00  0.00     0.353 C 
HETATM   50  O14 UNL     1      18.481  -0.239  10.418  1.00  0.00    -0.283 OA
ENDBRANCH  47  49
ENDBRANCH  43  47
ENDBRANCH  38  41
ENDBRANCH  33  37
ENDBRANCH  28  31
ENDBRANCH  23  27
ENDBRANCH  18  21
ENDBRANCH  16  17
ENDBRANCH  15  16
ENDBRANCH  13  15
ENDBRANCH  12  13
ENDBRANCH  11  12
ENDBRANCH   8  11
ENDBRANCH   1   7
BRANCH   3  51
HETATM   51  C40 UNL     1      -2.148   0.354  -4.308  1.00  0.00     0.251 C 
HETATM   52  N11 UNL     1      -2.787  -0.827  -4.627  1.00  0.00    -0.355 N 
HETATM   53  H62 UNL     1      -2.214  -1.636  -4.835  1.00  0.00     0.162 HD
HETATM   54  O9  UNL     1      -2.672   1.459  -4.379  1.00  0.00    -0.268 OA
BRANCH  52  55
HETATM   55  C41 UNL     1      -4.135  -0.806  -5.175  1.00  0.00     0.152 C 
BRANCH  55  56
HETATM   56  C42 UNL     1      -4.818  -2.180  -5.087  1.00  0.00     0.289 C 
BRANCH  56  57
HETATM   57  N12 UNL     1      -4.896  -2.638  -3.691  1.00  0.00     0.086 N 
HETATM   58  H63 UNL     1      -3.962  -2.575  -3.281  1.00  0.00     0.316 HD
BRANCH  57  59
HETATM   59  C43 UNL     1      -5.379  -4.027  -3.589  1.00  0.00     0.289 C 
BRANCH  59  60
HETATM   60  C44 UNL     1      -6.870  -4.183  -3.926  1.00  0.00     0.153 C 
BRANCH  60  61
HETATM   61  N13 UNL     1      -7.658  -3.154  -3.281  1.00  0.00    -0.354 N 
HETATM   62  C45 UNL     1      -9.029  -3.149  -3.308  1.00  0.00     0.268 C 
HETATM   63  O10 UNL     1      -9.671  -4.060  -3.821  1.00  0.00    -0.266 OA
HETATM   64  H64 UNL     1      -7.148  -2.434  -2.786  1.00  0.00     0.162 HD
BRANCH  62  65
HETATM   65  C46 UNL     1      -9.639  -2.012  -2.650  1.00  0.00     0.104 A 
HETATM   66  C47 UNL     1     -10.770  -2.041  -1.845  1.00  0.00     0.066 A 
HETATM   67  C48 UNL     1     -11.030  -0.733  -1.377  1.00  0.00     0.053 A 
HETATM   68  C49 UNL     1     -10.074   0.083  -1.935  1.00  0.00     0.120 A 
HETATM   69  N14 UNL     1      -9.258  -0.686  -2.730  1.00  0.00    -0.354 N 
HETATM   70  C50 UNL     1      -8.224  -0.135  -3.581  1.00  0.00     0.156 C 
BRANCH  67  71
HETATM   71  N15 UNL     1     -12.015  -0.256  -0.534  1.00  0.00    -0.320 N 
HETATM   72  C51 UNL     1     -13.012  -1.018   0.047  1.00  0.00     0.273 C 
HETATM   73  O11 UNL     1     -13.154  -2.224  -0.135  1.00  0.00    -0.266 OA
HETATM   74  H65 UNL     1     -12.010   0.738  -0.370  1.00  0.00     0.169 HD
BRANCH  72  75
HETATM   75  C52 UNL     1     -13.918  -0.255   0.906  1.00  0.00     0.105 A 
HETATM   76  C53 UNL     1     -13.776   1.017   1.455  1.00  0.00     0.066 A 
HETATM   77  C54 UNL     1     -14.927   1.319   2.226  1.00  0.00     0.053 A 
HETATM   78  C55 UNL     1     -15.752   0.226   2.141  1.00  0.00     0.120 A 
HETATM   79  N16 UNL     1     -15.141  -0.721   1.360  1.00  0.00    -0.354 N 
HETATM   80  C56 UNL     1     -15.728  -2.010   1.053  1.00  0.00     0.156 C 
BRANCH  77  81
HETATM   81  N17 UNL     1     -15.130   2.501   2.914  1.00  0.00    -0.320 N 
HETATM   82  C57 UNL     1     -16.236   2.821   3.681  1.00  0.00     0.273 C 
HETATM   83  O12 UNL     1     -17.194   2.073   3.860  1.00  0.00    -0.266 OA
HETATM   84  H66 UNL     1     -14.383   3.175   2.850  1.00  0.00     0.169 HD
BRANCH  82  85
HETATM   85  C58 UNL     1     -16.178   4.153   4.288  1.00  0.00     0.105 A 
HETATM   86  C59 UNL     1     -15.246   5.174   4.123  1.00  0.00     0.066 A 
HETATM   87  C60 UNL     1     -15.621   6.277   4.925  1.00  0.00     0.052 A 
HETATM   88  C61 UNL     1     -16.781   5.924   5.568  1.00  0.00     0.120 A 
HETATM   89  N18 UNL     1     -17.115   4.649   5.182  1.00  0.00    -0.354 N 
HETATM   90  C62 UNL     1     -18.286   3.944   5.664  1.00  0.00     0.156 C 
BRANCH  87  91
HETATM   91  N19 UNL     1     -15.009   7.502   5.089  1.00  0.00    -0.333 N 
HETATM   92  H67 UNL     1     -15.457   8.156   5.717  1.00  0.00     0.168 HD
BRANCH  91  93
HETATM   93  C63 UNL     1     -13.844   7.885   4.467  1.00  0.00     0.353 C 
HETATM   94  O13 UNL     1     -13.149   7.250   3.686  1.00  0.00    -0.283 OA
ENDBRANCH  91  93
ENDBRANCH  87  91
ENDBRANCH  82  85
ENDBRANCH  77  81
ENDBRANCH  72  75
ENDBRANCH  67  71
ENDBRANCH  62  65
ENDBRANCH  60  61
ENDBRANCH  59  60
ENDBRANCH  57  59
ENDBRANCH  56  57
ENDBRANCH  55  56
ENDBRANCH  52  55
ENDBRANCH   3  51
BRANCH   5  95
HETATM   95  N9  UNL     1       1.635  -2.233  -2.258  1.00  0.00    -0.244 N 
HETATM   96  C28 UNL     1       1.073  -3.484  -2.572  1.00  0.00     0.266 C 
HETATM   97  C29 UNL     1       1.705  -4.686  -1.972  1.00  0.00     0.045 A 
HETATM   98  O5  UNL     1       0.126  -3.674  -3.336  1.00  0.00    -0.267 OA
HETATM   99  C30 UNL     1       1.189  -5.956  -2.268  1.00  0.00     0.018 A 
HETATM  100  C38 UNL     1       2.831  -4.556  -1.155  1.00  0.00     0.006 A 
HETATM  101  C31 UNL     1       1.797  -7.099  -1.753  1.00  0.00     0.002 A 
HETATM  102  C32 UNL     1       2.927  -6.981  -0.946  1.00  0.00     0.012 A 
HETATM  103  C33 UNL     1       3.458  -5.720  -0.639  1.00  0.00    -0.021 A 
HETATM  104  C34 UNL     1       4.598  -5.595   0.172  1.00  0.00     0.048 A 
HETATM  105  C35 UNL     1       5.108  -4.327   0.475  1.00  0.00     0.104 A 
HETATM  106  C36 UNL     1       4.488  -3.179  -0.022  1.00  0.00     0.054 A 
HETATM  107  C37 UNL     1       3.350  -3.302  -0.834  1.00  0.00     0.047 A 
HETATM  108  C39 UNL     1       2.680  -2.081  -1.329  1.00  0.00     0.266 C 
HETATM  109  O6  UNL     1       3.054  -1.016  -0.839  1.00  0.00    -0.267 OA
BRANCH 105 110
HETATM  110  N10 UNL     1       6.294  -4.202   1.330  1.00  0.00    -0.116 N 
HETATM  111  O7  UNL     1       6.894  -5.240   1.641  1.00  0.00    -0.532 OA
HETATM  112  O8  UNL     1       6.624  -3.066   1.698  1.00  0.00    -0.532 OA
ENDBRANCH 105 110
ENDBRANCH   5  95
TORSDOF 30
