REMARK  24 active torsions:
REMARK  status: ('A' for Active; 'I' for Inactive)
REMARK    1  A    between atoms: C4_4  and  O1_56 
REMARK    2  A    between atoms: C5_5  and  O1_56 
REMARK    3  A    between atoms: C6_6  and  N10_51 
REMARK    4  A    between atoms: C8_8  and  C34_34 
REMARK    5  A    between atoms: C10_10  and  N2_42 
REMARK       I    between atoms: C11_11  and  N2_42 
REMARK       I    between atoms: C11_11  and  N3_43 
REMARK    6  A    between atoms: C12_12  and  N3_43 
REMARK    7  A    between atoms: C18_18  and  N5_46 
REMARK       I    between atoms: C19_19  and  N5_46 
REMARK       I    between atoms: C19_19  and  N6_47 
REMARK    8  A    between atoms: C20_20  and  N6_47 
REMARK    9  A    between atoms: C22_22  and  C33_33 
REMARK   10  A    between atoms: C24_24  and  N8_49 
REMARK   11  A    between atoms: C25_25  and  S2_62 
REMARK   12  A    between atoms: C26_26  and  C27_27 
REMARK   13  A    between atoms: C26_26  and  S2_62 
REMARK   14  A    between atoms: C27_27  and  N7_48 
REMARK   15  A    between atoms: C28_28  and  C29_29 
REMARK       I    between atoms: C28_28  and  N8_49 
REMARK   16  A    between atoms: C29_29  and  C30_30 
REMARK   17  A    between atoms: C30_30  and  C31_31 
REMARK   18  A    between atoms: C31_31  and  C32_32 
REMARK   19  A    between atoms: C32_32  and  N9_50 
REMARK   20  A    between atoms: C35_35  and  C36_36 
REMARK       I    between atoms: C35_35  and  N10_51 
REMARK   21  A    between atoms: C36_36  and  C37_37 
REMARK   22  A    between atoms: C37_37  and  C38_38 
REMARK   23  A    between atoms: C38_38  and  C39_39 
REMARK   24  A    between atoms: C39_39  and  N11_52 
REMARK       I    between atoms: C40_40  and  N11_52 
REMARK       I    between atoms: C40_40  and  N13_55 
ROOT
HETATM    1  C12 UNL     1      -1.810  -0.822   0.569  1.00  0.00     0.037 A 
HETATM    2  C13 UNL     1      -0.846  -0.790  -0.444  1.00  0.00     0.051 A 
HETATM    3  C14 UNL     1       0.514  -0.749  -0.081  1.00  0.00     0.037 A 
HETATM    4  C15 UNL     1       0.926  -0.736   1.252  1.00  0.00     0.051 A 
HETATM    5  C16 UNL     1      -0.054  -0.762   2.261  1.00  0.00     0.033 A 
HETATM    6  C17 UNL     1      -1.409  -0.802   1.909  1.00  0.00     0.032 A 
HETATM    7  C18 UNL     1       2.906  -0.665   0.288  1.00  0.00     0.153 A 
HETATM    8  N4  UNL     1       2.296  -0.698   1.449  1.00  0.00    -0.335 N 
ATOM      9  H4  UNL     1       2.760  -0.696   2.357  1.00  0.00     0.168 HD
HETATM   10  S1  UNL     1       1.910  -0.707  -1.087  1.00  0.00    -0.052 SA
ENDROOT
BRANCH   1  11
HETATM   11  N3  UNL     1      -3.197  -0.856   0.324  1.00  0.00    -0.309 N 
HETATM   12  C11 UNL     1      -3.844  -1.012  -0.893  1.00  0.00     0.325 C 
HETATM   13  N2  UNL     1      -5.206  -0.903  -0.710  1.00  0.00    -0.306 N 
HETATM   14  O2  UNL     1      -3.301  -1.233  -1.967  1.00  0.00    -0.247 OA
HETATM   15  H36 UNL     1      -5.520  -0.606   0.210  1.00  0.00     0.171 HD
HETATM   16  H37 UNL     1      -3.801  -0.901   1.136  1.00  0.00     0.170 HD
BRANCH  13  17
HETATM   17  C10 UNL     1      -6.259  -1.184  -1.603  1.00  0.00     0.072 A 
HETATM   18  C5  UNL     1      -7.568  -1.036  -1.089  1.00  0.00     0.122 A 
HETATM   19  C6  UNL     1      -8.691  -1.270  -1.896  1.00  0.00     0.071 A 
HETATM   20  C7  UNL     1      -8.479  -1.768  -3.191  1.00  0.00     0.048 A 
HETATM   21  C8  UNL     1      -7.182  -1.958  -3.704  1.00  0.00     0.052 A 
HETATM   22  C9  UNL     1      -6.074  -1.642  -2.905  1.00  0.00     0.048 A 
BRANCH  18  23
HETATM   23  O1  UNL     1      -7.642  -0.633   0.221  1.00  0.00    -0.339 OA
BRANCH  23  24
HETATM   24  C4  UNL     1      -7.978  -1.687   1.141  1.00  0.00     0.159 C 
HETATM   25  C1  UNL     1      -8.198  -1.031   2.496  1.00  0.00     0.064 C 
HETATM   26  C2  UNL     1      -6.784  -0.824   3.031  1.00  0.00     0.272 C 
HETATM   27  N1  UNL     1      -5.898  -1.764   2.313  1.00  0.00     0.086 N 
HETATM   28  C3  UNL     1      -6.794  -2.598   1.482  1.00  0.00     0.301 C 
HETATM   29  H35 UNL     1      -5.425  -2.366   2.990  1.00  0.00     0.315 HD
ENDBRANCH  23  24
ENDBRANCH  18  23
BRANCH  19  30
HETATM   30  N10 UNL     1     -10.043  -1.070  -1.526  1.00  0.00    -0.325 N 
HETATM   31  C35 UNL     1     -10.526  -0.185  -0.577  1.00  0.00     0.222 C 
HETATM   32  O5  UNL     1      -9.883   0.663   0.028  1.00  0.00    -0.273 OA
HETATM   33  H45 UNL     1     -10.738  -1.444  -2.162  1.00  0.00     0.169 HD
BRANCH  31  34
HETATM   34  C36 UNL     1     -12.030  -0.334  -0.379  1.00  0.00     0.103 C 
BRANCH  34  35
HETATM   35  C37 UNL     1     -12.529   0.418   0.857  1.00  0.00     0.011 C 
BRANCH  35  36
HETATM   36  C38 UNL     1     -12.608   1.940   0.647  1.00  0.00     0.020 C 
BRANCH  36  37
HETATM   37  C39 UNL     1     -12.041   2.725   1.833  1.00  0.00     0.122 C 
BRANCH  37  38
HETATM   38  N11 UNL     1     -10.594   2.673   1.829  1.00  0.00    -0.367 N 
HETATM   39  C40 UNL     1      -9.796   3.152   2.803  1.00  0.00     0.143 C 
HETATM   40  N12 UNL     1     -10.117   3.917   3.780  1.00  0.00    -0.376 N 
HETATM   41  N13 UNL     1      -8.519   2.756   2.656  1.00  0.00    -0.274 NA
HETATM   42  H47 UNL     1     -11.112   4.129   3.719  1.00  0.00     0.158 HD
ATOM     43  H12 UNL     1      -9.481   4.258   4.501  1.00  0.00     0.158 HD
HETATM   44  H48 UNL     1      -7.915   3.319   3.244  1.00  0.00     0.127 HD
HETATM   45  H49 UNL     1      -8.210   2.754   1.691  1.00  0.00     0.127 HD
HETATM   46  H46 UNL     1     -10.190   1.897   1.295  1.00  0.00     0.162 HD
ENDBRANCH  37  38
ENDBRANCH  36  37
ENDBRANCH  35  36
ENDBRANCH  34  35
ENDBRANCH  31  34
ENDBRANCH  19  30
BRANCH  21  47
HETATM   47  C34 UNL     1      -6.979  -2.452  -5.117  1.00  0.00     0.417 C 
HETATM   48  F4  UNL     1      -8.068  -3.114  -5.603  1.00  0.00    -0.166 F 
HETATM   49  F5  UNL     1      -5.938  -3.319  -5.238  1.00  0.00    -0.166 F 
HETATM   50  F6  UNL     1      -6.740  -1.439  -5.992  1.00  0.00    -0.166 F 
ENDBRANCH  21  47
ENDBRANCH  13  17
ENDBRANCH   1  11
BRANCH   7  51
HETATM   51  N5  UNL     1       4.276  -0.639   0.227  1.00  0.00    -0.288 N 
HETATM   52  C19 UNL     1       5.059  -0.456  -0.894  1.00  0.00     0.326 C 
HETATM   53  N6  UNL     1       6.402  -0.569  -0.562  1.00  0.00    -0.307 N 
HETATM   54  O3  UNL     1       4.648  -0.224  -2.021  1.00  0.00    -0.247 OA
HETATM   55  H39 UNL     1       6.611  -0.958   0.349  1.00  0.00     0.170 HD
HETATM   56  H38 UNL     1       4.703  -0.606   1.138  1.00  0.00     0.172 HD
BRANCH  53  57
HETATM   57  C20 UNL     1       7.536  -0.397  -1.395  1.00  0.00     0.056 A 
HETATM   58  C21 UNL     1       7.450   0.059  -2.712  1.00  0.00     0.047 A 
HETATM   59  C22 UNL     1       8.599   0.194  -3.508  1.00  0.00     0.052 A 
HETATM   60  C23 UNL     1       9.855  -0.126  -2.967  1.00  0.00     0.047 A 
HETATM   61  C24 UNL     1       9.976  -0.579  -1.652  1.00  0.00     0.054 A 
HETATM   62  C25 UNL     1       8.810  -0.691  -0.854  1.00  0.00     0.054 A 
BRANCH  59  63
HETATM   63  C33 UNL     1       8.496   0.710  -4.925  1.00  0.00     0.417 C 
HETATM   64  F1  UNL     1       8.716   2.051  -4.998  1.00  0.00    -0.166 F 
HETATM   65  F2  UNL     1       7.277   0.497  -5.492  1.00  0.00    -0.166 F 
HETATM   66  F3  UNL     1       9.399   0.135  -5.767  1.00  0.00    -0.166 F 
ENDBRANCH  59  63
BRANCH  61  67
HETATM   67  N8  UNL     1      11.217  -0.948  -1.078  1.00  0.00    -0.326 N 
HETATM   68  C28 UNL     1      12.480  -0.844  -1.625  1.00  0.00     0.222 C 
HETATM   69  O4  UNL     1      12.759  -0.392  -2.730  1.00  0.00    -0.273 OA
HETATM   70  H42 UNL     1      11.139  -1.334  -0.142  1.00  0.00     0.169 HD
BRANCH  68  71
HETATM   71  C29 UNL     1      13.571  -1.332  -0.685  1.00  0.00     0.103 C 
BRANCH  71  72
HETATM   72  C30 UNL     1      14.615  -0.248  -0.408  1.00  0.00     0.011 C 
BRANCH  72  73
HETATM   73  C31 UNL     1      14.060   1.045   0.204  1.00  0.00     0.030 C 
BRANCH  73  74
HETATM   74  C32 UNL     1      13.375   0.836   1.554  1.00  0.00     0.267 C 
BRANCH  74  75
HETATM   75  N9  UNL     1      12.847   2.094   2.075  1.00  0.00     0.078 N 
HETATM   76  H43 UNL     1      12.364   2.597   1.330  1.00  0.00     0.312 HD
HETATM   77  H44 UNL     1      13.629   2.700   2.333  1.00  0.00     0.312 HD
ENDBRANCH  74  75
ENDBRANCH  73  74
ENDBRANCH  72  73
ENDBRANCH  71  72
ENDBRANCH  68  71
ENDBRANCH  61  67
BRANCH  62  78
HETATM   78  S2  UNL     1       8.950  -1.210   0.881  1.00  0.00    -0.124 SA
BRANCH  78  79
HETATM   79  C26 UNL     1       9.474   0.379   1.630  1.00  0.00     0.109 C 
BRANCH  79  80
HETATM   80  C27 UNL     1       8.285   1.298   1.923  1.00  0.00     0.277 C 
BRANCH  80  81
HETATM   81  N7  UNL     1       8.688   2.519   2.619  1.00  0.00     0.079 N 
HETATM   82  H40 UNL     1       9.184   2.286   3.481  1.00  0.00     0.312 HD
HETATM   83  H41 UNL     1       9.358   3.041   2.053  1.00  0.00     0.312 HD
ENDBRANCH  80  81
ENDBRANCH  79  80
ENDBRANCH  78  79
ENDBRANCH  62  78
ENDBRANCH  53  57
ENDBRANCH   7  51
TORSDOF 24
