REMARK  14 active torsions:
REMARK  status: ('A' for Active; 'I' for Inactive)
REMARK    1  A    between atoms: C3_3  and  N6_37 
REMARK    2  A    between atoms: C5_5  and  C6_6 
REMARK       I    between atoms: C6_6  and  N2_32 
REMARK    3  A    between atoms: C7_7  and  C8_8 
REMARK    4  A    between atoms: C7_7  and  N2_32 
REMARK    5  A    between atoms: C8_8  and  N3_33 
REMARK    6  A    between atoms: C9_9  and  N4_35 
REMARK    7  A    between atoms: C10_10  and  C11_11 
REMARK       I    between atoms: C10_10  and  N6_37 
REMARK    8  A    between atoms: C13_13  and  N8_39 
REMARK    9  A    between atoms: C16_16  and  C17_17 
REMARK       I    between atoms: C16_16  and  N8_39 
REMARK   10  A    between atoms: C19_19  and  N10_41 
REMARK   11  A    between atoms: C22_22  and  C23_23 
REMARK       I    between atoms: C22_22  and  N10_41 
REMARK   12  A    between atoms: C25_25  and  N12_43 
REMARK   13  A    between atoms: C28_28  and  C29_29 
REMARK       I    between atoms: C28_28  and  N12_43 
REMARK   14  A    between atoms: N4_35  and  N5_36 
ROOT
HETATM    1  C11 UNL     1       2.958  -0.429  -0.393  1.00  0.00     0.105 A 
HETATM    2  C12 UNL     1       1.588  -0.682  -0.370  1.00  0.00     0.066 A 
HETATM    3  C13 UNL     1       0.910   0.387  -1.008  1.00  0.00     0.053 A 
HETATM    4  C14 UNL     1       1.873   1.276  -1.410  1.00  0.00     0.120 A 
HETATM    5  C15 UNL     1       4.344   1.498  -1.266  1.00  0.00     0.156 C 
HETATM    6  N7  UNL     1       3.099   0.796  -1.025  1.00  0.00    -0.354 N 
ENDROOT
BRANCH   3   7
HETATM    7  N8  UNL     1      -0.459   0.475  -1.176  1.00  0.00    -0.320 N 
HETATM    8  C16 UNL     1      -1.142   1.546  -1.723  1.00  0.00     0.273 C 
HETATM    9  O3  UNL     1      -0.645   2.610  -2.071  1.00  0.00    -0.266 OA
HETATM   10  H33 UNL     1      -1.010  -0.274  -0.781  1.00  0.00     0.169 HD
BRANCH   8  11
HETATM   11  C17 UNL     1      -2.572   1.308  -1.804  1.00  0.00     0.105 A 
HETATM   12  C18 UNL     1      -3.582   2.158  -1.375  1.00  0.00     0.066 A 
HETATM   13  C19 UNL     1      -4.830   1.534  -1.614  1.00  0.00     0.053 A 
HETATM   14  C20 UNL     1      -4.558   0.331  -2.221  1.00  0.00     0.120 A 
HETATM   15  N9  UNL     1      -3.200   0.221  -2.376  1.00  0.00    -0.354 N 
HETATM   16  C21 UNL     1      -2.560  -0.848  -3.114  1.00  0.00     0.156 C 
BRANCH  13  17
HETATM   17  N10 UNL     1      -6.059   2.075  -1.287  1.00  0.00    -0.320 N 
HETATM   18  C22 UNL     1      -7.294   1.500  -1.529  1.00  0.00     0.273 C 
HETATM   19  O4  UNL     1      -7.459   0.421  -2.093  1.00  0.00    -0.266 OA
HETATM   20  H34 UNL     1      -6.032   2.990  -0.862  1.00  0.00     0.169 HD
BRANCH  18  21
HETATM   21  C23 UNL     1      -8.425   2.301  -1.061  1.00  0.00     0.105 A 
HETATM   22  C24 UNL     1      -8.449   3.399  -0.205  1.00  0.00     0.066 A 
HETATM   23  C25 UNL     1      -9.785   3.835  -0.052  1.00  0.00     0.053 A 
HETATM   24  C26 UNL     1     -10.567   2.994  -0.805  1.00  0.00     0.120 A 
HETATM   25  N11 UNL     1      -9.747   2.069  -1.405  1.00  0.00    -0.354 N 
HETATM   26  C27 UNL     1     -10.223   1.022  -2.287  1.00  0.00     0.156 C 
BRANCH  23  27
HETATM   27  N12 UNL     1     -10.303   4.880   0.688  1.00  0.00    -0.321 N 
HETATM   28  C28 UNL     1      -9.548   5.768   1.432  1.00  0.00     0.262 C 
HETATM   29  O5  UNL     1      -8.325   5.790   1.519  1.00  0.00    -0.267 OA
HETATM   30  H35 UNL     1     -11.304   5.009   0.636  1.00  0.00     0.169 HD
BRANCH  28  31
HETATM   31  C29 UNL     1     -10.382   6.794   2.143  1.00  0.00     0.069 C 
HETATM   32  C30 UNL     1     -11.443   6.425   2.877  1.00  0.00     0.037 C 
HETATM   33 BR1  UNL     1      -9.832   8.574   2.028  1.00  0.00    -0.046 Br
ENDBRANCH  28  31
ENDBRANCH  23  27
ENDBRANCH  18  21
ENDBRANCH  13  17
ENDBRANCH   8  11
ENDBRANCH   3   7
BRANCH   1  34
HETATM   34  C10 UNL     1       4.068  -1.217   0.137  1.00  0.00     0.273 C 
HETATM   35  N6  UNL     1       3.717  -2.495   0.545  1.00  0.00    -0.320 N 
HETATM   36  H32 UNL     1       2.811  -2.855   0.290  1.00  0.00     0.169 HD
HETATM   37  O2  UNL     1       5.220  -0.786   0.170  1.00  0.00    -0.266 OA
BRANCH  35  38
HETATM   38  C3  UNL     1       4.593  -3.393   1.124  1.00  0.00     0.053 A 
HETATM   39  C2  UNL     1       4.334  -4.735   1.272  1.00  0.00     0.120 A 
HETATM   40  N1  UNL     1       5.465  -5.332   1.781  1.00  0.00    -0.354 N 
HETATM   41  C1  UNL     1       5.597  -6.753   2.027  1.00  0.00     0.156 C 
HETATM   42  C5  UNL     1       6.448  -4.385   2.000  1.00  0.00     0.104 A 
HETATM   43  C4  UNL     1       5.876  -3.166   1.664  1.00  0.00     0.066 A 
BRANCH  42  44
HETATM   44  C6  UNL     1       7.813  -4.668   2.412  1.00  0.00     0.268 C 
HETATM   45  N2  UNL     1       8.504  -3.576   2.889  1.00  0.00    -0.354 N 
HETATM   46  H28 UNL     1       8.030  -2.687   2.936  1.00  0.00     0.162 HD
HETATM   47  O1  UNL     1       8.335  -5.772   2.294  1.00  0.00    -0.266 OA
BRANCH  45  48
HETATM   48  C7  UNL     1       9.948  -3.485   2.766  1.00  0.00     0.142 C 
BRANCH  48  49
HETATM   49  C8  UNL     1      10.342  -2.909   1.396  1.00  0.00     0.140 C 
BRANCH  49  50
HETATM   50  N3  UNL     1       9.789  -1.548   1.248  1.00  0.00    -0.384 N 
HETATM   51  C9  UNL     1       8.771  -1.460   0.463  1.00  0.00     0.187 C 
ATOM     52  H3  UNL     1      10.182  -0.740   1.730  1.00  0.00     0.160 HD
BRANCH  51  53
HETATM   53  N4  UNL     1       8.056  -0.313   0.179  1.00  0.00    -0.320 N 
HETATM   54  H29 UNL     1       7.052  -0.448  -0.021  1.00  0.00     0.181 HD
BRANCH  53  55
HETATM   55  N5  UNL     1       8.402   0.834   0.938  1.00  0.00    -0.249 NA
HETATM   56  H30 UNL     1       9.424   0.931   0.903  1.00  0.00     0.143 HD
HETATM   57  H31 UNL     1       8.222   0.644   1.928  1.00  0.00     0.143 HD
ENDBRANCH  53  55
ENDBRANCH  51  53
ENDBRANCH  49  50
ENDBRANCH  48  49
ENDBRANCH  45  48
ENDBRANCH  42  44
ENDBRANCH  35  38
ENDBRANCH   1  34
TORSDOF 14
