REMARK  16 active torsions:
REMARK  status: ('A' for Active; 'I' for Inactive)
REMARK    1  A    between atoms: C3_3  and  C5_5 
REMARK    2  A    between atoms: C8_8  and  N2_65 
REMARK    3  A    between atoms: C11_11  and  C12_12 
REMARK       I    between atoms: C11_11  and  N2_65 
REMARK    4  A    between atoms: C14_14  and  N6_70 
REMARK    5  A    between atoms: C15_15  and  C18_18 
REMARK       I    between atoms: C18_18  and  N3_66 
REMARK    6  A    between atoms: C19_19  and  N3_66 
REMARK    7  A    between atoms: C22_22  and  C25_25 
REMARK    8  A    between atoms: C28_28  and  C29_29 
REMARK       I    between atoms: C28_28  and  N6_70 
REMARK    9  A    between atoms: C32_32  and  C35_35 
REMARK       I    between atoms: C35_35  and  N7_71 
REMARK   10  A    between atoms: C36_36  and  N7_71 
REMARK   11  A    between atoms: C37_37  and  C52_52 
REMARK   12  A    between atoms: C40_40  and  C42_42 
REMARK       I    between atoms: C42_42  and  N8_72 
REMARK   13  A    between atoms: C43_43  and  N8_72 
REMARK   14  A    between atoms: C46_46  and  C49_49 
REMARK       I    between atoms: C52_52  and  N11_76 
REMARK   15  A    between atoms: C53_53  and  N11_76 
REMARK   16  A    between atoms: C56_56  and  C59_59 
ROOT
HETATM    1  C29 UNL     1      -0.724  -0.408   1.203  1.00  0.00     0.032 A 
HETATM    2  C30 UNL     1      -0.077  -0.224  -0.027  1.00  0.00     0.018 A 
HETATM    3  C31 UNL     1       1.272   0.151  -0.066  1.00  0.00     0.018 A 
HETATM    4  C32 UNL     1       1.991   0.328   1.125  1.00  0.00     0.032 A 
HETATM    5  C33 UNL     1       1.343   0.143   2.353  1.00  0.00     0.018 A 
HETATM    6  C34 UNL     1      -0.004  -0.231   2.392  1.00  0.00     0.018 A 
ENDROOT
BRANCH   1   7
HETATM    7  C28 UNL     1      -2.160  -0.809   1.299  1.00  0.00     0.256 C 
HETATM    8  N6  UNL     1      -2.962  -0.392   0.255  1.00  0.00    -0.322 N 
HETATM    9  H50 UNL     1      -2.550   0.246  -0.428  1.00  0.00     0.169 HD
HETATM   10  O3  UNL     1      -2.532  -1.421   2.293  1.00  0.00    -0.267 OA
BRANCH   8  11
HETATM   11  C14 UNL     1      -4.326  -0.697   0.023  1.00  0.00     0.051 A 
HETATM   12  C13 UNL     1      -5.007  -1.679   0.754  1.00  0.00     0.047 A 
HETATM   13  C12 UNL     1      -6.350  -1.971   0.480  1.00  0.00     0.034 A 
HETATM   14  C17 UNL     1      -7.023  -1.307  -0.550  1.00  0.00     0.018 A 
HETATM   15  C16 UNL     1      -6.358  -0.331  -1.292  1.00  0.00     0.020 A 
HETATM   16  C15 UNL     1      -5.020  -0.007  -1.001  1.00  0.00     0.059 A 
BRANCH  13  17
HETATM   17  C11 UNL     1      -7.026  -3.041   1.262  1.00  0.00     0.256 C 
HETATM   18  N2  UNL     1      -8.303  -2.718   1.682  1.00  0.00    -0.323 N 
HETATM   19  H47 UNL     1      -8.618  -1.772   1.509  1.00  0.00     0.169 HD
HETATM   20  O1  UNL     1      -6.414  -4.079   1.473  1.00  0.00    -0.267 OA
BRANCH  18  21
HETATM   21  C8  UNL     1      -9.196  -3.535   2.406  1.00  0.00     0.035 A 
HETATM   22  C7  UNL     1      -8.929  -4.858   2.763  1.00  0.00     0.030 A 
HETATM   23  C6  UNL     1      -9.869  -5.610   3.481  1.00  0.00     0.015 A 
HETATM   24  C5  UNL     1     -11.094  -5.045   3.843  1.00  0.00    -0.014 A 
HETATM   25  C10 UNL     1     -11.365  -3.720   3.489  1.00  0.00     0.015 A 
HETATM   26  C9  UNL     1     -10.423  -2.972   2.774  1.00  0.00     0.030 A 
BRANCH  24  27
HETATM   27  C3  UNL     1     -12.113  -5.809   4.603  1.00  0.00     0.015 C 
HETATM   28  C2  UNL     1     -11.938  -7.274   4.899  1.00  0.00     0.059 C 
HETATM   29  C1  UNL     1     -13.367  -7.630   5.236  1.00  0.00     0.025 C 
HETATM   30  C4  UNL     1     -13.912  -6.329   5.791  1.00  0.00     0.120 C 
HETATM   31  N1  UNL     1     -13.198  -5.258   5.069  1.00  0.00    -0.392 N 
ATOM     32  H1  UNL     1     -13.493  -4.288   4.958  1.00  0.00     0.159 HD
ENDBRANCH  24  27
ENDBRANCH  18  21
ENDBRANCH  13  17
BRANCH  16  33
HETATM   33  C18 UNL     1      -4.332   1.056  -1.801  1.00  0.00     0.258 C 
HETATM   34  N3  UNL     1      -5.124   2.132  -2.161  1.00  0.00    -0.323 N 
HETATM   35  H48 UNL     1      -6.047   2.186  -1.749  1.00  0.00     0.169 HD
HETATM   36  O2  UNL     1      -3.131   0.929  -2.021  1.00  0.00    -0.267 OA
BRANCH  34  37
HETATM   37  C19 UNL     1      -4.750   3.237  -2.955  1.00  0.00     0.035 A 
HETATM   38  C20 UNL     1      -5.677   4.281  -3.076  1.00  0.00     0.030 A 
HETATM   39  C21 UNL     1      -5.387   5.411  -3.851  1.00  0.00     0.017 A 
HETATM   40  C22 UNL     1      -4.164   5.505  -4.518  1.00  0.00     0.002 A 
HETATM   41  C23 UNL     1      -3.243   4.460  -4.414  1.00  0.00     0.017 A 
HETATM   42  C24 UNL     1      -3.534   3.333  -3.634  1.00  0.00     0.030 A 
BRANCH  40  43
HETATM   43  C25 UNL     1      -3.839   6.694  -5.344  1.00  0.00     0.086 C 
HETATM   44  N4  UNL     1      -2.848   6.681  -6.201  1.00  0.00    -0.379 N 
HETATM   45  C26 UNL     1      -2.867   8.034  -6.820  1.00  0.00     0.135 C 
ATOM     46  H4  UNL     1      -2.206   5.914  -6.400  1.00  0.00     0.160 HD
HETATM   47  C27 UNL     1      -3.779   8.892  -5.944  1.00  0.00     0.113 C 
HETATM   48  N5  UNL     1      -4.536   7.878  -5.241  1.00  0.00    -0.277 NA
HETATM   49  H49 UNL     1      -4.851   8.131  -4.312  1.00  0.00     0.129 HD
ENDBRANCH  40  43
ENDBRANCH  34  37
ENDBRANCH  16  33
ENDBRANCH   8  11
ENDBRANCH   1   7
BRANCH   4  50
HETATM   50  C35 UNL     1       3.429   0.733   1.137  1.00  0.00     0.256 C 
HETATM   51  N7  UNL     1       4.168   0.327   0.043  1.00  0.00    -0.322 N 
HETATM   52  H51 UNL     1       3.727  -0.322  -0.612  1.00  0.00     0.169 HD
HETATM   53  O4  UNL     1       3.863   1.342   2.109  1.00  0.00    -0.267 OA
BRANCH  51  54
HETATM   54  C36 UNL     1       5.518   0.634  -0.258  1.00  0.00     0.051 A 
HETATM   55  C37 UNL     1       6.174  -0.062  -1.302  1.00  0.00     0.059 A 
HETATM   56  C38 UNL     1       7.495   0.271  -1.642  1.00  0.00     0.020 A 
HETATM   57  C39 UNL     1       8.181   1.251  -0.922  1.00  0.00     0.018 A 
HETATM   58  C40 UNL     1       7.553   1.923   0.132  1.00  0.00     0.034 A 
HETATM   59  C41 UNL     1       6.217   1.631   0.437  1.00  0.00     0.047 A 
BRANCH  55  60
HETATM   60  C52 UNL     1       5.461  -1.141  -2.059  1.00  0.00     0.258 C 
HETATM   61  N11 UNL     1       6.253  -2.195  -2.480  1.00  0.00    -0.323 N 
HETATM   62  H54 UNL     1       7.209  -2.219  -2.149  1.00  0.00     0.169 HD
HETATM   63  O6  UNL     1       4.245  -1.044  -2.198  1.00  0.00    -0.267 OA
BRANCH  61  64
HETATM   64  C53 UNL     1       5.852  -3.315  -3.239  1.00  0.00     0.035 A 
HETATM   65  C54 UNL     1       4.580  -3.469  -3.794  1.00  0.00     0.030 A 
HETATM   66  C55 UNL     1       4.259  -4.610  -4.542  1.00  0.00     0.015 A 
HETATM   67  C56 UNL     1       5.212  -5.611  -4.744  1.00  0.00    -0.014 A 
HETATM   68  C57 UNL     1       6.490  -5.455  -4.201  1.00  0.00     0.015 A 
HETATM   69  C58 UNL     1       6.807  -4.316  -3.454  1.00  0.00     0.030 A 
BRANCH  67  70
HETATM   70  C59 UNL     1       4.909  -6.831  -5.531  1.00  0.00     0.015 C 
HETATM   71  C62 UNL     1       3.513  -7.134  -6.004  1.00  0.00     0.059 C 
HETATM   72  C61 UNL     1       3.667  -8.608  -6.298  1.00  0.00     0.025 C 
HETATM   73  C60 UNL     1       5.132  -8.721  -6.669  1.00  0.00     0.120 C 
HETATM   74  N12 UNL     1       5.825  -7.691  -5.870  1.00  0.00    -0.392 N 
ATOM     75  H12 UNL     1       6.817  -7.660  -5.633  1.00  0.00     0.159 HD
ENDBRANCH  67  70
ENDBRANCH  61  64
ENDBRANCH  55  60
BRANCH  58  76
HETATM   76  C42 UNL     1       8.327   2.969   0.869  1.00  0.00     0.256 C 
HETATM   77  N8  UNL     1       7.937   3.189   2.178  1.00  0.00    -0.323 N 
HETATM   78  H52 UNL     1       7.219   2.586   2.561  1.00  0.00     0.169 HD
HETATM   79  O5  UNL     1       9.254   3.514   0.281  1.00  0.00    -0.267 OA
BRANCH  77  80
HETATM   80  C43 UNL     1       8.466   4.134   3.083  1.00  0.00     0.035 A 
HETATM   81  C44 UNL     1       9.460   5.058   2.759  1.00  0.00     0.030 A 
HETATM   82  C45 UNL     1       9.927   5.966   3.718  1.00  0.00     0.017 A 
HETATM   83  C46 UNL     1       9.405   5.957   5.014  1.00  0.00     0.002 A 
HETATM   84  C47 UNL     1       8.401   5.043   5.343  1.00  0.00     0.017 A 
HETATM   85  C48 UNL     1       7.936   4.139   4.381  1.00  0.00     0.030 A 
BRANCH  83  86
HETATM   86  C49 UNL     1       9.915   6.920   6.022  1.00  0.00     0.086 C 
HETATM   87  N9  UNL     1      10.653   7.948   5.677  1.00  0.00    -0.379 N 
HETATM   88  C50 UNL     1      10.938   8.653   6.956  1.00  0.00     0.135 C 
ATOM     89  H9  UNL     1      10.963   8.207   4.740  1.00  0.00     0.160 HD
HETATM   90  C51 UNL     1      10.550   7.685   8.073  1.00  0.00     0.113 C 
HETATM   91  N10 UNL     1       9.671   6.777   7.371  1.00  0.00    -0.277 NA
HETATM   92  H53 UNL     1       9.644   5.827   7.722  1.00  0.00     0.129 HD
ENDBRANCH  83  86
ENDBRANCH  77  80
ENDBRANCH  58  76
ENDBRANCH  51  54
ENDBRANCH   4  50
TORSDOF 16
