REMARK  0 active torsions:
REMARK  status: ('A' for Active; 'I' for Inactive)
REMARK       I    between atoms: C2_2  and  O1_58 
REMARK       I    between atoms: C3_3  and  C14_14 
REMARK       I    between atoms: C5_5  and  N1_72 
REMARK       I    between atoms: C8_8  and  C9_9 
REMARK       I    between atoms: C8_8  and  N1_72 
REMARK       I    between atoms: C9_9  and  C10_10 
REMARK       I    between atoms: C9_9  and  N4_75 
REMARK       I    between atoms: C10_10  and  C11_11 
REMARK       I    between atoms: C11_11  and  C12_12 
REMARK       I    between atoms: C12_12  and  N2_73 
REMARK       I    between atoms: C13_13  and  N2_73 
REMARK       I    between atoms: C13_13  and  N3_74 
REMARK       I    between atoms: C14_14  and  N5_76 
REMARK       I    between atoms: C15_15  and  C16_16 
REMARK       I    between atoms: C15_15  and  C20_20 
REMARK       I    between atoms: C15_15  and  N5_76 
REMARK       I    between atoms: C16_16  and  C17_17 
REMARK       I    between atoms: C17_17  and  C18_18 
REMARK       I    between atoms: C18_18  and  N6_77 
REMARK       I    between atoms: C19_19  and  N7_79 
REMARK       I    between atoms: C19_19  and  N8_80 
REMARK       I    between atoms: C20_20  and  N9_81 
REMARK       I    between atoms: C21_21  and  N9_81 
REMARK       I    between atoms: C23_23  and  C29_29 
REMARK       I    between atoms: C24_24  and  O5_62 
REMARK       I    between atoms: C27_27  and  C28_28 
REMARK       I    between atoms: C27_27  and  O5_62 
REMARK       I    between atoms: C28_28  and  O7_64 
REMARK       I    between atoms: C29_29  and  N10_82 
REMARK       I    between atoms: C30_30  and  C31_31 
REMARK       I    between atoms: C30_30  and  C35_35 
REMARK       I    between atoms: C30_30  and  N10_82 
REMARK       I    between atoms: C31_31  and  C32_32 
REMARK       I    between atoms: C32_32  and  C33_33 
REMARK       I    between atoms: C33_33  and  N11_83 
REMARK       I    between atoms: C34_34  and  N12_85 
REMARK       I    between atoms: C34_34  and  N13_86 
REMARK       I    between atoms: C35_35  and  N14_87 
REMARK       I    between atoms: C36_36  and  N14_87 
REMARK       I    between atoms: C38_38  and  C43_43 
REMARK       I    between atoms: C39_39  and  O10_67 
REMARK       I    between atoms: C43_43  and  N15_88 
REMARK       I    between atoms: C44_44  and  C45_45 
REMARK       I    between atoms: C44_44  and  C49_49 
REMARK       I    between atoms: C44_44  and  N15_88 
REMARK       I    between atoms: C45_45  and  C46_46 
REMARK       I    between atoms: C46_46  and  C47_47 
REMARK       I    between atoms: C47_47  and  N16_89 
REMARK       I    between atoms: C48_48  and  N17_91 
REMARK       I    between atoms: C48_48  and  N18_92 
REMARK       I    between atoms: C49_49  and  N19_93 
REMARK       I    between atoms: C50_50  and  N19_93 
REMARK       I    between atoms: C52_52  and  C57_57 
REMARK       I    between atoms: C53_53  and  O13_70 
REMARK       I    between atoms: C57_57  and  N20_94 
ROOT
HETATM    1  C1  UNL     1       5.592   1.179  -0.576  1.00  0.00     0.210 C 
HETATM    2  C2  UNL     1       7.767   0.173  -0.520  1.00  0.00     0.084 A 
HETATM    3  C3  UNL     1       8.604  -0.927  -0.802  1.00  0.00     0.067 A 
HETATM    4  C4  UNL     1       9.995  -0.805  -0.616  1.00  0.00     0.049 A 
HETATM    5  C5  UNL     1      10.567   0.382  -0.151  1.00  0.00     0.035 A 
HETATM    6  C6  UNL     1       9.734   1.458   0.136  1.00  0.00     0.032 A 
HETATM    7  C7  UNL     1       8.349   1.356  -0.047  1.00  0.00     0.040 A 
HETATM    8  C8  UNL     1      12.766   1.472   0.375  1.00  0.00     0.255 C 
HETATM    9  C9  UNL     1      14.249   1.053   0.503  1.00  0.00     0.309 C 
HETATM   10  C10 UNL     1      14.533   0.417   1.870  1.00  0.00     0.047 C 
HETATM   11  C11 UNL     1      14.323   1.344   3.076  1.00  0.00     0.033 C 
HETATM   12  C12 UNL     1      15.224   2.582   3.055  1.00  0.00     0.272 C 
HETATM   13  C13 UNL     1      15.900   4.495   4.355  1.00  0.00     0.534 C 
HETATM   14  C14 UNL     1       8.125  -2.257  -1.312  1.00  0.00     0.255 C 
HETATM   15  C15 UNL     1       6.166  -3.747  -1.737  1.00  0.00     0.177 C 
HETATM   16  C16 UNL     1       6.338  -4.025  -3.248  1.00  0.00     0.036 C 
HETATM   17  C17 UNL     1       6.887  -5.428  -3.558  1.00  0.00     0.022 C 
HETATM   18  C18 UNL     1       5.810  -6.510  -3.617  1.00  0.00     0.121 C 
HETATM   19  C19 UNL     1       5.322  -7.302  -1.423  1.00  0.00     0.121 C 
HETATM   20  C20 UNL     1       4.684  -3.644  -1.294  1.00  0.00     0.245 C 
HETATM   21  C21 UNL     1       2.675  -2.212  -1.771  1.00  0.00     0.035 A 
HETATM   22  C22 UNL     1       2.266  -1.046  -2.421  1.00  0.00     0.049 A 
HETATM   23  C23 UNL     1       0.945  -0.558  -2.314  1.00  0.00     0.067 A 
HETATM   24  C24 UNL     1       0.007  -1.272  -1.545  1.00  0.00     0.085 A 
HETATM   25  C25 UNL     1       0.424  -2.449  -0.908  1.00  0.00     0.040 A 
HETATM   26  C26 UNL     1       1.742  -2.911  -1.017  1.00  0.00     0.032 A 
HETATM   27  C27 UNL     1      -2.278  -1.562  -0.839  1.00  0.00     0.285 C 
HETATM   28  C28 UNL     1      -2.259  -1.612   0.686  1.00  0.00     0.164 C 
HETATM   29  C29 UNL     1       0.664   0.696  -3.087  1.00  0.00     0.255 C 
HETATM   30  C30 UNL     1      -1.006   2.226  -4.077  1.00  0.00     0.177 C 
HETATM   31  C31 UNL     1      -0.595   3.637  -3.627  1.00  0.00     0.036 C 
HETATM   32  C32 UNL     1      -1.267   4.258  -2.395  1.00  0.00     0.022 C 
HETATM   33  C33 UNL     1      -1.093   3.480  -1.090  1.00  0.00     0.121 C 
HETATM   34  C34 UNL     1      -2.308   1.985   0.246  1.00  0.00     0.121 C 
HETATM   35  C35 UNL     1      -2.487   2.132  -4.495  1.00  0.00     0.245 C 
HETATM   36  C36 UNL     1      -4.765   1.913  -3.501  1.00  0.00     0.035 A 
HETATM   37  C37 UNL     1      -5.476   2.161  -2.327  1.00  0.00     0.049 A 
HETATM   38  C38 UNL     1      -6.858   1.947  -2.247  1.00  0.00     0.067 A 
HETATM   39  C39 UNL     1      -7.538   1.492  -3.381  1.00  0.00     0.084 A 
HETATM   40  C40 UNL     1      -6.846   1.302  -4.581  1.00  0.00     0.040 A 
HETATM   41  C41 UNL     1      -5.461   1.501  -4.637  1.00  0.00     0.032 A 
HETATM   42  C42 UNL     1      -9.153  -0.143  -3.307  1.00  0.00     0.210 C 
HETATM   43  C43 UNL     1      -7.488   2.168  -0.916  1.00  0.00     0.255 C 
HETATM   44  C44 UNL     1      -9.654   2.419   0.302  1.00  0.00     0.177 C 
HETATM   45  C45 UNL     1      -9.129   3.329   1.435  1.00  0.00     0.036 C 
HETATM   46  C46 UNL     1     -10.034   4.540   1.712  1.00  0.00     0.022 C 
HETATM   47  C47 UNL     1     -11.170   4.273   2.699  1.00  0.00     0.121 C 
HETATM   48  C48 UNL     1     -13.264   3.199   2.544  1.00  0.00     0.121 C 
HETATM   49  C49 UNL     1      -9.880   0.932   0.712  1.00  0.00     0.245 C 
HETATM   50  C50 UNL     1     -11.062  -0.404   2.480  1.00  0.00     0.035 A 
HETATM   51  C51 UNL     1     -10.611  -1.673   2.110  1.00  0.00     0.049 A 
HETATM   52  C52 UNL     1     -11.006  -2.815   2.830  1.00  0.00     0.067 A 
HETATM   53  C53 UNL     1     -11.879  -2.679   3.915  1.00  0.00     0.084 A 
HETATM   54  C54 UNL     1     -12.320  -1.413   4.300  1.00  0.00     0.040 A 
HETATM   55  C55 UNL     1     -11.917  -0.285   3.582  1.00  0.00     0.032 A 
HETATM   56  C56 UNL     1     -13.529  -4.222   4.332  1.00  0.00     0.210 C 
HETATM   57  C57 UNL     1     -10.512  -4.150   2.405  1.00  0.00     0.252 C 
HETATM   58  O1  UNL     1       6.416   0.025  -0.715  1.00  0.00    -0.355 OA
HETATM   59  O2  UNL     1      12.406   2.619   0.615  1.00  0.00    -0.271 OA
HETATM   60  O3  UNL     1       8.930  -3.119  -1.651  1.00  0.00    -0.268 OA
HETATM   61  O4  UNL     1       4.215  -4.356  -0.407  1.00  0.00    -0.271 OA
HETATM   62  O5  UNL     1      -1.262  -0.767  -1.444  1.00  0.00    -0.340 OA
HETATM   63  O6  UNL     1      -1.496  -1.029   1.444  1.00  0.00    -0.648 OA
HETATM   64  O7  UNL     1      -3.212  -2.433   1.179  1.00  0.00    -0.775 OA
HETATM   65  O8  UNL     1       1.584   1.261  -3.674  1.00  0.00    -0.268 OA
HETATM   66  O9  UNL     1      -2.811   2.199  -5.680  1.00  0.00    -0.271 OA
HETATM   67  O10 UNL     1      -8.890   1.265  -3.352  1.00  0.00    -0.355 OA
HETATM   68  O11 UNL     1      -6.797   2.069   0.095  1.00  0.00    -0.268 OA
HETATM   69  O12 UNL     1      -9.422  -0.002   0.053  1.00  0.00    -0.271 OA
HETATM   70  O13 UNL     1     -12.230  -3.749   4.693  1.00  0.00    -0.355 OA
HETATM   71  O14 UNL     1     -11.221  -5.146   2.394  1.00  0.00    -0.268 OA
HETATM   72  N1  UNL     1      11.961   0.408   0.008  1.00  0.00    -0.325 N 
HETATM   73  N2  UNL     1      15.075   3.316   4.313  1.00  0.00     0.111 N 
HETATM   74  N3  UNL     1      17.192   4.061   4.820  1.00  0.00     0.106 N 
HETATM   75  N4  UNL     1      14.563   0.053  -0.554  1.00  0.00     0.092 N 
HETATM   76  N5  UNL     1       6.768  -2.458  -1.370  1.00  0.00    -0.344 N 
HETATM   77  N6  UNL     1       5.049  -6.511  -2.384  1.00  0.00    -0.372 N 
ATOM     78  H6  UNL     1       4.271  -5.859  -2.282  1.00  0.00     0.161 HD
HETATM   79  N7  UNL     1       4.634  -7.192  -0.265  1.00  0.00    -0.279 NA
HETATM   80  N8  UNL     1       6.262  -8.265  -1.314  1.00  0.00    -0.279 NA
HETATM   81  N9  UNL     1       4.013  -2.608  -1.937  1.00  0.00    -0.325 N 
HETATM   82  N10 UNL     1      -0.627   1.172  -3.138  1.00  0.00    -0.344 N 
HETATM   83  N11 UNL     1      -2.291   2.665  -0.843  1.00  0.00    -0.372 N 
ATOM     84  H11 UNL     1      -3.069   2.641  -1.503  1.00  0.00     0.161 HD
HETATM   85  N12 UNL     1      -1.336   1.815   1.173  1.00  0.00    -0.279 NA
HETATM   86  N13 UNL     1      -3.409   1.303   0.640  1.00  0.00    -0.279 NA
HETATM   87  N14 UNL     1      -3.368   2.065  -3.434  1.00  0.00    -0.325 N 
HETATM   88  N15 UNL     1      -8.832   2.475  -0.911  1.00  0.00    -0.344 N 
HETATM   89  N16 UNL     1     -12.035   3.214   2.184  1.00  0.00    -0.372 N 
ATOM     90  H16 UNL     1     -11.668   2.503   1.552  1.00  0.00     0.161 HD
HETATM   91  N17 UNL     1     -13.935   4.004   3.394  1.00  0.00    -0.279 NA
HETATM   92  N18 UNL     1     -14.092   2.250   2.061  1.00  0.00    -0.279 NA
HETATM   93  N19 UNL     1     -10.699   0.787   1.819  1.00  0.00    -0.325 N 
HETATM   94  N20 UNL     1      -9.204  -4.215   2.008  1.00  0.00    -0.366 N 
HETATM   95  H54 UNL     1      -3.110  -2.374   2.152  1.00  0.00     0.167 HD
HETATM   96  H55 UNL     1      12.490  -0.427  -0.244  1.00  0.00     0.169 HD
HETATM   97  H56 UNL     1      15.352   2.712   5.082  1.00  0.00     0.318 HD
HETATM   98  H57 UNL     1      17.118   3.826   5.806  1.00  0.00     0.315 HD
HETATM   99  H58 UNL     1      17.830   4.855   4.780  1.00  0.00     0.315 HD
HETATM  100  H59 UNL     1      15.548  -0.204  -0.475  1.00  0.00     0.313 HD
HETATM  101  H60 UNL     1      14.479   0.517  -1.462  1.00  0.00     0.313 HD
HETATM  102  H61 UNL     1       6.183  -1.750  -0.934  1.00  0.00     0.163 HD
HETATM  103  H62 UNL     1       4.123  -6.303  -0.282  1.00  0.00     0.126 HD
HETATM  104  H63 UNL     1       5.253  -7.180   0.536  1.00  0.00     0.126 HD
HETATM  105  H64 UNL     1       6.663  -8.564  -2.192  1.00  0.00     0.126 HD
HETATM  106  H65 UNL     1       5.930  -9.058  -0.778  1.00  0.00     0.126 HD
HETATM  107  H66 UNL     1       4.580  -2.047  -2.566  1.00  0.00     0.169 HD
HETATM  108  H67 UNL     1      -1.349   0.685  -2.615  1.00  0.00     0.163 HD
HETATM  109  H68 UNL     1      -1.300   0.848   1.508  1.00  0.00     0.126 HD
HETATM  110  H69 UNL     1      -0.410   2.086   0.868  1.00  0.00     0.126 HD
HETATM  111  H70 UNL     1      -3.542   1.358   1.644  1.00  0.00     0.126 HD
HETATM  112  H71 UNL     1      -4.263   1.617   0.188  1.00  0.00     0.126 HD
HETATM  113  H72 UNL     1      -2.978   2.253  -2.504  1.00  0.00     0.169 HD
HETATM  114  H73 UNL     1      -9.318   2.296  -1.786  1.00  0.00     0.163 HD
HETATM  115  H74 UNL     1     -13.358   4.568   4.005  1.00  0.00     0.126 HD
HETATM  116  H75 UNL     1     -14.650   3.516   3.922  1.00  0.00     0.126 HD
HETATM  117  H76 UNL     1     -13.665   1.738   1.294  1.00  0.00     0.126 HD
HETATM  118  H77 UNL     1     -14.989   2.624   1.772  1.00  0.00     0.126 HD
HETATM  119  H78 UNL     1     -11.132   1.648   2.164  1.00  0.00     0.169 HD
HETATM  120  H79 UNL     1      -8.836  -5.130   1.784  1.00  0.00     0.159 HD
HETATM  121  H80 UNL     1      -8.554  -3.450   2.125  1.00  0.00     0.159 HD
ENDROOT
TORSDOF 41
