REMARK  20 active torsions:
REMARK  status: ('A' for Active; 'I' for Inactive)
REMARK    1  A    between atoms: C2_2  and  N1_44 
REMARK    2  A    between atoms: C3_3  and  N4_47 
REMARK    3  A    between atoms: C6_6  and  N2_45 
REMARK    4  A    between atoms: C8_8  and  N3_46 
REMARK       I    between atoms: C9_9  and  N4_47 
REMARK       I    between atoms: C9_9  and  N5_48 
REMARK    5  A    between atoms: C10_10  and  N5_48 
REMARK    6  A    between atoms: C14_14  and  N6_49 
REMARK    7  A    between atoms: C16_16  and  C17_17 
REMARK       I    between atoms: C16_16  and  N6_49 
REMARK    8  A    between atoms: C17_17  and  C18_18 
REMARK    9  A    between atoms: C22_22  and  C24_24 
REMARK       I    between atoms: C24_24  and  N7_50 
REMARK   10  A    between atoms: C25_25  and  C26_26 
REMARK   11  A    between atoms: C25_25  and  N7_50 
REMARK   12  A    between atoms: C26_26  and  S2_36 
REMARK   13  A    between atoms: C27_27  and  C28_28 
REMARK   14  A    between atoms: C27_27  and  S2_36 
REMARK   15  A    between atoms: C28_28  and  N8_51 
REMARK   16  A    between atoms: C29_29  and  C30_30 
REMARK   17  A    between atoms: C29_29  and  O7_43 
REMARK   18  A    between atoms: S1_35  and  N1_44 
REMARK   19  A    between atoms: O7_43  and  N8_51 
REMARK   20  A    between atoms: N2_45  and  N3_46 
ROOT
HETATM    1  C16 UNL     1       0.215  -2.384   5.264  1.00  0.00     0.226 C 
HETATM    2  O5  UNL     1       0.048  -2.586   6.464  1.00  0.00    -0.273 OA
HETATM    3  N6  UNL     1      -0.774  -2.294   4.297  1.00  0.00    -0.327 N 
HETATM    4  H37 UNL     1      -0.464  -2.077   3.358  1.00  0.00     0.169 HD
ENDROOT
BRANCH   3   5
HETATM    5  C14 UNL     1      -2.169  -2.398   4.476  1.00  0.00     0.036 A 
HETATM    6  C13 UNL     1      -2.781  -2.671   5.697  1.00  0.00     0.029 A 
HETATM    7  C12 UNL     1      -4.172  -2.759   5.781  1.00  0.00     0.004 A 
HETATM    8  C11 UNL     1      -4.965  -2.573   4.646  1.00  0.00     0.029 A 
HETATM    9  C10 UNL     1      -4.373  -2.294   3.417  1.00  0.00     0.038 A 
HETATM   10  C15 UNL     1      -2.974  -2.214   3.341  1.00  0.00     0.059 A 
BRANCH   9  11
HETATM   11  N5  UNL     1      -5.095  -2.105   2.220  1.00  0.00    -0.309 N 
HETATM   12  C9  UNL     1      -6.470  -1.997   2.066  1.00  0.00     0.325 C 
HETATM   13  O4  UNL     1      -7.289  -1.972   2.974  1.00  0.00    -0.247 OA
HETATM   14  N4  UNL     1      -6.784  -1.938   0.719  1.00  0.00    -0.307 N 
HETATM   15  H35 UNL     1      -6.014  -2.138   0.093  1.00  0.00     0.170 HD
HETATM   16  H36 UNL     1      -4.546  -1.883   1.399  1.00  0.00     0.170 HD
BRANCH  14  17
HETATM   17  C3  UNL     1      -8.019  -1.606   0.117  1.00  0.00     0.058 A 
HETATM   18  C2  UNL     1      -8.153  -1.746  -1.281  1.00  0.00     0.051 A 
HETATM   19  C7  UNL     1      -9.320  -1.343  -1.933  1.00  0.00     0.051 A 
HETATM   20  C6  UNL     1     -10.392  -0.819  -1.204  1.00  0.00     0.029 A 
HETATM   21  C5  UNL     1     -10.274  -0.704   0.184  1.00  0.00     0.027 A 
HETATM   22  C4  UNL     1      -9.098  -1.094   0.840  1.00  0.00     0.033 A 
BRANCH  18  23
HETATM   23  N1  UNL     1      -7.117  -2.332  -2.098  1.00  0.00    -0.184 NA
HETATM   24  H32 UNL     1      -6.824  -3.231  -1.707  1.00  0.00     0.146 HD
BRANCH  23  25
HETATM   25  S1  UNL     1      -5.766  -1.342  -2.358  1.00  0.00     0.210 S 
HETATM   26  C1  UNL     1      -5.160  -2.006  -3.892  1.00  0.00     0.180 C 
HETATM   27  O1  UNL     1      -6.198   0.018  -2.587  1.00  0.00    -0.211 OA
HETATM   28  O2  UNL     1      -4.841  -1.685  -1.293  1.00  0.00    -0.211 OA
ENDBRANCH  23  25
ENDBRANCH  18  23
BRANCH  20  29
HETATM   29  N2  UNL     1     -11.555  -0.362  -1.872  1.00  0.00    -0.204 NA
HETATM   30  H33 UNL     1     -12.312  -0.192  -1.195  1.00  0.00     0.153 HD
BRANCH  29  31
HETATM   31  N3  UNL     1     -11.289   0.845  -2.561  1.00  0.00    -0.294 N 
HETATM   32  H34 UNL     1     -10.465   0.880  -3.152  1.00  0.00     0.183 HD
BRANCH  31  33
HETATM   33  C8  UNL     1     -11.919   1.982  -2.106  1.00  0.00     0.364 C 
HETATM   34  O3  UNL     1     -12.786   2.005  -1.240  1.00  0.00    -0.282 OA
ENDBRANCH  31  33
ENDBRANCH  29  31
ENDBRANCH  20  29
ENDBRANCH  14  17
ENDBRANCH   9  11
ENDBRANCH   3   5
BRANCH   1  35
HETATM   35  C17 UNL     1       1.621  -2.247   4.693  1.00  0.00     0.141 C 
BRANCH  35  36
HETATM   36  C18 UNL     1       1.850  -0.945   3.962  1.00  0.00    -0.049 A 
HETATM   37  C19 UNL     1       1.854   0.269   4.662  1.00  0.00     0.007 A 
HETATM   38  C20 UNL     1       2.032   1.477   3.986  1.00  0.00     0.002 A 
HETATM   39  C21 UNL     1       2.211   1.488   2.602  1.00  0.00     0.017 A 
HETATM   40  C22 UNL     1       2.224   0.282   1.892  1.00  0.00     0.032 A 
HETATM   41  C23 UNL     1       2.038  -0.929   2.572  1.00  0.00     0.024 A 
BRANCH  40  42
HETATM   42  C24 UNL     1       2.390   0.240   0.414  1.00  0.00     0.251 C 
HETATM   43  O6  UNL     1       1.911  -0.686  -0.232  1.00  0.00    -0.268 OA
HETATM   44  N7  UNL     1       3.125   1.263  -0.150  1.00  0.00    -0.356 N 
HETATM   45  H38 UNL     1       3.726   1.802   0.462  1.00  0.00     0.162 HD
BRANCH  44  46
HETATM   46  C25 UNL     1       3.501   1.217  -1.552  1.00  0.00     0.133 C 
BRANCH  46  47
HETATM   47  C26 UNL     1       4.733   0.344  -1.807  1.00  0.00     0.093 C 
BRANCH  47  48
HETATM   48  S2  UNL     1       6.225   0.902  -0.896  1.00  0.00    -0.166 SA
BRANCH  48  49
HETATM   49  C27 UNL     1       6.594   2.485  -1.748  1.00  0.00     0.090 C 
BRANCH  49  50
HETATM   50  C28 UNL     1       6.981   2.336  -3.228  1.00  0.00     0.127 C 
BRANCH  50  51
HETATM   51  N8  UNL     1       8.086   1.399  -3.476  1.00  0.00    -0.205 NA
HETATM   52  H39 UNL     1       7.965   0.594  -2.851  1.00  0.00     0.153 HD
BRANCH  51  53
HETATM   53  O7  UNL     1       9.264   2.032  -2.884  1.00  0.00    -0.301 OA
BRANCH  53  54
HETATM   54  C29 UNL     1      10.314   2.054  -3.859  1.00  0.00     0.233 C 
BRANCH  54  55
HETATM   55  C30 UNL     1      11.525   2.718  -3.269  1.00  0.00    -0.017 A 
HETATM   56  C31 UNL     1      12.042   2.307  -2.044  1.00  0.00     0.096 A 
HETATM   57  N9  UNL     1      13.143   2.840  -1.467  1.00  0.00    -0.375 N 
HETATM   58  C32 UNL     1      13.764   3.831  -2.141  1.00  0.00     0.087 A 
ATOM     59  H9  UNL     1      13.488   2.509  -0.566  1.00  0.00     0.164 HD
HETATM   60  C33 UNL     1      13.336   4.310  -3.368  1.00  0.00     0.018 A 
HETATM   61  C34 UNL     1      12.202   3.741  -3.940  1.00  0.00     0.012 A 
ENDBRANCH  54  55
ENDBRANCH  53  54
ENDBRANCH  51  53
ENDBRANCH  50  51
ENDBRANCH  49  50
ENDBRANCH  48  49
ENDBRANCH  47  48
ENDBRANCH  46  47
ENDBRANCH  44  46
ENDBRANCH  40  42
ENDBRANCH  35  36
ENDBRANCH   1  35
TORSDOF 20
