REMARK  0 active torsions:
REMARK  status: ('A' for Active; 'I' for Inactive)
REMARK       I    between atoms: C2_2  and  O1_57 
REMARK       I    between atoms: C3_3  and  C14_14 
REMARK       I    between atoms: C5_5  and  N1_71 
REMARK       I    between atoms: C8_8  and  C9_9 
REMARK       I    between atoms: C8_8  and  N1_71 
REMARK       I    between atoms: C9_9  and  C10_10 
REMARK       I    between atoms: C9_9  and  N4_74 
REMARK       I    between atoms: C10_10  and  C11_11 
REMARK       I    between atoms: C11_11  and  C12_12 
REMARK       I    between atoms: C12_12  and  N2_72 
REMARK       I    between atoms: C13_13  and  N2_72 
REMARK       I    between atoms: C13_13  and  N3_73 
REMARK       I    between atoms: C14_14  and  N5_75 
REMARK       I    between atoms: C15_15  and  C16_16 
REMARK       I    between atoms: C15_15  and  C20_20 
REMARK       I    between atoms: C15_15  and  N5_75 
REMARK       I    between atoms: C16_16  and  C17_17 
REMARK       I    between atoms: C17_17  and  C18_18 
REMARK       I    between atoms: C18_18  and  N6_76 
REMARK       I    between atoms: C19_19  and  N7_78 
REMARK       I    between atoms: C19_19  and  N8_79 
REMARK       I    between atoms: C20_20  and  N9_80 
REMARK       I    between atoms: C21_21  and  N9_80 
REMARK       I    between atoms: C23_23  and  C28_28 
REMARK       I    between atoms: C24_24  and  O6_62 
REMARK       I    between atoms: C28_28  and  N10_81 
REMARK       I    between atoms: C29_29  and  C30_30 
REMARK       I    between atoms: C29_29  and  C34_34 
REMARK       I    between atoms: C29_29  and  N10_81 
REMARK       I    between atoms: C30_30  and  C31_31 
REMARK       I    between atoms: C31_31  and  C32_32 
REMARK       I    between atoms: C32_32  and  N11_82 
REMARK       I    between atoms: C33_33  and  N12_84 
REMARK       I    between atoms: C33_33  and  N13_85 
REMARK       I    between atoms: C34_34  and  N14_86 
REMARK       I    between atoms: C35_35  and  N14_86 
REMARK       I    between atoms: C37_37  and  C42_42 
REMARK       I    between atoms: C38_38  and  O9_65 
REMARK       I    between atoms: C42_42  and  N15_87 
REMARK       I    between atoms: C43_43  and  C44_44 
REMARK       I    between atoms: C43_43  and  C48_48 
REMARK       I    between atoms: C43_43  and  N15_87 
REMARK       I    between atoms: C44_44  and  C45_45 
REMARK       I    between atoms: C45_45  and  C46_46 
REMARK       I    between atoms: C46_46  and  N16_88 
REMARK       I    between atoms: C47_47  and  N16_88 
REMARK       I    between atoms: C47_47  and  N17_89 
REMARK       I    between atoms: C48_48  and  N18_90 
REMARK       I    between atoms: C49_49  and  N18_90 
REMARK       I    between atoms: C51_51  and  C56_56 
REMARK       I    between atoms: C52_52  and  O13_69 
REMARK       I    between atoms: C56_56  and  N19_91 
ROOT
HETATM    1  C1  UNL     1       6.562  -0.376  -3.299  1.00  0.00     0.210 C 
HETATM    2  C2  UNL     1       8.695  -0.890  -2.611  1.00  0.00     0.084 A 
HETATM    3  C3  UNL     1       8.762  -1.311  -1.275  1.00  0.00     0.067 A 
HETATM    4  C4  UNL     1       9.832  -0.882  -0.469  1.00  0.00     0.049 A 
HETATM    5  C5  UNL     1      10.847  -0.077  -0.994  1.00  0.00     0.035 A 
HETATM    6  C6  UNL     1      10.781   0.299  -2.341  1.00  0.00     0.032 A 
HETATM    7  C7  UNL     1       9.717  -0.108  -3.148  1.00  0.00     0.040 A 
HETATM    8  C8  UNL     1      12.257   0.123   1.069  1.00  0.00     0.255 C 
HETATM    9  C9  UNL     1      13.564   0.799   1.562  1.00  0.00     0.309 C 
HETATM   10  C10 UNL     1      13.260   2.126   2.280  1.00  0.00     0.047 C 
HETATM   11  C11 UNL     1      12.904   3.278   1.336  1.00  0.00     0.022 C 
HETATM   12  C12 UNL     1      14.124   3.807   0.577  1.00  0.00     0.124 C 
HETATM   13  C13 UNL     1      13.459   3.509  -1.749  1.00  0.00     0.291 C 
HETATM   14  C14 UNL     1       7.743  -2.194  -0.639  1.00  0.00     0.255 C 
HETATM   15  C15 UNL     1       6.214  -4.145  -0.976  1.00  0.00     0.177 C 
HETATM   16  C16 UNL     1       6.065  -5.253  -2.035  1.00  0.00     0.036 C 
HETATM   17  C17 UNL     1       7.273  -6.189  -2.198  1.00  0.00     0.022 C 
HETATM   18  C18 UNL     1       8.632  -5.534  -2.440  1.00  0.00     0.121 C 
HETATM   19  C19 UNL     1       8.567  -4.647  -4.651  1.00  0.00     0.121 C 
HETATM   20  C20 UNL     1       4.818  -3.553  -0.619  1.00  0.00     0.245 C 
HETATM   21  C21 UNL     1       3.812  -1.997   1.084  1.00  0.00     0.035 A 
HETATM   22  C22 UNL     1       2.462  -2.170   0.769  1.00  0.00     0.049 A 
HETATM   23  C23 UNL     1       1.464  -1.441   1.443  1.00  0.00     0.067 A 
HETATM   24  C24 UNL     1       1.839  -0.558   2.465  1.00  0.00     0.084 A 
HETATM   25  C25 UNL     1       3.187  -0.366   2.770  1.00  0.00     0.040 A 
HETATM   26  C26 UNL     1       4.166  -1.088   2.088  1.00  0.00     0.032 A 
HETATM   27  C27 UNL     1       0.480  -0.525   4.318  1.00  0.00     0.210 C 
HETATM   28  C28 UNL     1       0.049  -1.675   1.028  1.00  0.00     0.255 C 
HETATM   29  C29 UNL     1      -2.245  -0.730   0.877  1.00  0.00     0.177 C 
HETATM   30  C30 UNL     1      -2.403  -0.226  -0.573  1.00  0.00     0.036 C 
HETATM   31  C31 UNL     1      -2.411   1.293  -0.819  1.00  0.00     0.022 C 
HETATM   32  C32 UNL     1      -1.151   2.047  -0.392  1.00  0.00     0.121 C 
HETATM   33  C33 UNL     1      -0.800   3.104   1.727  1.00  0.00     0.121 C 
HETATM   34  C34 UNL     1      -3.161  -0.036   1.929  1.00  0.00     0.245 C 
HETATM   35  C35 UNL     1      -5.601   0.463   2.281  1.00  0.00     0.035 A 
HETATM   36  C36 UNL     1      -6.871   0.284   1.724  1.00  0.00     0.049 A 
HETATM   37  C37 UNL     1      -8.029   0.784   2.354  1.00  0.00     0.067 A 
HETATM   38  C38 UNL     1      -7.910   1.486   3.568  1.00  0.00     0.084 A 
HETATM   39  C39 UNL     1      -6.636   1.658   4.122  1.00  0.00     0.040 A 
HETATM   40  C40 UNL     1      -5.495   1.154   3.483  1.00  0.00     0.032 A 
HETATM   41  C41 UNL     1      -8.917   2.835   5.271  1.00  0.00     0.210 C 
HETATM   42  C42 UNL     1      -9.324   0.521   1.644  1.00  0.00     0.255 C 
HETATM   43  C43 UNL     1     -11.848   0.535   1.820  1.00  0.00     0.177 C 
HETATM   44  C44 UNL     1     -12.097  -0.916   1.378  1.00  0.00     0.036 C 
HETATM   45  C45 UNL     1     -11.882  -1.920   2.513  1.00  0.00     0.022 C 
HETATM   46  C46 UNL     1     -12.182  -3.343   2.055  1.00  0.00     0.124 C 
HETATM   47  C47 UNL     1     -11.971  -5.630   2.848  1.00  0.00     0.291 C 
HETATM   48  C48 UNL     1     -12.294   1.527   0.717  1.00  0.00     0.245 C 
HETATM   49  C49 UNL     1     -11.560   2.365  -1.531  1.00  0.00     0.035 A 
HETATM   50  C50 UNL     1     -12.572   3.305  -1.740  1.00  0.00     0.049 A 
HETATM   51  C51 UNL     1     -12.624   4.045  -2.935  1.00  0.00     0.067 A 
HETATM   52  C52 UNL     1     -11.638   3.857  -3.909  1.00  0.00     0.084 A 
HETATM   53  C53 UNL     1     -10.631   2.912  -3.710  1.00  0.00     0.040 A 
HETATM   54  C54 UNL     1     -10.589   2.178  -2.523  1.00  0.00     0.032 A 
HETATM   55  C55 UNL     1     -10.793   5.610  -5.130  1.00  0.00     0.210 C 
HETATM   56  C56 UNL     1     -13.710   5.039  -3.125  1.00  0.00     0.252 C 
HETATM   57  O1  UNL     1       7.684  -1.249  -3.466  1.00  0.00    -0.355 OA
HETATM   58  O2  UNL     1      11.598  -0.578   1.837  1.00  0.00    -0.271 OA
HETATM   59  O3  UNL     1      13.470   2.287  -1.694  1.00  0.00    -0.254 OA
HETATM   60  O4  UNL     1       7.509  -2.125   0.565  1.00  0.00    -0.268 OA
HETATM   61  O5  UNL     1       3.801  -3.860  -1.237  1.00  0.00    -0.271 OA
HETATM   62  O6  UNL     1       0.933   0.192   3.167  1.00  0.00    -0.355 OA
HETATM   63  O7  UNL     1      -0.269  -2.710   0.450  1.00  0.00    -0.268 OA
HETATM   64  O8  UNL     1      -2.724   0.428   2.984  1.00  0.00    -0.271 OA
HETATM   65  O9  UNL     1      -9.056   1.962   4.153  1.00  0.00    -0.355 OA
HETATM   66  O10 UNL     1      -9.325   0.095   0.491  1.00  0.00    -0.268 OA
HETATM   67  O11 UNL     1     -12.035  -6.134   1.739  1.00  0.00    -0.254 OA
HETATM   68  O12 UNL     1     -13.375   2.107   0.811  1.00  0.00    -0.271 OA
HETATM   69  O13 UNL     1     -11.692   4.500  -5.117  1.00  0.00    -0.355 OA
HETATM   70  O14 UNL     1     -13.521   6.143  -3.618  1.00  0.00    -0.268 OA
HETATM   71  N1  UNL     1      11.958   0.387  -0.255  1.00  0.00    -0.325 N 
HETATM   72  N2  UNL     1      13.768   4.345  -0.718  1.00  0.00    -0.348 N 
HETATM   73  N3  UNL     1      13.115   4.181  -2.874  1.00  0.00    -0.254 NA
HETATM   74  N4  UNL     1      14.226  -0.109   2.529  1.00  0.00     0.092 N 
HETATM   75  N5  UNL     1       7.089  -3.077  -1.460  1.00  0.00    -0.344 N 
HETATM   76  N6  UNL     1       8.535  -4.436  -3.394  1.00  0.00    -0.372 N 
ATOM     77  H6  UNL     1       8.440  -3.481  -3.049  1.00  0.00     0.161 HD
HETATM   78  N7  UNL     1       8.673  -5.801  -5.342  1.00  0.00    -0.279 NA
HETATM   79  N8  UNL     1       8.460  -3.602  -5.499  1.00  0.00    -0.279 NA
HETATM   80  N9  UNL     1       4.868  -2.684   0.459  1.00  0.00    -0.325 N 
HETATM   81  N10 UNL     1      -0.856  -0.681   1.300  1.00  0.00    -0.344 N 
HETATM   82  N11 UNL     1      -1.129   2.076   1.055  1.00  0.00    -0.372 N 
ATOM     83  H11 UNL     1      -1.390   1.230   1.561  1.00  0.00     0.161 HD
HETATM   84  N12 UNL     1      -0.895   3.055   3.072  1.00  0.00    -0.279 NA
HETATM   85  N13 UNL     1      -0.361   4.313   1.322  1.00  0.00    -0.279 NA
HETATM   86  N14 UNL     1      -4.506  -0.074   1.574  1.00  0.00    -0.325 N 
HETATM   87  N15 UNL     1     -10.491   0.790   2.312  1.00  0.00    -0.344 N 
HETATM   88  N16 UNL     1     -11.976  -4.294   3.129  1.00  0.00    -0.348 N 
HETATM   89  N17 UNL     1     -11.882  -6.382   3.975  1.00  0.00    -0.254 NA
HETATM   90  N18 UNL     1     -11.442   1.582  -0.369  1.00  0.00    -0.325 N 
HETATM   91  N19 UNL     1     -14.957   4.661  -2.704  1.00  0.00    -0.366 N 
HETATM   92  H53 UNL     1      12.612   0.984  -0.770  1.00  0.00     0.169 HD
HETATM   93  H54 UNL     1      13.335   5.257  -0.747  1.00  0.00     0.163 HD
HETATM   94  H55 UNL     1      13.014   3.584  -3.685  1.00  0.00     0.128 HD
HETATM   95  H56 UNL     1      13.628   5.032  -3.054  1.00  0.00     0.128 HD
HETATM   96  H57 UNL     1      14.400  -0.999   2.057  1.00  0.00     0.313 HD
HETATM   97  H58 UNL     1      13.523  -0.351   3.236  1.00  0.00     0.313 HD
HETATM   98  H59 UNL     1       7.503  -3.221  -2.385  1.00  0.00     0.163 HD
HETATM   99  H60 UNL     1       8.984  -6.593  -4.795  1.00  0.00     0.126 HD
HETATM  100  H61 UNL     1       9.234  -5.696  -6.179  1.00  0.00     0.126 HD
HETATM  101  H62 UNL     1       7.765  -3.766  -6.217  1.00  0.00     0.126 HD
HETATM  102  H63 UNL     1       8.227  -2.759  -4.974  1.00  0.00     0.126 HD
HETATM  103  H64 UNL     1       5.811  -2.464   0.790  1.00  0.00     0.169 HD
HETATM  104  H65 UNL     1      -0.539   0.213   1.681  1.00  0.00     0.163 HD
HETATM  105  H66 UNL     1      -1.412   3.840   3.445  1.00  0.00     0.126 HD
HETATM  106  H67 UNL     1      -1.370   2.184   3.328  1.00  0.00     0.126 HD
HETATM  107  H68 UNL     1       0.003   4.312   0.378  1.00  0.00     0.126 HD
HETATM  108  H69 UNL     1       0.324   4.692   1.966  1.00  0.00     0.126 HD
HETATM  109  H70 UNL     1      -4.730  -0.557   0.713  1.00  0.00     0.169 HD
HETATM  110  H71 UNL     1     -10.407   1.233   3.223  1.00  0.00     0.163 HD
HETATM  111  H72 UNL     1     -12.424  -4.085   4.010  1.00  0.00     0.163 HD
HETATM  112  H73 UNL     1     -11.250  -6.027   4.678  1.00  0.00     0.128 HD
HETATM  113  H74 UNL     1     -11.751  -7.365   3.767  1.00  0.00     0.128 HD
HETATM  114  H75 UNL     1     -10.626   0.967  -0.318  1.00  0.00     0.169 HD
HETATM  115  H76 UNL     1     -15.177   3.712  -2.433  1.00  0.00     0.159 HD
HETATM  116  H77 UNL     1     -15.720   5.292  -2.905  1.00  0.00     0.159 HD
ENDROOT
TORSDOF 36
