REMARK  17 active torsions:
REMARK  status: ('A' for Active; 'I' for Inactive)
REMARK    1  A    between atoms: C3_3  and  N5_34 
REMARK    2  A    between atoms: C5_5  and  C6_6 
REMARK       I    between atoms: C6_6  and  N2_30 
REMARK    3  A    between atoms: C7_7  and  C8_8 
REMARK    4  A    between atoms: C7_7  and  N2_30 
REMARK    5  A    between atoms: C8_8  and  C9_9 
REMARK    6  A    between atoms: C9_9  and  N3_31 
REMARK    7  A    between atoms: C9_9  and  N4_33 
REMARK    8  A    between atoms: C10_10  and  C11_11 
REMARK       I    between atoms: C10_10  and  N5_34 
REMARK    9  A    between atoms: C13_13  and  N7_36 
REMARK   10  A    between atoms: C16_16  and  C17_17 
REMARK       I    between atoms: C16_16  and  N7_36 
REMARK   11  A    between atoms: C19_19  and  N9_38 
REMARK   12  A    between atoms: C22_22  and  C23_23 
REMARK       I    between atoms: C22_22  and  N9_38 
REMARK   13  A    between atoms: C24_24  and  N12_42 
REMARK   14  A    between atoms: C26_26  and  C27_27 
REMARK   15  A    between atoms: C26_26  and  N12_42 
REMARK   16  A    between atoms: C26_26  and  O5_49 
REMARK   17  A    between atoms: C27_27  and  N13_44 
ROOT
HETATM    1  C16 UNL     1       2.112   3.203  -3.144  1.00  0.00     0.273 C 
HETATM    2  N7  UNL     1       1.267   2.517  -2.289  1.00  0.00    -0.320 N 
HETATM    3  O3  UNL     1       1.751   4.079  -3.925  1.00  0.00    -0.266 OA
HETATM    4  H28 UNL     1       1.652   1.760  -1.747  1.00  0.00     0.169 HD
ENDROOT
BRANCH   2   5
HETATM    5  C13 UNL     1      -0.090   2.735  -2.139  1.00  0.00     0.053 A 
HETATM    6  C12 UNL     1      -0.943   1.990  -1.285  1.00  0.00     0.066 A 
HETATM    7  C11 UNL     1      -2.239   2.491  -1.389  1.00  0.00     0.105 A 
HETATM    8  N6  UNL     1      -2.160   3.544  -2.286  1.00  0.00    -0.354 N 
HETATM    9  C14 UNL     1      -0.874   3.683  -2.744  1.00  0.00     0.120 A 
HETATM   10  C15 UNL     1      -3.261   4.383  -2.713  1.00  0.00     0.156 C 
BRANCH   7  11
HETATM   11  C10 UNL     1      -3.467   2.073  -0.714  1.00  0.00     0.273 C 
HETATM   12  N5  UNL     1      -3.393   0.810  -0.155  1.00  0.00    -0.320 N 
HETATM   13  H27 UNL     1      -2.559   0.265  -0.311  1.00  0.00     0.169 HD
HETATM   14  O2  UNL     1      -4.462   2.792  -0.678  1.00  0.00    -0.266 OA
BRANCH  12  15
HETATM   15  C3  UNL     1      -4.389   0.178   0.566  1.00  0.00     0.053 A 
HETATM   16  C2  UNL     1      -5.622   0.662   0.927  1.00  0.00     0.120 A 
HETATM   17  N1  UNL     1      -6.270  -0.299   1.664  1.00  0.00    -0.354 N 
HETATM   18  C1  UNL     1      -7.536  -0.070   2.327  1.00  0.00     0.156 C 
HETATM   19  C5  UNL     1      -5.494  -1.439   1.736  1.00  0.00     0.104 A 
HETATM   20  C4  UNL     1      -4.301  -1.131   1.094  1.00  0.00     0.066 A 
BRANCH  19  21
HETATM   21  C6  UNL     1      -5.807  -2.696   2.388  1.00  0.00     0.268 C 
HETATM   22  N2  UNL     1      -7.127  -3.085   2.288  1.00  0.00    -0.355 N 
HETATM   23  H23 UNL     1      -7.641  -2.679   1.513  1.00  0.00     0.162 HD
HETATM   24  O1  UNL     1      -4.959  -3.392   2.935  1.00  0.00    -0.266 OA
BRANCH  22  25
HETATM   25  C7  UNL     1      -7.528  -4.422   2.687  1.00  0.00     0.130 C 
BRANCH  25  26
HETATM   26  C8  UNL     1      -9.031  -4.534   2.909  1.00  0.00     0.089 C 
BRANCH  26  27
HETATM   27  C9  UNL     1      -9.779  -4.356   1.608  1.00  0.00     0.049 C 
BRANCH  27  28
HETATM   28  N3  UNL     1      -9.956  -5.331   0.781  1.00  0.00    -0.393 N 
HETATM   29  H24 UNL     1      -9.535  -6.198   1.134  1.00  0.00     0.157 HD
ATOM     30  H3  UNL     1     -10.450  -5.250  -0.108  1.00  0.00     0.157 HD
ENDBRANCH  27  28
BRANCH  27  31
HETATM   31  N4  UNL     1     -10.269  -3.130   1.277  1.00  0.00    -0.293 NA
HETATM   32  H25 UNL     1     -10.916  -3.203   0.494  1.00  0.00     0.125 HD
HETATM   33  H26 UNL     1     -10.660  -2.591   2.042  1.00  0.00     0.125 HD
ENDBRANCH  27  31
ENDBRANCH  26  27
ENDBRANCH  25  26
ENDBRANCH  22  25
ENDBRANCH  19  21
ENDBRANCH  12  15
ENDBRANCH   7  11
ENDBRANCH   2   5
BRANCH   1  34
HETATM   34  C17 UNL     1       3.509   2.776  -3.062  1.00  0.00     0.105 A 
HETATM   35  C18 UNL     1       4.167   2.043  -2.077  1.00  0.00     0.066 A 
HETATM   36  C19 UNL     1       5.526   1.888  -2.448  1.00  0.00     0.053 A 
HETATM   37  C20 UNL     1       5.682   2.532  -3.649  1.00  0.00     0.120 A 
HETATM   38  N8  UNL     1       4.475   3.076  -4.010  1.00  0.00    -0.354 N 
HETATM   39  C21 UNL     1       4.266   3.834  -5.227  1.00  0.00     0.156 C 
BRANCH  36  40
HETATM   40  N9  UNL     1       6.477   1.216  -1.711  1.00  0.00    -0.319 N 
HETATM   41  C22 UNL     1       7.807   1.049  -2.044  1.00  0.00     0.290 C 
HETATM   42  O4  UNL     1       8.364   1.469  -3.053  1.00  0.00    -0.264 OA
HETATM   43  H29 UNL     1       6.184   0.802  -0.833  1.00  0.00     0.169 HD
BRANCH  41  44
HETATM   44  C23 UNL     1       8.532   0.288  -1.039  1.00  0.00     0.176 A 
HETATM   45  N10 UNL     1       8.009  -0.207   0.075  1.00  0.00    -0.323 N 
HETATM   46  C24 UNL     1       9.055  -0.842   0.706  1.00  0.00     0.124 A 
ATOM     47  H10 UNL     1       7.043  -0.133   0.394  1.00  0.00     0.169 HD
HETATM   48  C25 UNL     1      10.212  -0.732  -0.023  1.00  0.00     0.138 A 
HETATM   49  N11 UNL     1       9.869  -0.014  -1.130  1.00  0.00    -0.344 N 
HETATM   50  H30 UNL     1      10.468   0.262  -1.898  1.00  0.00     0.167 HD
BRANCH  46  51
HETATM   51  N12 UNL     1       9.018  -1.521   1.918  1.00  0.00    -0.321 N 
ATOM     52  H12 UNL     1       9.861  -1.939   2.313  1.00  0.00     0.169 HD
BRANCH  51  53
HETATM   53  C26 UNL     1       7.879  -1.607   2.531  1.00  0.00     0.162 C 
BRANCH  53  54
HETATM   54  C27 UNL     1       7.733  -2.327   3.851  1.00  0.00     0.048 C 
HETATM   55  C28 UNL     1       6.593  -2.254   4.551  1.00  0.00     0.040 C 
BRANCH  54  56
HETATM   56  N13 UNL     1       8.841  -3.027   4.303  1.00  0.00    -0.300 NA
HETATM   57  H31 UNL     1       9.687  -2.695   3.835  1.00  0.00     0.124 HD
HETATM   58  H32 UNL     1       8.926  -3.028   5.314  1.00  0.00     0.124 HD
ENDBRANCH  54  56
ENDBRANCH  53  54
BRANCH  53  59
HETATM   59  O5  UNL     1       6.715  -1.082   2.094  1.00  0.00    -0.345 OA
HETATM   60  H33 UNL     1       6.883  -0.640   1.241  1.00  0.00     0.219 HD
ENDBRANCH  53  59
ENDBRANCH  51  53
ENDBRANCH  46  51
ENDBRANCH  41  44
ENDBRANCH  36  40
ENDBRANCH   1  34
TORSDOF 17
