REMARK  10 active torsions:
REMARK  status: ('A' for Active; 'I' for Inactive)
REMARK    1  A    between atoms: C6_6  and  C7_7 
REMARK       I    between atoms: C7_7  and  N1_29 
REMARK    2  A    between atoms: C8_8  and  C9_9 
REMARK    3  A    between atoms: C8_8  and  N1_29 
REMARK    4  A    between atoms: C9_9  and  O2_25 
REMARK    5  A    between atoms: C11_11  and  C12_12 
REMARK       I    between atoms: C12_12  and  N3_31 
REMARK    6  A    between atoms: C13_13  and  N3_31 
REMARK    7  A    between atoms: C20_20  and  C21_21 
REMARK       I    between atoms: C21_21  and  N5_33 
REMARK    8  A    between atoms: C22_22  and  C23_23 
REMARK    9  A    between atoms: C22_22  and  N5_33 
REMARK   10  A    between atoms: C23_23  and  O5_28 
ROOT
HETATM    1  C12 UNL     1      -0.266   0.294   0.233  1.00  0.00     0.272 C 
HETATM    2  O3  UNL     1       0.079   1.368  -0.244  1.00  0.00    -0.266 OA
HETATM    3  N3  UNL     1       0.588  -0.656   0.767  1.00  0.00    -0.322 N 
HETATM    4  H21 UNL     1       0.161  -1.377   1.331  1.00  0.00     0.169 HD
ENDROOT
BRANCH   1   5
HETATM    5  C11 UNL     1      -1.667  -0.082   0.319  1.00  0.00     0.102 A 
HETATM    6  C10 UNL     1      -2.765   0.757   0.409  1.00  0.00     0.049 A 
HETATM    7  C4  UNL     1      -3.940  -0.037   0.460  1.00  0.00    -0.006 A 
HETATM    8  C3  UNL     1      -3.538  -1.367   0.364  1.00  0.00     0.043 A 
HETATM    9  C5  UNL     1      -5.313   0.252   0.571  1.00  0.00     0.030 A 
HETATM   10  C2  UNL     1      -4.441  -2.436   0.373  1.00  0.00     0.031 A 
HETATM   11  N2  UNL     1      -2.165  -1.365   0.262  1.00  0.00    -0.351 N 
HETATM   12  C1  UNL     1      -5.803  -2.130   0.484  1.00  0.00     0.019 A 
HETATM   13  C6  UNL     1      -6.240  -0.803   0.570  1.00  0.00     0.033 A 
HETATM   14  H20 UNL     1      -1.607  -2.195   0.119  1.00  0.00     0.166 HD
BRANCH  13  15
HETATM   15  C7  UNL     1      -7.684  -0.463   0.688  1.00  0.00     0.251 C 
HETATM   16  O1  UNL     1      -8.038   0.552   1.277  1.00  0.00    -0.268 OA
HETATM   17  N1  UNL     1      -8.567  -1.323   0.068  1.00  0.00    -0.355 N 
HETATM   18  H19 UNL     1      -8.213  -2.009  -0.584  1.00  0.00     0.162 HD
BRANCH  17  19
HETATM   19  C8  UNL     1      -9.988  -1.040   0.050  1.00  0.00     0.148 C 
BRANCH  19  20
HETATM   20  C9  UNL     1     -10.370   0.049  -0.953  1.00  0.00     0.183 C 
BRANCH  20  21
HETATM   21  O2  UNL     1     -11.777   0.267  -0.938  1.00  0.00    -0.399 OA
HETATM   22  H17 UNL     1     -11.981   0.725  -0.103  1.00  0.00     0.209 HD
ENDBRANCH  20  21
ENDBRANCH  19  20
ENDBRANCH  17  19
ENDBRANCH  13  15
ENDBRANCH   1   5
BRANCH   3  23
HETATM   23  C13 UNL     1       2.000  -0.643   0.763  1.00  0.00     0.037 A 
HETATM   24  C14 UNL     1       2.760   0.286   0.043  1.00  0.00     0.059 A 
HETATM   25  C15 UNL     1       4.159   0.187   0.110  1.00  0.00     0.045 A 
HETATM   26  C16 UNL     1       4.814  -0.789   0.852  1.00  0.00    -0.007 A 
HETATM   27  N4  UNL     1       5.128   0.956  -0.487  1.00  0.00    -0.351 N 
HETATM   28  C17 UNL     1       4.043  -1.722   1.566  1.00  0.00     0.016 A 
HETATM   29  C19 UNL     1       6.211  -0.577   0.682  1.00  0.00     0.049 A 
HETATM   30  C18 UNL     1       2.644  -1.637   1.511  1.00  0.00     0.030 A 
HETATM   31  C20 UNL     1       6.391   0.515  -0.151  1.00  0.00     0.102 A 
HETATM   32  H22 UNL     1       4.952   1.749  -1.093  1.00  0.00     0.166 HD
BRANCH  31  33
HETATM   33  C21 UNL     1       7.572   1.174  -0.661  1.00  0.00     0.268 C 
HETATM   34  O4  UNL     1       7.510   2.109  -1.455  1.00  0.00    -0.266 OA
HETATM   35  N5  UNL     1       8.771   0.684  -0.205  1.00  0.00    -0.354 N 
HETATM   36  H23 UNL     1       8.756  -0.016   0.523  1.00  0.00     0.162 HD
BRANCH  35  37
HETATM   37  C22 UNL     1      10.049   1.307  -0.517  1.00  0.00     0.149 C 
BRANCH  37  38
HETATM   38  C23 UNL     1      10.437   1.205  -1.997  1.00  0.00     0.183 C 
BRANCH  38  39
HETATM   39  O5  UNL     1       9.838   2.236  -2.775  1.00  0.00    -0.399 OA
HETATM   40  H18 UNL     1       8.899   2.305  -2.494  1.00  0.00     0.209 HD
ENDBRANCH  38  39
ENDBRANCH  37  38
ENDBRANCH  35  37
ENDBRANCH  31  33
ENDBRANCH   3  23
TORSDOF 10
