REMARK  26 active torsions:
REMARK  status: ('A' for Active; 'I' for Inactive)
REMARK    1  A    between atoms: C4_4  and  C5_5 
REMARK       I    between atoms: C5_5  and  N3_60 
REMARK    2  A    between atoms: C6_6  and  N3_60 
REMARK    3  A    between atoms: C8_8  and  C10_10 
REMARK       I    between atoms: C10_10  and  N5_62 
REMARK    4  A    between atoms: C11_11  and  N5_62 
REMARK    5  A    between atoms: C13_13  and  C14_14 
REMARK       I    between atoms: C14_14  and  N8_66 
REMARK    6  A    between atoms: C15_15  and  N8_66 
REMARK    7  A    between atoms: C17_17  and  C19_19 
REMARK       I    between atoms: C19_19  and  N10_68 
REMARK    8  A    between atoms: C20_20  and  C21_21 
REMARK    9  A    between atoms: C20_20  and  N10_68 
REMARK   10  A    between atoms: C21_21  and  C22_22 
REMARK   11  A    between atoms: C22_22  and  C23_23 
REMARK       I    between atoms: C23_23  and  N11_69 
REMARK   12  A    between atoms: C24_24  and  N11_69 
REMARK   13  A    between atoms: C26_26  and  C27_27 
REMARK       I    between atoms: C27_27  and  N14_73 
REMARK   14  A    between atoms: C28_28  and  N14_73 
REMARK   15  A    between atoms: C30_30  and  C32_32 
REMARK       I    between atoms: C32_32  and  N16_75 
REMARK   16  A    between atoms: C33_33  and  N16_75 
REMARK   17  A    between atoms: C35_35  and  C36_36 
REMARK       I    between atoms: C36_36  and  N19_79 
REMARK   18  A    between atoms: C37_37  and  N19_79 
REMARK   19  A    between atoms: C39_39  and  C41_41 
REMARK       I    between atoms: C41_41  and  N21_81 
REMARK   20  A    between atoms: C42_42  and  C43_43 
REMARK   21  A    between atoms: C42_42  and  N21_81 
REMARK   22  A    between atoms: C43_43  and  C44_44 
REMARK       I    between atoms: C44_44  and  N22_82 
REMARK   23  A    between atoms: C45_45  and  C46_46 
REMARK   24  A    between atoms: C45_45  and  N22_82 
REMARK   25  A    between atoms: C46_46  and  C47_47 
REMARK   26  A    between atoms: C47_47  and  N23_83 
ROOT
HETATM    1  C24 UNL     1       2.481  -0.103   3.961  1.00  0.00     0.125 A 
HETATM    2  C25 UNL     1       2.690  -1.432   4.240  1.00  0.00     0.140 A 
HETATM    3  C26 UNL     1       1.027  -1.171   2.797  1.00  0.00     0.178 A 
HETATM    4  C53 UNL     1       1.580  -3.534   3.448  1.00  0.00     0.157 C 
HETATM    5  N12 UNL     1       1.757  -2.103   3.494  1.00  0.00    -0.339 N 
HETATM    6  N13 UNL     1       1.461   0.049   3.075  1.00  0.00    -0.323 N 
ATOM      7  H13 UNL     1       1.102   0.927   2.700  1.00  0.00     0.169 HD
ENDROOT
BRANCH   1   8
HETATM    8  N11 UNL     1       3.199   0.935   4.496  1.00  0.00    -0.312 N 
HETATM    9  C23 UNL     1       2.970   2.270   4.210  1.00  0.00     0.223 C 
HETATM   10  O5  UNL     1       2.101   2.728   3.476  1.00  0.00    -0.273 OA
HETATM   11  H64 UNL     1       3.941   0.688   5.135  1.00  0.00     0.170 HD
BRANCH   9  12
HETATM   12  C22 UNL     1       3.943   3.164   4.962  1.00  0.00     0.105 C 
BRANCH  12  13
HETATM   13  C21 UNL     1       3.909   4.624   4.509  1.00  0.00     0.029 C 
BRANCH  13  14
HETATM   14  C20 UNL     1       4.371   4.842   3.065  1.00  0.00     0.123 C 
BRANCH  14  15
HETATM   15  N10 UNL     1       5.680   4.285   2.793  1.00  0.00    -0.356 N 
HETATM   16  C19 UNL     1       6.842   4.868   3.247  1.00  0.00     0.268 C 
HETATM   17  O4  UNL     1       6.826   5.874   3.951  1.00  0.00    -0.266 OA
HETATM   18  H63 UNL     1       5.743   3.554   2.099  1.00  0.00     0.162 HD
BRANCH  16  19
HETATM   19  C17 UNL     1       8.066   4.204   2.826  1.00  0.00     0.104 A 
HETATM   20  C18 UNL     1       8.243   2.970   2.206  1.00  0.00     0.066 A 
HETATM   21  C15 UNL     1       9.625   2.754   2.001  1.00  0.00     0.053 A 
HETATM   22  C16 UNL     1      10.278   3.852   2.504  1.00  0.00     0.120 A 
HETATM   23  N9  UNL     1       9.339   4.719   3.004  1.00  0.00    -0.354 N 
HETATM   24  C54 UNL     1       9.662   5.993   3.613  1.00  0.00     0.156 C 
BRANCH  21  25
HETATM   25  N8  UNL     1      10.284   1.692   1.425  1.00  0.00    -0.319 N 
HETATM   26  C14 UNL     1       9.700   0.559   0.894  1.00  0.00     0.290 C 
HETATM   27  O3  UNL     1       8.495   0.318   0.871  1.00  0.00    -0.264 OA
HETATM   28  H62 UNL     1      11.301   1.728   1.366  1.00  0.00     0.169 HD
BRANCH  26  29
HETATM   29  C13 UNL     1      10.702  -0.347   0.350  1.00  0.00     0.178 A 
HETATM   30  N6  UNL     1      10.492  -1.552  -0.274  1.00  0.00    -0.339 N 
HETATM   31  C12 UNL     1      11.714  -2.063  -0.625  1.00  0.00     0.140 A 
HETATM   32  C55 UNL     1       9.214  -2.173  -0.523  1.00  0.00     0.157 C 
HETATM   33  C11 UNL     1      12.627  -1.131  -0.193  1.00  0.00     0.125 A 
HETATM   34  N7  UNL     1      11.999  -0.081   0.401  1.00  0.00    -0.323 N 
ATOM     35  H7  UNL     1      12.439   0.746   0.805  1.00  0.00     0.169 HD
BRANCH  33  36
HETATM   36  N5  UNL     1      13.986  -1.238  -0.344  1.00  0.00    -0.306 N 
HETATM   37  C10 UNL     1      14.902  -0.315   0.121  1.00  0.00     0.274 C 
HETATM   38  O2  UNL     1      14.619   0.696   0.757  1.00  0.00    -0.266 OA
HETATM   39  H61 UNL     1      14.319  -2.073  -0.794  1.00  0.00     0.170 HD
BRANCH  37  40
HETATM   40  C8  UNL     1      16.290  -0.659  -0.194  1.00  0.00     0.105 A 
HETATM   41  C9  UNL     1      16.803  -1.575  -1.109  1.00  0.00     0.066 A 
HETATM   42  C6  UNL     1      18.218  -1.544  -1.049  1.00  0.00     0.053 A 
HETATM   43  C7  UNL     1      18.552  -0.606  -0.107  1.00  0.00     0.120 A 
HETATM   44  N4  UNL     1      17.395  -0.066   0.396  1.00  0.00    -0.354 N 
HETATM   45  C56 UNL     1      17.366   0.965   1.414  1.00  0.00     0.156 C 
BRANCH  42  46
HETATM   46  N3  UNL     1      19.061  -2.321  -1.814  1.00  0.00    -0.319 N 
HETATM   47  C5  UNL     1      20.443  -2.320  -1.786  1.00  0.00     0.290 C 
HETATM   48  O1  UNL     1      21.148  -1.621  -1.065  1.00  0.00    -0.264 OA
HETATM   49  H60 UNL     1      18.648  -2.969  -2.479  1.00  0.00     0.169 HD
BRANCH  47  50
HETATM   50  C4  UNL     1      20.988  -3.278  -2.743  1.00  0.00     0.176 A 
HETATM   51  N1  UNL     1      22.316  -3.536  -2.990  1.00  0.00    -0.342 N 
HETATM   52  C1  UNL     1      23.443  -2.905  -2.347  1.00  0.00     0.157 C 
HETATM   53  C2  UNL     1      22.387  -4.500  -3.958  1.00  0.00     0.109 A 
HETATM   54  C3  UNL     1      21.081  -4.795  -4.267  1.00  0.00     0.107 A 
HETATM   55  N2  UNL     1      20.220  -4.039  -3.515  1.00  0.00    -0.346 N 
ATOM     56  H2  UNL     1      19.201  -4.057  -3.542  1.00  0.00     0.167 HD
ENDBRANCH  47  50
ENDBRANCH  42  46
ENDBRANCH  37  40
ENDBRANCH  33  36
ENDBRANCH  26  29
ENDBRANCH  21  25
ENDBRANCH  16  19
ENDBRANCH  14  15
ENDBRANCH  13  14
ENDBRANCH  12  13
ENDBRANCH   9  12
ENDBRANCH   1   8
BRANCH   3  57
HETATM   57  C27 UNL     1      -0.072  -1.413   1.872  1.00  0.00     0.290 C 
HETATM   58  N14 UNL     1      -0.539  -0.229   1.335  1.00  0.00    -0.319 N 
HETATM   59  H65 UNL     1      -0.062   0.612   1.661  1.00  0.00     0.169 HD
HETATM   60  O6  UNL     1      -0.507  -2.534   1.626  1.00  0.00    -0.264 OA
BRANCH  58  61
HETATM   61  C28 UNL     1      -1.556  -0.095   0.419  1.00  0.00     0.053 A 
HETATM   62  C29 UNL     1      -1.957   1.127  -0.070  1.00  0.00     0.120 A 
HETATM   63  N15 UNL     1      -2.966   0.917  -0.974  1.00  0.00    -0.354 N 
HETATM   64  C30 UNL     1      -3.276  -0.427  -1.029  1.00  0.00     0.105 A 
HETATM   65  C52 UNL     1      -3.540   1.963  -1.796  1.00  0.00     0.156 C 
HETATM   66  C31 UNL     1      -2.365  -1.071  -0.203  1.00  0.00     0.066 A 
BRANCH  64  67
HETATM   67  C32 UNL     1      -4.311  -1.050  -1.833  1.00  0.00     0.274 C 
HETATM   68  N16 UNL     1      -5.542  -0.456  -1.666  1.00  0.00    -0.306 N 
HETATM   69  H66 UNL     1      -5.660   0.244  -0.950  1.00  0.00     0.170 HD
HETATM   70  O7  UNL     1      -4.089  -2.023  -2.544  1.00  0.00    -0.266 OA
BRANCH  68  71
HETATM   71  C33 UNL     1      -6.694  -0.813  -2.311  1.00  0.00     0.125 A 
HETATM   72  C34 UNL     1      -6.904  -1.746  -3.292  1.00  0.00     0.140 A 
HETATM   73  N17 UNL     1      -8.241  -1.683  -3.567  1.00  0.00    -0.339 N 
HETATM   74  C35 UNL     1      -8.795  -0.723  -2.752  1.00  0.00     0.178 A 
HETATM   75  C51 UNL     1      -8.935  -2.489  -4.541  1.00  0.00     0.157 C 
HETATM   76  N18 UNL     1      -7.859  -0.174  -1.985  1.00  0.00    -0.323 N 
ATOM     77  H18 UNL     1      -7.983   0.569  -1.297  1.00  0.00     0.169 HD
BRANCH  74  78
HETATM   78  C36 UNL     1     -10.196  -0.325  -2.693  1.00  0.00     0.290 C 
HETATM   79  N19 UNL     1     -10.399   0.680  -1.766  1.00  0.00    -0.319 N 
HETATM   80  H67 UNL     1      -9.568   0.991  -1.270  1.00  0.00     0.169 HD
HETATM   81  O8  UNL     1     -11.074  -0.836  -3.385  1.00  0.00    -0.264 OA
BRANCH  79  82
HETATM   82  C37 UNL     1     -11.602   1.278  -1.468  1.00  0.00     0.053 A 
HETATM   83  C38 UNL     1     -11.732   2.272  -0.529  1.00  0.00     0.120 A 
HETATM   84  N20 UNL     1     -13.052   2.642  -0.472  1.00  0.00    -0.354 N 
HETATM   85  C39 UNL     1     -13.795   1.901  -1.375  1.00  0.00     0.104 A 
HETATM   86  C50 UNL     1     -13.564   3.683   0.396  1.00  0.00     0.156 C 
HETATM   87  C40 UNL     1     -12.892   1.045  -1.997  1.00  0.00     0.066 A 
BRANCH  85  88
HETATM   88  C41 UNL     1     -15.228   2.022  -1.565  1.00  0.00     0.268 C 
HETATM   89  N21 UNL     1     -15.704   1.481  -2.740  1.00  0.00    -0.355 N 
HETATM   90  H68 UNL     1     -15.002   1.262  -3.437  1.00  0.00     0.162 HD
HETATM   91  O9  UNL     1     -15.980   2.526  -0.735  1.00  0.00    -0.266 OA
BRANCH  89  92
HETATM   92  C42 UNL     1     -17.054   1.675  -3.244  1.00  0.00     0.132 C 
BRANCH  92  93
HETATM   93  C43 UNL     1     -18.207   1.431  -2.276  1.00  0.00     0.122 C 
BRANCH  93  94
HETATM   94  C44 UNL     1     -18.096   0.093  -1.585  1.00  0.00     0.219 C 
HETATM   95  N22 UNL     1     -17.576   0.147  -0.314  1.00  0.00    -0.361 N 
HETATM   96  H69 UNL     1     -17.127   1.033  -0.064  1.00  0.00     0.162 HD
HETATM   97  O10 UNL     1     -18.450  -0.964  -2.106  1.00  0.00    -0.274 OA
BRANCH  95  98
HETATM   98  C45 UNL     1     -17.143  -1.028   0.414  1.00  0.00     0.124 C 
BRANCH  98  99
HETATM   99  C46 UNL     1     -18.288  -1.772   1.108  1.00  0.00     0.047 C 
BRANCH  99 100
HETATM  100  C47 UNL     1     -18.628  -3.126   0.480  1.00  0.00     0.235 C 
BRANCH 100 101
HETATM  101  N23 UNL     1     -19.383  -3.008  -0.814  1.00  0.00    -0.079 N 
HETATM  102  C48 UNL     1     -19.253  -4.235  -1.667  1.00  0.00     0.269 C 
HETATM  103  C49 UNL     1     -20.817  -2.600  -0.652  1.00  0.00     0.269 C 
HETATM  104  H70 UNL     1     -18.939  -2.246  -1.373  1.00  0.00     0.278 HD
ENDBRANCH 100 101
ENDBRANCH  99 100
ENDBRANCH  98  99
ENDBRANCH  95  98
ENDBRANCH  93  94
ENDBRANCH  92  93
ENDBRANCH  89  92
ENDBRANCH  85  88
ENDBRANCH  79  82
ENDBRANCH  74  78
ENDBRANCH  68  71
ENDBRANCH  64  67
ENDBRANCH  58  61
ENDBRANCH   3  57
TORSDOF 26
