REMARK  25 active torsions:
REMARK  status: ('A' for Active; 'I' for Inactive)
REMARK    1  A    between atoms: C4_4  and  C6_6 
REMARK    2  A    between atoms: C6_6  and  N2_49 
REMARK    3  A    between atoms: C7_7  and  C8_8 
REMARK       I    between atoms: C7_7  and  N2_49 
REMARK    4  A    between atoms: C10_10  and  C11_11 
REMARK    5  A    between atoms: C10_10  and  N3_50 
REMARK    6  A    between atoms: C11_11  and  C12_12 
REMARK    7  A    between atoms: C12_12  and  C13_13 
REMARK    8  A    between atoms: C13_13  and  N6_54 
REMARK    9  A    between atoms: C15_15  and  N9_58 
REMARK   10  A    between atoms: C16_16  and  C17_17 
REMARK       I    between atoms: C16_16  and  N9_58 
REMARK   11  A    between atoms: C17_17  and  C18_18 
REMARK   12  A    between atoms: C20_20  and  C23_23 
REMARK   13  A    between atoms: C25_25  and  C28_28 
REMARK   14  A    between atoms: C28_28  and  C29_29 
REMARK       I    between atoms: C29_29  and  N12_63 
REMARK   15  A    between atoms: C30_30  and  N12_63 
REMARK   16  A    between atoms: C32_32  and  C33_33 
REMARK   17  A    between atoms: C32_32  and  N13_64 
REMARK   18  A    between atoms: C33_33  and  C34_34 
REMARK   19  A    between atoms: C34_34  and  C35_35 
REMARK   20  A    between atoms: C35_35  and  N16_68 
REMARK   21  A    between atoms: C37_37  and  C38_38 
REMARK       I    between atoms: C38_38  and  N19_72 
REMARK   22  A    between atoms: C39_39  and  C40_40 
REMARK   23  A    between atoms: C39_39  and  N19_72 
REMARK   24  A    between atoms: C42_42  and  O5_77 
REMARK   25  A    between atoms: C46_46  and  O5_77 
ROOT
HETATM    1  C23 UNL     1      -1.281  -3.464   0.834  1.00  0.00    -0.021 A 
HETATM    2  C24 UNL     1      -1.765  -2.442   1.661  1.00  0.00     0.037 A 
HETATM    3  C25 UNL     1      -1.510  -2.485   3.029  1.00  0.00     0.018 A 
HETATM    4  C26 UNL     1      -0.327  -4.455   2.800  1.00  0.00     0.089 A 
HETATM    5  C27 UNL     1      -0.547  -4.493   1.434  1.00  0.00     0.029 A 
HETATM    6  N11 UNL     1      -0.783  -3.474   3.607  1.00  0.00    -0.369 N 
ATOM      7  H11 UNL     1      -0.589  -3.476   4.608  1.00  0.00     0.165 HD
ENDROOT
BRANCH   1   8
HETATM    8  C20 UNL     1      -1.531  -3.451  -0.614  1.00  0.00    -0.010 A 
HETATM    9  C19 UNL     1      -2.082  -4.547  -1.278  1.00  0.00     0.100 A 
HETATM   10  N10 UNL     1      -2.339  -4.599  -2.610  1.00  0.00    -0.368 N 
HETATM   11  C18 UNL     1      -2.026  -3.503  -3.344  1.00  0.00     0.017 A 
ATOM     12  H10 UNL     1      -2.750  -5.427  -3.040  1.00  0.00     0.165 HD
HETATM   13  C22 UNL     1      -1.485  -2.355  -2.778  1.00  0.00     0.026 A 
HETATM   14  C21 UNL     1      -1.235  -2.335  -1.405  1.00  0.00     0.015 A 
BRANCH  11  15
HETATM   15  C17 UNL     1      -2.357  -3.561  -4.810  1.00  0.00     0.160 C 
BRANCH  15  16
HETATM   16  C16 UNL     1      -3.811  -3.227  -5.076  1.00  0.00     0.228 C 
HETATM   17  N9  UNL     1      -4.689  -4.042  -4.395  1.00  0.00    -0.311 N 
HETATM   18  H43 UNL     1      -4.322  -4.692  -3.704  1.00  0.00     0.170 HD
HETATM   19  O2  UNL     1      -4.115  -2.331  -5.860  1.00  0.00    -0.273 OA
BRANCH  17  20
HETATM   20  C15 UNL     1      -6.056  -3.981  -4.469  1.00  0.00     0.138 A 
HETATM   21  C14 UNL     1      -6.869  -3.202  -5.253  1.00  0.00     0.157 A 
HETATM   22  N6  UNL     1      -8.125  -3.580  -4.890  1.00  0.00    -0.283 N 
HETATM   23  N8  UNL     1      -8.099  -4.528  -3.936  1.00  0.00    -0.019 NA
HETATM   24  N7  UNL     1      -6.824  -4.789  -3.677  1.00  0.00    -0.268 N 
ATOM     25  H7  UNL     1      -6.477  -5.473  -3.004  1.00  0.00     0.186 HD
BRANCH  22  26
HETATM   26  C13 UNL     1      -9.388  -3.070  -5.377  1.00  0.00     0.146 C 
BRANCH  26  27
HETATM   27  C12 UNL     1     -10.226  -4.109  -6.131  1.00  0.00     0.023 C 
BRANCH  27  28
HETATM   28  C11 UNL     1      -9.618  -4.606  -7.452  1.00  0.00     0.023 C 
BRANCH  28  29
HETATM   29  C10 UNL     1     -10.044  -3.805  -8.687  1.00  0.00     0.146 C 
BRANCH  29  30
HETATM   30  N3  UNL     1      -9.613  -2.428  -8.690  1.00  0.00    -0.284 N 
HETATM   31  C9  UNL     1     -10.387  -1.309  -8.691  1.00  0.00     0.144 A 
HETATM   32  C8  UNL     1      -9.477  -0.272  -8.658  1.00  0.00     0.130 A 
HETATM   33  N5  UNL     1      -8.206  -0.801  -8.639  1.00  0.00    -0.278 N 
HETATM   34  N4  UNL     1      -8.306  -2.123  -8.669  1.00  0.00    -0.020 NA
ATOM     35  H5  UNL     1      -7.337  -0.268  -8.607  1.00  0.00     0.184 HD
BRANCH  32  36
HETATM   36  C7  UNL     1      -9.759   1.155  -8.630  1.00  0.00     0.271 C 
HETATM   37  N2  UNL     1      -8.632   1.941  -8.597  1.00  0.00    -0.350 N 
HETATM   38  H42 UNL     1      -7.745   1.477  -8.432  1.00  0.00     0.163 HD
HETATM   39  O1  UNL     1     -10.901   1.604  -8.617  1.00  0.00    -0.266 OA
BRANCH  37  40
HETATM   40  C6  UNL     1      -8.701   3.363  -8.350  1.00  0.00     0.179 C 
BRANCH  40  41
HETATM   41  C4  UNL     1      -8.647   3.671  -6.872  1.00  0.00     0.026 A 
HETATM   42  C5  UNL     1      -9.821   3.766  -6.127  1.00  0.00     0.027 A 
HETATM   43  C1  UNL     1      -9.733   4.012  -4.760  1.00  0.00     0.003 A 
HETATM   44  C2  UNL     1      -8.481   4.147  -4.173  1.00  0.00     0.017 A 
HETATM   45  C3  UNL     1      -7.363   4.026  -4.980  1.00  0.00     0.088 A 
HETATM   46  N1  UNL     1      -7.417   3.789  -6.309  1.00  0.00    -0.368 N 
ATOM     47  H1  UNL     1      -6.568   3.702  -6.867  1.00  0.00     0.165 HD
ENDBRANCH  40  41
ENDBRANCH  37  40
ENDBRANCH  32  36
ENDBRANCH  29  30
ENDBRANCH  28  29
ENDBRANCH  27  28
ENDBRANCH  26  27
ENDBRANCH  22  26
ENDBRANCH  17  20
ENDBRANCH  15  16
ENDBRANCH  11  15
ENDBRANCH   1   8
BRANCH   3  48
HETATM   48  C28 UNL     1      -1.985  -1.386   3.939  1.00  0.00     0.160 C 
BRANCH  48  49
HETATM   49  C29 UNL     1      -0.904  -0.354   4.190  1.00  0.00     0.228 C 
HETATM   50  N12 UNL     1       0.248  -0.892   4.722  1.00  0.00    -0.311 N 
HETATM   51  H44 UNL     1       0.326  -1.903   4.805  1.00  0.00     0.170 HD
HETATM   52  O3  UNL     1      -1.106   0.837   3.961  1.00  0.00    -0.273 OA
BRANCH  50  53
HETATM   53  C30 UNL     1       1.368  -0.186   5.073  1.00  0.00     0.138 A 
HETATM   54  C31 UNL     1       1.611   1.164   5.041  1.00  0.00     0.157 A 
HETATM   55  N13 UNL     1       2.885   1.277   5.504  1.00  0.00    -0.281 N 
HETATM   56  N14 UNL     1       3.402   0.074   5.819  1.00  0.00    -0.019 NA
HETATM   57  N15 UNL     1       2.476  -0.835   5.547  1.00  0.00    -0.268 N 
ATOM     58  H15 UNL     1       2.573  -1.843   5.670  1.00  0.00     0.186 HD
BRANCH  55  59
HETATM   59  C32 UNL     1       3.662   2.479   5.701  1.00  0.00     0.183 C 
BRANCH  59  60
HETATM   60  C33 UNL     1       4.544   2.826   4.506  1.00  0.00     0.191 C 
HETATM   61  F4  UNL     1       3.731   3.112   3.443  1.00  0.00    -0.248 F 
BRANCH  60  62
HETATM   62  C34 UNL     1       5.534   1.754   4.038  1.00  0.00     0.060 C 
BRANCH  62  63
HETATM   63  C35 UNL     1       6.527   1.266   5.090  1.00  0.00     0.148 C 
BRANCH  63  64
HETATM   64  N16 UNL     1       7.422   2.304   5.548  1.00  0.00    -0.284 N 
HETATM   65  C36 UNL     1       8.692   2.570   5.132  1.00  0.00     0.144 A 
HETATM   66  C37 UNL     1       9.065   3.679   5.872  1.00  0.00     0.130 A 
HETATM   67  N17 UNL     1       8.009   4.027   6.688  1.00  0.00    -0.278 N 
HETATM   68  N18 UNL     1       7.018   3.171   6.486  1.00  0.00    -0.020 NA
ATOM     69  H17 UNL     1       7.993   4.812   7.339  1.00  0.00     0.184 HD
BRANCH  66  70
HETATM   70  C38 UNL     1      10.319   4.429   5.861  1.00  0.00     0.271 C 
HETATM   71  N19 UNL     1      11.316   3.900   5.061  1.00  0.00    -0.351 N 
HETATM   72  H45 UNL     1      11.194   2.982   4.666  1.00  0.00     0.163 HD
HETATM   73  O4  UNL     1      10.482   5.452   6.519  1.00  0.00    -0.266 OA
BRANCH  71  74
HETATM   74  C39 UNL     1      12.652   4.449   5.060  1.00  0.00     0.161 C 
BRANCH  74  75
HETATM   75  C40 UNL     1      13.576   3.590   5.883  1.00  0.00    -0.038 A 
HETATM   76  C41 UNL     1      13.583   3.702   7.283  1.00  0.00     0.045 A 
HETATM   77  C42 UNL     1      14.415   2.899   8.071  1.00  0.00     0.078 A 
HETATM   78  C43 UNL     1      15.248   1.969   7.448  1.00  0.00     0.037 A 
HETATM   79  C44 UNL     1      15.246   1.845   6.056  1.00  0.00     0.003 A 
HETATM   80  C45 UNL     1      14.413   2.647   5.277  1.00  0.00     0.009 A 
BRANCH  77  81
HETATM   81  O5  UNL     1      14.311   3.126   9.413  1.00  0.00    -0.255 OA
BRANCH  81  82
HETATM   82  C46 UNL     1      15.115   2.346  10.280  1.00  0.00     0.530 C 
HETATM   83  F1  UNL     1      16.429   2.543  10.038  1.00  0.00    -0.144 F 
HETATM   84  F2  UNL     1      14.828   1.031  10.162  1.00  0.00    -0.144 F 
HETATM   85  F3  UNL     1      14.865   2.716  11.556  1.00  0.00    -0.144 F 
ENDBRANCH  81  82
ENDBRANCH  77  81
ENDBRANCH  74  75
ENDBRANCH  71  74
ENDBRANCH  66  70
ENDBRANCH  63  64
ENDBRANCH  62  63
ENDBRANCH  60  62
ENDBRANCH  59  60
ENDBRANCH  55  59
ENDBRANCH  50  53
ENDBRANCH  48  49
ENDBRANCH   3  48
TORSDOF 25
