REMARK  11 active torsions:
REMARK  status: ('A' for Active; 'I' for Inactive)
REMARK    1  A    between atoms: C2_2  and  O1_37 
REMARK    2  A    between atoms: C5_5  and  O1_37 
REMARK       I    between atoms: C5_5  and  N1_43 
REMARK    3  A    between atoms: C8_8  and  N2_44 
REMARK       I    between atoms: C10_10  and  N2_44 
REMARK       I    between atoms: C10_10  and  N3_45 
REMARK    4  A    between atoms: C15_15  and  N4_46 
REMARK    5  A    between atoms: C16_16  and  C17_17 
REMARK       I    between atoms: C16_16  and  N4_46 
REMARK    6  A    between atoms: C20_20  and  N5_47 
REMARK    7  A    between atoms: C23_23  and  C24_24 
REMARK       I    between atoms: C23_23  and  N5_47 
REMARK    8  A    between atoms: C26_26  and  C28_28 
REMARK    9  A    between atoms: C30_30  and  C31_31 
REMARK   10  A    between atoms: C32_32  and  N8_51 
REMARK   11  A    between atoms: C34_34  and  N11_56 
ROOT
HETATM    1  C17 UNL     1       0.475   0.815   0.077  1.00  0.00     0.053 A 
HETATM    2  C18 UNL     1       1.325  -0.063  -0.609  1.00  0.00     0.051 A 
HETATM    3  C19 UNL     1       2.718   0.024  -0.445  1.00  0.00     0.054 A 
HETATM    4  C20 UNL     1       3.282   0.974   0.408  1.00  0.00     0.036 A 
HETATM    5  C21 UNL     1       2.436   1.840   1.104  1.00  0.00     0.030 A 
HETATM    6  C22 UNL     1       1.050   1.759   0.944  1.00  0.00     0.021 A 
HETATM    7 CL1  UNL     1       0.757  -1.320  -1.656  1.00  0.00    -0.083 Cl
ENDROOT
BRANCH   4   8
HETATM    8  N5  UNL     1       4.662   1.121   0.622  1.00  0.00    -0.320 N 
HETATM    9  C23 UNL     1       5.709   0.403   0.073  1.00  0.00     0.290 C 
HETATM   10  O5  UNL     1       5.595  -0.523  -0.723  1.00  0.00    -0.264 OA
HETATM   11  H37 UNL     1       4.971   1.840   1.275  1.00  0.00     0.169 HD
BRANCH   9  12
HETATM   12  C24 UNL     1       6.998   0.878   0.572  1.00  0.00     0.177 C 
HETATM   13  N6  UNL     1       7.080   1.832   1.487  1.00  0.00    -0.345 N 
HETATM   14  C25 UNL     1       8.414   1.957   1.772  1.00  0.00     0.120 C 
ATOM     15  H6  UNL     1       6.310   2.363   1.895  1.00  0.00     0.167 HD
HETATM   16  C26 UNL     1       9.173   1.069   1.038  1.00  0.00     0.065 C 
HETATM   17  N7  UNL     1       8.259   0.451   0.208  1.00  0.00    -0.331 N 
HETATM   18  C27 UNL     1       8.544  -0.417  -0.909  1.00  0.00     0.158 C 
BRANCH  16  19
HETATM   19  C28 UNL     1      10.718   0.837   1.159  1.00  0.00     0.043 A 
HETATM   20  C29 UNL     1      11.418  -0.172   0.536  1.00  0.00     0.134 A 
HETATM   21  N8  UNL     1      12.744  -0.051   0.903  1.00  0.00    -0.250 N 
HETATM   22  N9  UNL     1      12.916   0.993   1.748  1.00  0.00    -0.288 N 
HETATM   23  C30 UNL     1      11.697   1.539   1.919  1.00  0.00     0.146 A 
ATOM     24  H9  UNL     1      13.792   1.303   2.170  1.00  0.00     0.187 HD
BRANCH  21  25
HETATM   25  C32 UNL     1      13.856  -0.870   0.508  1.00  0.00     0.126 A 
HETATM   26  C36 UNL     1      13.664  -1.963  -0.336  1.00  0.00     0.053 A 
HETATM   27  C35 UNL     1      14.770  -2.735  -0.698  1.00  0.00     0.051 A 
HETATM   28  C34 UNL     1      16.039  -2.399  -0.232  1.00  0.00     0.208 A 
HETATM   29  C33 UNL     1      16.143  -1.294   0.599  1.00  0.00     0.136 A 
HETATM   30  N10 UNL     1      15.090  -0.540   0.983  1.00  0.00    -0.348 N 
ATOM     31  H10 UNL     1      15.215   0.254   1.611  1.00  0.00     0.167 HD
BRANCH  28  32
HETATM   32  N11 UNL     1      17.224  -3.210  -0.571  1.00  0.00     0.041 N 
HETATM   33  O6  UNL     1      17.210  -3.537  -1.889  1.00  0.00    -0.062 OA
HETATM   34  H38 UNL     1      18.089  -2.697  -0.317  1.00  0.00     0.366 HD
HETATM   35  H39 UNL     1      17.234  -4.048   0.043  1.00  0.00     0.366 HD
ENDBRANCH  28  32
ENDBRANCH  21  25
BRANCH  23  36
HETATM   36  C31 UNL     1      11.506   2.738   2.807  1.00  0.00     0.434 C 
HETATM   37  F1  UNL     1      10.903   3.765   2.147  1.00  0.00    -0.165 F 
HETATM   38  F2  UNL     1      12.664   3.239   3.314  1.00  0.00    -0.165 F 
HETATM   39  F3  UNL     1      10.713   2.451   3.876  1.00  0.00    -0.165 F 
ENDBRANCH  23  36
ENDBRANCH  16  19
ENDBRANCH   9  12
ENDBRANCH   4   8
BRANCH   1  40
HETATM   40  C16 UNL     1      -1.014   0.836  -0.014  1.00  0.00     0.253 C 
HETATM   41  O4  UNL     1      -1.671   1.254   0.937  1.00  0.00    -0.268 OA
HETATM   42  N4  UNL     1      -1.589   0.428  -1.200  1.00  0.00    -0.351 N 
HETATM   43  H36 UNL     1      -1.003   0.020  -1.921  1.00  0.00     0.163 HD
BRANCH  42  44
HETATM   44  C15 UNL     1      -3.006   0.369  -1.372  1.00  0.00     0.097 A 
HETATM   45  C12 UNL     1      -3.782   1.619  -1.698  1.00  0.00     0.035 A 
HETATM   46  C11 UNL     1      -5.227   1.734  -1.344  1.00  0.00     0.134 C 
HETATM   47  C13 UNL     1      -3.626   0.561  -2.734  1.00  0.00     0.035 A 
HETATM   48  N3  UNL     1      -5.879   0.680  -2.114  1.00  0.00    -0.333 N 
HETATM   49  C10 UNL     1      -7.226   0.431  -2.184  1.00  0.00     0.318 C 
HETATM   50  C14 UNL     1      -4.983   0.020  -3.054  1.00  0.00     0.134 C 
HETATM   51  O3  UNL     1      -7.718  -0.346  -2.997  1.00  0.00    -0.247 OA
HETATM   52  N2  UNL     1      -7.988   1.128  -1.281  1.00  0.00    -0.337 N 
HETATM   53  H35 UNL     1      -7.529   1.304  -0.400  1.00  0.00     0.164 HD
BRANCH  52  54
HETATM   54  C8  UNL     1      -9.419   0.897  -1.224  1.00  0.00     0.105 C 
HETATM   55  C7  UNL     1     -10.137   1.917  -0.338  1.00  0.00     0.047 C 
HETATM   56  C6  UNL     1     -11.447   1.219  -0.007  1.00  0.00     0.130 C 
HETATM   57  N1  UNL     1     -11.098  -0.187   0.038  1.00  0.00    -0.326 N 
HETATM   58  C5  UNL     1     -11.889  -1.192   0.528  1.00  0.00     0.363 C 
HETATM   59  C9  UNL     1      -9.819  -0.447  -0.596  1.00  0.00     0.153 C 
HETATM   60  O2  UNL     1     -11.559  -2.370   0.529  1.00  0.00    -0.238 OA
BRANCH  58  61
HETATM   61  O1  UNL     1     -13.065  -0.711   1.004  1.00  0.00    -0.294 OA
BRANCH  61  62
HETATM   62  C2  UNL     1     -14.061  -1.602   1.568  1.00  0.00     0.061 C 
HETATM   63  C1  UNL     1     -14.577  -2.597   0.523  1.00  0.00     0.046 C 
HETATM   64  C3  UNL     1     -13.532  -2.308   2.821  1.00  0.00     0.046 C 
HETATM   65  C4  UNL     1     -15.218  -0.679   1.979  1.00  0.00     0.046 C 
ENDBRANCH  61  62
ENDBRANCH  58  61
ENDBRANCH  52  54
ENDBRANCH  42  44
ENDBRANCH   1  40
TORSDOF 11
