REMARK  0 active torsions:
REMARK  status: ('A' for Active; 'I' for Inactive)
REMARK       I    between atoms: C2_2  and  C3_3 
REMARK       I    between atoms: C3_3  and  C5_5 
REMARK       I    between atoms: C5_5  and  C6_6 
REMARK       I    between atoms: C5_5  and  N9_74 
REMARK       I    between atoms: C6_6  and  N1_66 
REMARK       I    between atoms: C7_7  and  C8_8 
REMARK       I    between atoms: C7_7  and  C12_12 
REMARK       I    between atoms: C7_7  and  N1_66 
REMARK       I    between atoms: C8_8  and  C9_9 
REMARK       I    between atoms: C12_12  and  N2_67 
REMARK       I    between atoms: C13_13  and  C14_14 
REMARK       I    between atoms: C13_13  and  C18_18 
REMARK       I    between atoms: C13_13  and  N2_67 
REMARK       I    between atoms: C14_14  and  C15_15 
REMARK       I    between atoms: C15_15  and  C16_16 
REMARK       I    between atoms: C16_16  and  C17_17 
REMARK       I    between atoms: C17_17  and  N3_68 
REMARK       I    between atoms: C18_18  and  N4_69 
REMARK       I    between atoms: C19_19  and  C20_20 
REMARK       I    between atoms: C19_19  and  C24_24 
REMARK       I    between atoms: C19_19  and  N4_69 
REMARK       I    between atoms: C20_20  and  C21_21 
REMARK       I    between atoms: C24_24  and  N5_70 
REMARK       I    between atoms: C28_28  and  C29_29 
REMARK       I    between atoms: C29_29  and  N6_71 
REMARK       I    between atoms: C30_30  and  C31_31 
REMARK       I    between atoms: C30_30  and  C33_33 
REMARK       I    between atoms: C30_30  and  N6_71 
REMARK       I    between atoms: C31_31  and  O6_56 
REMARK       I    between atoms: C33_33  and  N7_72 
REMARK       I    between atoms: C34_34  and  C35_35 
REMARK       I    between atoms: C34_34  and  C39_39 
REMARK       I    between atoms: C34_34  and  N7_72 
REMARK       I    between atoms: C35_35  and  C36_36 
REMARK       I    between atoms: C36_36  and  C37_37 
REMARK       I    between atoms: C37_37  and  C38_38 
REMARK       I    between atoms: C38_38  and  N8_73 
REMARK       I    between atoms: C39_39  and  O9_59 
REMARK       I    between atoms: C40_40  and  C41_41 
REMARK       I    between atoms: C40_40  and  N9_74 
REMARK       I    between atoms: C41_41  and  C42_42 
REMARK       I    between atoms: C41_41  and  N10_75 
REMARK       I    between atoms: C42_42  and  O11_61 
REMARK       I    between atoms: C43_43  and  C44_44 
REMARK       I    between atoms: C43_43  and  N10_75 
REMARK       I    between atoms: C44_44  and  C45_45 
REMARK       I    between atoms: C44_44  and  N11_76 
REMARK       I    between atoms: C45_45  and  O13_63 
REMARK       I    between atoms: C47_47  and  C48_48 
REMARK       I    between atoms: C47_47  and  N11_76 
REMARK       I    between atoms: C48_48  and  C49_49 
REMARK       I    between atoms: C48_48  and  N12_77 
REMARK       I    between atoms: C49_49  and  O15_65 
ROOT
HETATM    1  C1  UNL     1       6.254  -2.279   2.009  1.00  0.00     0.005 C 
HETATM    2  C2  UNL     1       5.871  -0.960   2.665  1.00  0.00     0.002 C 
HETATM    3  C3  UNL     1       4.930  -0.084   1.808  1.00  0.00     0.013 C 
HETATM    4  C4  UNL     1       4.513   1.149   2.624  1.00  0.00     0.012 C 
HETATM    5  C5  UNL     1       5.541   0.289   0.437  1.00  0.00     0.180 C 
HETATM    6  C6  UNL     1       4.560   1.107  -0.435  1.00  0.00     0.241 C 
HETATM    7  C7  UNL     1       2.393   1.021  -1.650  1.00  0.00     0.177 C 
HETATM    8  C8  UNL     1       2.791   1.327  -3.106  1.00  0.00     0.038 C 
HETATM    9  C9  UNL     1       3.518   0.208  -3.885  1.00  0.00    -0.020 C 
HETATM   10  C10 UNL     1       3.951   0.744  -5.255  1.00  0.00     0.009 C 
HETATM   11  C11 UNL     1       2.669  -1.047  -4.078  1.00  0.00     0.009 C 
HETATM   12  C12 UNL     1       1.141   0.125  -1.516  1.00  0.00     0.241 C 
HETATM   13  C13 UNL     1      -1.351   0.113  -1.902  1.00  0.00     0.176 C 
HETATM   14  C14 UNL     1      -1.505  -1.418  -1.975  1.00  0.00     0.035 C 
HETATM   15  C15 UNL     1      -1.555  -2.158  -0.628  1.00  0.00     0.004 C 
HETATM   16  C16 UNL     1      -1.315  -3.667  -0.764  1.00  0.00     0.030 C 
HETATM   17  C17 UNL     1      -2.410  -4.377  -1.561  1.00  0.00     0.267 C 
HETATM   18  C18 UNL     1      -1.990   0.802  -0.671  1.00  0.00     0.241 C 
HETATM   19  C19 UNL     1      -4.216   1.250   0.407  1.00  0.00     0.177 C 
HETATM   20  C20 UNL     1      -3.662   1.538   1.813  1.00  0.00     0.038 C 
HETATM   21  C21 UNL     1      -3.199   0.289   2.593  1.00  0.00    -0.020 C 
HETATM   22  C22 UNL     1      -2.597   0.714   3.935  1.00  0.00     0.009 C 
HETATM   23  C23 UNL     1      -4.337  -0.705   2.829  1.00  0.00     0.009 C 
HETATM   24  C24 UNL     1      -4.697   2.545  -0.302  1.00  0.00     0.243 C 
HETATM   25  C25 UNL     1      -6.408   4.290  -0.569  1.00  0.00     0.127 C 
HETATM   26  C26 UNL     1      -7.869   4.396  -0.160  1.00  0.00     0.022 C 
HETATM   27  C27 UNL     1      -7.915   3.643   1.166  1.00  0.00     0.037 C 
HETATM   28  C28 UNL     1      -6.942   2.485   0.936  1.00  0.00     0.179 C 
HETATM   29  C29 UNL     1      -7.655   1.268   0.302  1.00  0.00     0.241 C 
HETATM   30  C30 UNL     1      -9.372  -0.514   0.694  1.00  0.00     0.205 C 
HETATM   31  C31 UNL     1      -8.488  -1.784   0.687  1.00  0.00     0.146 C 
HETATM   32  C32 UNL     1      -9.255  -3.099   0.761  1.00  0.00     0.042 C 
HETATM   33  C33 UNL     1     -10.532  -0.597   1.698  1.00  0.00     0.243 C 
HETATM   34  C34 UNL     1     -12.906  -1.268   2.015  1.00  0.00     0.182 C 
HETATM   35  C35 UNL     1     -13.612   0.072   2.276  1.00  0.00     0.036 C 
HETATM   36  C36 UNL     1     -14.309   0.746   1.083  1.00  0.00     0.004 C 
HETATM   37  C37 UNL     1     -13.364   1.191  -0.037  1.00  0.00     0.030 C 
HETATM   38  C38 UNL     1     -14.045   2.050  -1.107  1.00  0.00     0.267 C 
HETATM   39  C39 UNL     1     -13.830  -2.277   1.337  1.00  0.00     0.163 C 
HETATM   40  C40 UNL     1       7.817   0.894  -0.302  1.00  0.00     0.243 C 
HETATM   41  C41 UNL     1       8.899   1.989  -0.250  1.00  0.00     0.200 C 
HETATM   42  C42 UNL     1       8.414   3.231  -1.001  1.00  0.00     0.199 C 
HETATM   43  C43 UNL     1      10.979   0.682  -0.127  1.00  0.00     0.243 C 
HETATM   44  C44 UNL     1      11.909  -0.223  -0.957  1.00  0.00     0.205 C 
HETATM   45  C45 UNL     1      11.101  -1.337  -1.668  1.00  0.00     0.146 C 
HETATM   46  C46 UNL     1      10.443  -2.330  -0.710  1.00  0.00     0.042 C 
HETATM   47  C47 UNL     1      14.119  -1.275  -0.517  1.00  0.00     0.254 C 
HETATM   48  C48 UNL     1      15.086  -1.735   0.597  1.00  0.00     0.336 C 
HETATM   49  C49 UNL     1      15.579  -0.550   1.457  1.00  0.00     0.156 C 
HETATM   50  C50 UNL     1      16.544   0.383   0.729  1.00  0.00     0.042 C 
HETATM   51  O1  UNL     1       4.743   2.298  -0.686  1.00  0.00    -0.271 OA
HETATM   52  O2  UNL     1       1.196  -0.954  -0.929  1.00  0.00    -0.271 OA
HETATM   53  O3  UNL     1      -1.350   1.565   0.049  1.00  0.00    -0.271 OA
HETATM   54  O4  UNL     1      -3.997   3.106  -1.153  1.00  0.00    -0.271 OA
HETATM   55  O5  UNL     1      -7.358   0.798  -0.796  1.00  0.00    -0.271 OA
HETATM   56  O6  UNL     1      -7.714  -1.854  -0.522  1.00  0.00    -0.393 OA
HETATM   57  O7  UNL     1     -10.412  -0.196   2.855  1.00  0.00    -0.271 OA
HETATM   58  O8  UNL     1     -13.694  -2.716   0.204  1.00  0.00    -0.648 OA
HETATM   59  O9  UNL     1     -14.858  -2.671   2.111  1.00  0.00    -0.775 OA
HETATM   60  O10 UNL     1       7.890  -0.063  -1.075  1.00  0.00    -0.271 OA
HETATM   61  O11 UNL     1       9.384   4.276  -0.908  1.00  0.00    -0.398 OA
HETATM   62  O12 UNL     1      10.999   0.691   1.104  1.00  0.00    -0.271 OA
HETATM   63  O13 UNL     1      10.111  -0.761  -2.536  1.00  0.00    -0.393 OA
HETATM   64  O14 UNL     1      14.337  -1.413  -1.718  1.00  0.00    -0.271 OA
HETATM   65  O15 UNL     1      16.219  -1.072   2.633  1.00  0.00    -0.393 OA
HETATM   66  N1  UNL     1       3.471   0.406  -0.885  1.00  0.00    -0.346 N 
HETATM   67  N2  UNL     1       0.006   0.635  -2.106  1.00  0.00    -0.346 N 
HETATM   68  N3  UNL     1      -2.162  -5.814  -1.595  1.00  0.00     0.078 N 
HETATM   69  N4  UNL     1      -3.330   0.512  -0.497  1.00  0.00    -0.346 N 
HETATM   70  N5  UNL     1      -5.935   3.056   0.037  1.00  0.00    -0.337 N 
HETATM   71  N6  UNL     1      -8.605   0.678   1.095  1.00  0.00    -0.344 N 
HETATM   72  N7  UNL     1     -11.694  -1.136   1.208  1.00  0.00    -0.345 N 
HETATM   73  N8  UNL     1     -14.413   3.366  -0.602  1.00  0.00     0.078 N 
HETATM   74  N9  UNL     1       6.766   1.077   0.571  1.00  0.00    -0.346 N 
HETATM   75  N10 UNL     1      10.113   1.454  -0.877  1.00  0.00    -0.344 N 
HETATM   76  N11 UNL     1      12.942  -0.730  -0.058  1.00  0.00    -0.343 N 
HETATM   77  N12 UNL     1      16.215  -2.508   0.034  1.00  0.00     0.094 N 
HETATM   78  H74 UNL     1      -7.455  -0.941  -0.773  1.00  0.00     0.210 HD
HETATM   79  H75 UNL     1     -15.353  -3.316   1.563  1.00  0.00     0.167 HD
HETATM   80  H76 UNL     1      10.248   3.874  -1.120  1.00  0.00     0.209 HD
HETATM   81  H77 UNL     1       9.226  -0.881  -2.122  1.00  0.00     0.210 HD
HETATM   82  H78 UNL     1      16.650  -0.326   3.086  1.00  0.00     0.210 HD
HETATM   83  H79 UNL     1       3.306  -0.551  -0.585  1.00  0.00     0.163 HD
HETATM   84  H80 UNL     1       0.023   1.640  -2.245  1.00  0.00     0.163 HD
HETATM   85  H81 UNL     1      -2.937  -6.280  -2.064  1.00  0.00     0.312 HD
HETATM   86  H82 UNL     1      -2.138  -6.182  -0.645  1.00  0.00     0.312 HD
HETATM   87  H83 UNL     1      -3.799   0.114  -1.301  1.00  0.00     0.163 HD
HETATM   88  H84 UNL     1      -8.776   1.017   2.040  1.00  0.00     0.163 HD
HETATM   89  H85 UNL     1     -11.738  -1.490   0.255  1.00  0.00     0.163 HD
HETATM   90  H86 UNL     1     -14.810   3.919  -1.362  1.00  0.00     0.312 HD
HETATM   91  H87 UNL     1     -15.153   3.281   0.092  1.00  0.00     0.312 HD
HETATM   92  H88 UNL     1       6.628   2.017   0.928  1.00  0.00     0.163 HD
HETATM   93  H89 UNL     1       9.988   1.112  -1.833  1.00  0.00     0.163 HD
HETATM   94  H90 UNL     1      12.746  -0.662   0.937  1.00  0.00     0.163 HD
HETATM   95  H91 UNL     1      16.730  -2.922   0.810  1.00  0.00     0.314 HD
HETATM   96  H92 UNL     1      15.846  -3.265  -0.540  1.00  0.00     0.314 HD
ENDROOT
TORSDOF 44
