REMARK  0 active torsions:
REMARK  status: ('A' for Active; 'I' for Inactive)
REMARK       I    between atoms: C1_1  and  C2_2 
REMARK       I    between atoms: C1_1  and  C54_54 
REMARK       I    between atoms: C2_2  and  C3_3 
REMARK       I    between atoms: C3_3  and  C4_4 
REMARK       I    between atoms: C4_4  and  C5_5 
REMARK       I    between atoms: C5_5  and  N1_72 
REMARK       I    between atoms: C6_6  and  C7_7 
REMARK       I    between atoms: C6_6  and  C11_11 
REMARK       I    between atoms: C6_6  and  N1_72 
REMARK       I    between atoms: C7_7  and  C8_8 
REMARK       I    between atoms: C8_8  and  C9_9 
REMARK       I    between atoms: C9_9  and  C10_10 
REMARK       I    between atoms: C10_10  and  N2_73 
REMARK       I    between atoms: C11_11  and  N3_74 
REMARK       I    between atoms: C12_12  and  C13_13 
REMARK       I    between atoms: C12_12  and  N3_74 
REMARK       I    between atoms: C13_13  and  C14_14 
REMARK       I    between atoms: C14_14  and  C15_15 
REMARK       I    between atoms: C15_15  and  C16_16 
REMARK       I    between atoms: C16_16  and  C17_17 
REMARK       I    between atoms: C17_17  and  C18_18 
REMARK       I    between atoms: C18_18  and  C19_19 
REMARK       I    between atoms: C19_19  and  N4_75 
REMARK       I    between atoms: C20_20  and  C21_21 
REMARK       I    between atoms: C20_20  and  C25_25 
REMARK       I    between atoms: C20_20  and  N4_75 
REMARK       I    between atoms: C21_21  and  C22_22 
REMARK       I    between atoms: C22_22  and  C23_23 
REMARK       I    between atoms: C23_23  and  C24_24 
REMARK       I    between atoms: C24_24  and  N5_76 
REMARK       I    between atoms: C25_25  and  N6_77 
REMARK       I    between atoms: C26_26  and  C27_27 
REMARK       I    between atoms: C26_26  and  N6_77 
REMARK       I    between atoms: C27_27  and  C28_28 
REMARK       I    between atoms: C28_28  and  C29_29 
REMARK       I    between atoms: C29_29  and  C30_30 
REMARK       I    between atoms: C30_30  and  C31_31 
REMARK       I    between atoms: C31_31  and  C32_32 
REMARK       I    between atoms: C32_32  and  C33_33 
REMARK       I    between atoms: C33_33  and  N7_78 
REMARK       I    between atoms: C34_34  and  C35_35 
REMARK       I    between atoms: C34_34  and  C39_39 
REMARK       I    between atoms: C34_34  and  N7_78 
REMARK       I    between atoms: C35_35  and  C36_36 
REMARK       I    between atoms: C36_36  and  C37_37 
REMARK       I    between atoms: C37_37  and  C38_38 
REMARK       I    between atoms: C38_38  and  N8_79 
REMARK       I    between atoms: C39_39  and  N9_80 
REMARK       I    between atoms: C40_40  and  C41_41 
REMARK       I    between atoms: C40_40  and  N9_80 
REMARK       I    between atoms: C41_41  and  C42_42 
REMARK       I    between atoms: C42_42  and  C43_43 
REMARK       I    between atoms: C43_43  and  C44_44 
REMARK       I    between atoms: C44_44  and  C45_45 
REMARK       I    between atoms: C45_45  and  C46_46 
REMARK       I    between atoms: C46_46  and  C47_47 
REMARK       I    between atoms: C47_47  and  N10_81 
REMARK       I    between atoms: C48_48  and  C49_49 
REMARK       I    between atoms: C48_48  and  C53_53 
REMARK       I    between atoms: C48_48  and  N10_81 
REMARK       I    between atoms: C49_49  and  C50_50 
REMARK       I    between atoms: C50_50  and  C51_51 
REMARK       I    between atoms: C51_51  and  C52_52 
REMARK       I    between atoms: C52_52  and  N11_82 
REMARK       I    between atoms: C53_53  and  N12_83 
REMARK       I    between atoms: C54_54  and  C55_55 
REMARK       I    between atoms: C55_55  and  C56_56 
REMARK       I    between atoms: C56_56  and  N13_84 
REMARK       I    between atoms: C57_57  and  C58_58 
REMARK       I    between atoms: C57_57  and  N13_84 
REMARK       I    between atoms: C58_58  and  C59_59 
REMARK       I    between atoms: C58_58  and  N15_86 
REMARK       I    between atoms: C59_59  and  C60_60 
REMARK       I    between atoms: C60_60  and  C61_61 
REMARK       I    between atoms: C61_61  and  C62_62 
REMARK       I    between atoms: C62_62  and  N14_85 
ROOT
HETATM    1  C1  UNL     1     -15.306   0.361  -2.039  1.00  0.00     0.000 C 
HETATM    2  C2  UNL     1     -14.218   0.497  -0.972  1.00  0.00     0.000 C 
HETATM    3  C3  UNL     1     -12.877  -0.048  -1.476  1.00  0.00     0.009 C 
HETATM    4  C4  UNL     1     -11.776   0.054  -0.422  1.00  0.00     0.103 C 
HETATM    5  C5  UNL     1     -11.274   1.470  -0.205  1.00  0.00     0.218 C 
HETATM    6  C6  UNL     1      -9.712   2.809   1.182  1.00  0.00     0.176 C 
HETATM    7  C7  UNL     1     -10.354   3.555   2.360  1.00  0.00     0.035 C 
HETATM    8  C8  UNL     1     -11.741   4.113   2.022  1.00  0.00     0.004 C 
HETATM    9  C9  UNL     1     -12.316   5.014   3.120  1.00  0.00     0.030 C 
HETATM   10  C10 UNL     1     -12.632   4.262   4.412  1.00  0.00     0.267 C 
HETATM   11  C11 UNL     1      -8.260   2.417   1.529  1.00  0.00     0.240 C 
HETATM   12  C12 UNL     1      -5.960   3.304   1.835  1.00  0.00     0.122 C 
HETATM   13  C13 UNL     1      -5.098   3.473   0.584  1.00  0.00     0.020 C 
HETATM   14  C14 UNL     1      -5.262   2.370  -0.468  1.00  0.00     0.002 C 
HETATM   15  C15 UNL     1      -4.858   0.961  -0.021  1.00  0.00     0.000 C 
HETATM   16  C16 UNL     1      -3.424   0.810   0.499  1.00  0.00     0.000 C 
HETATM   17  C17 UNL     1      -2.361   1.170  -0.543  1.00  0.00     0.009 C 
HETATM   18  C18 UNL     1      -0.939   0.947  -0.027  1.00  0.00     0.103 C 
HETATM   19  C19 UNL     1      -0.620  -0.506   0.260  1.00  0.00     0.218 C 
HETATM   20  C20 UNL     1      -0.431  -2.769  -0.726  1.00  0.00     0.176 C 
HETATM   21  C21 UNL     1      -1.217  -3.579  -1.765  1.00  0.00     0.035 C 
HETATM   22  C22 UNL     1      -2.726  -3.560  -1.492  1.00  0.00     0.004 C 
HETATM   23  C23 UNL     1      -3.546  -4.365  -2.509  1.00  0.00     0.030 C 
HETATM   24  C24 UNL     1      -3.705  -5.851  -2.173  1.00  0.00     0.267 C 
HETATM   25  C25 UNL     1       1.092  -2.918  -0.938  1.00  0.00     0.240 C 
HETATM   26  C26 UNL     1       3.282  -2.474   0.133  1.00  0.00     0.122 C 
HETATM   27  C27 UNL     1       3.896  -3.860   0.325  1.00  0.00     0.020 C 
HETATM   28  C28 UNL     1       5.424  -3.843   0.420  1.00  0.00     0.002 C 
HETATM   29  C29 UNL     1       6.154  -3.224  -0.778  1.00  0.00     0.000 C 
HETATM   30  C30 UNL     1       5.834  -3.915  -2.105  1.00  0.00     0.000 C 
HETATM   31  C31 UNL     1       6.706  -3.444  -3.276  1.00  0.00     0.009 C 
HETATM   32  C32 UNL     1       6.381  -2.038  -3.783  1.00  0.00     0.103 C 
HETATM   33  C33 UNL     1       6.964  -0.916  -2.950  1.00  0.00     0.218 C 
HETATM   34  C34 UNL     1       9.066   0.067  -2.077  1.00  0.00     0.176 C 
HETATM   35  C35 UNL     1       9.094  -0.349  -0.597  1.00  0.00     0.035 C 
HETATM   36  C36 UNL     1       9.717   0.702   0.326  1.00  0.00     0.004 C 
HETATM   37  C37 UNL     1       9.589   0.294   1.798  1.00  0.00     0.030 C 
HETATM   38  C38 UNL     1      10.159   1.334   2.766  1.00  0.00     0.267 C 
HETATM   39  C39 UNL     1      10.487   0.135  -2.669  1.00  0.00     0.240 C 
HETATM   40  C40 UNL     1      12.488   1.565  -2.922  1.00  0.00     0.122 C 
HETATM   41  C41 UNL     1      13.442   1.146  -1.804  1.00  0.00     0.020 C 
HETATM   42  C42 UNL     1      14.899   1.412  -2.183  1.00  0.00     0.002 C 
HETATM   43  C43 UNL     1      15.903   0.882  -1.154  1.00  0.00     0.000 C 
HETATM   44  C44 UNL     1      15.829   1.602   0.196  1.00  0.00     0.000 C 
HETATM   45  C45 UNL     1      16.828   1.064   1.225  1.00  0.00     0.009 C 
HETATM   46  C46 UNL     1      18.286   1.343   0.863  1.00  0.00     0.103 C 
HETATM   47  C47 UNL     1      19.239   0.905   1.959  1.00  0.00     0.218 C 
HETATM   48  C48 UNL     1      21.640   0.838   2.596  1.00  0.00     0.176 C 
HETATM   49  C49 UNL     1      22.961   0.599   1.847  1.00  0.00     0.035 C 
HETATM   50  C50 UNL     1      22.908  -0.642   0.950  1.00  0.00     0.004 C 
HETATM   51  C51 UNL     1      24.186  -0.852   0.127  1.00  0.00     0.030 C 
HETATM   52  C52 UNL     1      25.475  -1.049   0.927  1.00  0.00     0.267 C 
HETATM   53  C53 UNL     1      21.798   1.967   3.643  1.00  0.00     0.238 C 
HETATM   54  C54 UNL     1     -16.644   0.912  -1.541  1.00  0.00     0.002 C 
HETATM   55  C55 UNL     1     -17.734   0.771  -2.608  1.00  0.00     0.020 C 
HETATM   56  C56 UNL     1     -19.069   1.365  -2.162  1.00  0.00     0.122 C 
HETATM   57  C57 UNL     1     -20.374  -0.502  -1.167  1.00  0.00     0.250 C 
HETATM   58  C58 UNL     1     -20.797  -1.096   0.200  1.00  0.00     0.308 C 
HETATM   59  C59 UNL     1     -22.010  -2.034   0.081  1.00  0.00     0.045 C 
HETATM   60  C60 UNL     1     -23.328  -1.367  -0.343  1.00  0.00     0.004 C 
HETATM   61  C61 UNL     1     -24.229  -1.013   0.846  1.00  0.00     0.030 C 
HETATM   62  C62 UNL     1     -25.498  -0.256   0.443  1.00  0.00     0.267 C 
HETATM   63  O1  UNL     1     -11.579   2.423  -0.913  1.00  0.00    -0.274 OA
HETATM   64  O2  UNL     1      -7.945   1.256   1.787  1.00  0.00    -0.271 OA
HETATM   65  O3  UNL     1      -0.235  -0.891   1.360  1.00  0.00    -0.274 OA
HETATM   66  O4  UNL     1       1.594  -3.290  -1.996  1.00  0.00    -0.271 OA
HETATM   67  O5  UNL     1       6.264  -0.061  -2.415  1.00  0.00    -0.274 OA
HETATM   68  O6  UNL     1      11.024  -0.842  -3.191  1.00  0.00    -0.271 OA
HETATM   69  O7  UNL     1      18.886   0.397   3.019  1.00  0.00    -0.274 OA
HETATM   70  O8  UNL     1      22.870   2.476   3.957  1.00  0.00    -0.271 OA
HETATM   71  O9  UNL     1     -20.620  -1.035  -2.244  1.00  0.00    -0.271 OA
HETATM   72  N1  UNL     1     -10.427   1.575   0.873  1.00  0.00    -0.348 N 
HETATM   73  N2  UNL     1     -13.227   5.169   5.388  1.00  0.00     0.078 N 
HETATM   74  N3  UNL     1      -7.372   3.471   1.548  1.00  0.00    -0.359 N 
HETATM   75  N4  UNL     1      -0.759  -1.345  -0.820  1.00  0.00    -0.348 N 
HETATM   76  N5  UNL     1      -2.448  -6.582  -2.223  1.00  0.00     0.078 N 
HETATM   77  N6  UNL     1       1.837  -2.524   0.157  1.00  0.00    -0.359 N 
HETATM   78  N7  UNL     1       8.331  -0.917  -2.864  1.00  0.00    -0.348 N 
HETATM   79  N8  UNL     1      11.606   1.479   2.663  1.00  0.00     0.078 N 
HETATM   80  N9  UNL     1      11.109   1.358  -2.533  1.00  0.00    -0.359 N 
HETATM   81  N10 UNL     1      20.559   1.156   1.659  1.00  0.00    -0.348 N 
HETATM   82  N11 UNL     1      25.413  -2.221   1.791  1.00  0.00     0.078 N 
HETATM   83  N12 UNL     1      20.651   2.322   4.300  1.00  0.00    -0.368 N 
HETATM   84  N13 UNL     1     -19.643   0.659  -1.040  1.00  0.00    -0.359 N 
HETATM   85  N14 UNL     1     -26.390  -1.037  -0.403  1.00  0.00     0.078 N 
HETATM   86  N15 UNL     1     -20.979  -0.014   1.196  1.00  0.00     0.092 N 
HETATM   87  HA2 UNL     1     -10.035   0.728   1.276  1.00  0.00     0.163 HD
HETATM   88  HA3 UNL     1     -14.096   5.550   5.016  1.00  0.00     0.312 HD
HETATM   89  HA4 UNL     1     -13.483   4.645   6.224  1.00  0.00     0.312 HD
HETATM   90  HA5 UNL     1      -7.696   4.393   1.286  1.00  0.00     0.162 HD
HETATM   91  HA6 UNL     1      -0.723  -0.932  -1.744  1.00  0.00     0.163 HD
HETATM   92  HA7 UNL     1      -2.040  -6.506  -3.154  1.00  0.00     0.312 HD
HETATM   93  HA8 UNL     1      -2.624  -7.574  -2.070  1.00  0.00     0.312 HD
HETATM   94  HA9 UNL     1       1.340  -2.067   0.923  1.00  0.00     0.162 HD
HETATM   95  HB0 UNL     1       8.882  -1.622  -3.346  1.00  0.00     0.163 HD
HETATM   96  HB1 UNL     1      11.868   1.775   1.726  1.00  0.00     0.312 HD
HETATM   97  HB2 UNL     1      12.052   0.574   2.811  1.00  0.00     0.312 HD
HETATM   98  HB3 UNL     1      10.617   2.119  -2.082  1.00  0.00     0.162 HD
HETATM   99  HB4 UNL     1      20.759   1.834   0.934  1.00  0.00     0.163 HD
HETATM  100  HB5 UNL     1      24.727  -2.073   2.529  1.00  0.00     0.312 HD
HETATM  101  HB6 UNL     1      26.309  -2.335   2.266  1.00  0.00     0.312 HD
HETATM  102  HB7 UNL     1      20.743   2.937   5.096  1.00  0.00     0.159 HD
HETATM  103  HB8 UNL     1      19.845   1.699   4.268  1.00  0.00     0.159 HD
HETATM  104  HB9 UNL     1     -19.506   0.993  -0.089  1.00  0.00     0.162 HD
HETATM  105  HC0 UNL     1     -26.572  -1.943   0.026  1.00  0.00     0.312 HD
HETATM  106  HC1 UNL     1     -25.940  -1.233  -1.297  1.00  0.00     0.312 HD
HETATM  107  HC2 UNL     1     -21.737   0.592   0.879  1.00  0.00     0.313 HD
HETATM  108  HC3 UNL     1     -21.301  -0.429   2.071  1.00  0.00     0.313 HD
ENDROOT
TORSDOF 67
