REMARK  22 active torsions:
REMARK  status: ('A' for Active; 'I' for Inactive)
REMARK    1  A    between atoms: C3_3  and  C35_35 
REMARK    2  A    between atoms: C5_5  and  N2_47 
REMARK    3  A    between atoms: C6_6  and  C7_7 
REMARK       I    between atoms: C6_6  and  N2_47 
REMARK    4  A    between atoms: C9_9  and  N4_49 
REMARK       I    between atoms: C11_11  and  N4_49 
REMARK       I    between atoms: C11_11  and  N5_50 
REMARK    5  A    between atoms: C12_12  and  N5_50 
REMARK    6  A    between atoms: C14_14  and  C17_17 
REMARK       I    between atoms: C17_17  and  N7_52 
REMARK    7  A    between atoms: C18_18  and  N7_52 
REMARK    8  A    between atoms: C20_20  and  C23_23 
REMARK       I    between atoms: C23_23  and  N9_54 
REMARK    9  A    between atoms: C24_24  and  N9_54 
REMARK   10  A    between atoms: C25_25  and  S3_81 
REMARK   11  A    between atoms: C29_29  and  S2_80 
REMARK   12  A    between atoms: C31_31  and  S1_79 
REMARK       I    between atoms: C35_35  and  N10_55 
REMARK   13  A    between atoms: C36_36  and  N10_55 
REMARK   14  A    between atoms: C37_37  and  S6_84 
REMARK   15  A    between atoms: C41_41  and  S5_83 
REMARK   16  A    between atoms: C43_43  and  S4_82 
REMARK   17  A    between atoms: O7_62  and  S1_79 
REMARK   18  A    between atoms: O10_65  and  S2_80 
REMARK   19  A    between atoms: O13_68  and  S3_81 
REMARK   20  A    between atoms: O17_72  and  S4_82 
REMARK   21  A    between atoms: O20_75  and  S5_83 
REMARK   22  A    between atoms: O23_78  and  S6_84 
ROOT
HETATM    1  C11 UNL     1      -0.434   0.269   0.039  1.00  0.00     0.327 C 
HETATM    2  N4  UNL     1       0.386  -0.830  -0.184  1.00  0.00    -0.294 N 
HETATM    3  N5  UNL     1      -1.741  -0.056  -0.299  1.00  0.00    -0.294 N 
HETATM    4  O2  UNL     1      -0.062   1.355   0.466  1.00  0.00    -0.247 OA
HETATM    5  H30 UNL     1       0.090  -1.418  -0.952  1.00  0.00     0.172 HD
HETATM    6  H31 UNL     1      -1.979  -1.027  -0.144  1.00  0.00     0.172 HD
ENDROOT
BRANCH   2   7
HETATM    7  C9  UNL     1       1.735  -0.886   0.126  1.00  0.00     0.111 A 
HETATM    8  C10 UNL     1       2.672  -1.649  -0.545  1.00  0.00     0.067 A 
HETATM    9  C7  UNL     1       3.958  -1.416   0.024  1.00  0.00     0.051 A 
HETATM   10  C8  UNL     1       3.743  -0.553   1.084  1.00  0.00     0.109 A 
HETATM   11  N3  UNL     1       2.393  -0.270   1.167  1.00  0.00    -0.346 N 
HETATM   12  C34 UNL     1       1.826   0.440   2.295  1.00  0.00     0.157 C 
BRANCH   9  13
HETATM   13  C6  UNL     1       5.220  -2.014  -0.430  1.00  0.00     0.258 C 
HETATM   14  N2  UNL     1       6.344  -1.429   0.121  1.00  0.00    -0.309 N 
HETATM   15  H29 UNL     1       6.203  -0.527   0.558  1.00  0.00     0.170 HD
HETATM   16  O1  UNL     1       5.209  -2.917  -1.259  1.00  0.00    -0.267 OA
BRANCH  14  17
HETATM   17  C5  UNL     1       7.663  -1.780  -0.114  1.00  0.00     0.110 A 
HETATM   18  C4  UNL     1       8.740  -0.938   0.098  1.00  0.00     0.067 A 
HETATM   19  C3  UNL     1       9.942  -1.597  -0.293  1.00  0.00     0.051 A 
HETATM   20  C2  UNL     1       9.548  -2.859  -0.701  1.00  0.00     0.109 A 
HETATM   21  N1  UNL     1       8.181  -2.982  -0.540  1.00  0.00    -0.346 N 
HETATM   22  C1  UNL     1       7.515  -4.261  -0.676  1.00  0.00     0.157 C 
BRANCH  19  23
HETATM   23  C35 UNL     1      11.288  -1.014  -0.256  1.00  0.00     0.257 C 
HETATM   24  N10 UNL     1      12.308  -1.883  -0.615  1.00  0.00    -0.321 N 
HETATM   25  H34 UNL     1      12.032  -2.856  -0.747  1.00  0.00     0.169 HD
HETATM   26  O14 UNL     1      11.448   0.151   0.102  1.00  0.00    -0.267 OA
BRANCH  24  27
HETATM   27  C36 UNL     1      13.694  -1.601  -0.706  1.00  0.00     0.059 A 
HETATM   28  C37 UNL     1      14.652  -2.613  -0.819  1.00  0.00     0.100 A 
HETATM   29  C38 UNL     1      16.021  -2.303  -0.887  1.00  0.00     0.040 A 
HETATM   30  C39 UNL     1      16.469  -0.976  -0.831  1.00  0.00    -0.021 A 
HETATM   31  C40 UNL     1      17.844  -0.699  -0.885  1.00  0.00     0.037 A 
HETATM   32  C44 UNL     1      15.533   0.080  -0.725  1.00  0.00    -0.000 A 
HETATM   33  C41 UNL     1      18.302   0.618  -0.821  1.00  0.00     0.074 A 
HETATM   34  C42 UNL     1      17.411   1.680  -0.707  1.00  0.00     0.051 A 
HETATM   35  C43 UNL     1      16.035   1.411  -0.652  1.00  0.00     0.085 A 
HETATM   36  C45 UNL     1      14.160  -0.278  -0.704  1.00  0.00     0.045 A 
BRANCH  28  37
HETATM   37  S6  UNL     1      14.235  -4.333  -0.861  1.00  0.00     0.132 S 
HETATM   38  O21 UNL     1      14.935  -4.989   0.219  1.00  0.00    -0.597 OA
HETATM   39  O22 UNL     1      12.801  -4.464  -1.018  1.00  0.00    -0.597 OA
BRANCH  37  40
HETATM   40  O23 UNL     1      14.899  -4.878  -2.226  1.00  0.00    -0.292 OA
HETATM   41  H40 UNL     1      15.022  -5.847  -2.142  1.00  0.00     0.232 HD
ENDBRANCH  37  40
ENDBRANCH  28  37
BRANCH  33  42
HETATM   42  S5  UNL     1      20.042   0.935  -0.924  1.00  0.00     0.129 S 
HETATM   43  O18 UNL     1      20.616  -0.033  -1.834  1.00  0.00    -0.598 OA
HETATM   44  O19 UNL     1      20.532   1.106   0.423  1.00  0.00    -0.598 OA
BRANCH  42  45
HETATM   45  O20 UNL     1      20.163   2.353  -1.683  1.00  0.00    -0.292 OA
HETATM   46  H39 UNL     1      20.933   2.304  -2.287  1.00  0.00     0.232 HD
ENDBRANCH  42  45
ENDBRANCH  33  42
BRANCH  35  47
HETATM   47  S4  UNL     1      14.939   2.809  -0.443  1.00  0.00     0.130 S 
HETATM   48  O15 UNL     1      15.743   3.959  -0.091  1.00  0.00    -0.598 OA
HETATM   49  O16 UNL     1      14.047   2.832  -1.581  1.00  0.00    -0.598 OA
BRANCH  47  50
HETATM   50  O17 UNL     1      14.042   2.442   0.849  1.00  0.00    -0.292 OA
HETATM   51  H38 UNL     1      13.109   2.304   0.567  1.00  0.00     0.232 HD
ENDBRANCH  47  50
ENDBRANCH  35  47
ENDBRANCH  24  27
ENDBRANCH  19  23
ENDBRANCH  14  17
ENDBRANCH   9  13
ENDBRANCH   2   7
BRANCH   3  52
HETATM   52  C12 UNL     1      -2.806   0.830  -0.283  1.00  0.00     0.111 A 
HETATM   53  C13 UNL     1      -4.123   0.483  -0.051  1.00  0.00     0.067 A 
HETATM   54  C14 UNL     1      -4.929   1.660  -0.068  1.00  0.00     0.051 A 
HETATM   55  C15 UNL     1      -4.062   2.695  -0.375  1.00  0.00     0.109 A 
HETATM   56  N6  UNL     1      -2.791   2.180  -0.549  1.00  0.00    -0.346 N 
HETATM   57  C16 UNL     1      -1.706   2.980  -1.079  1.00  0.00     0.157 C 
BRANCH  54  58
HETATM   58  C17 UNL     1      -6.377   1.703   0.177  1.00  0.00     0.258 C 
HETATM   59  N7  UNL     1      -6.907   2.983   0.230  1.00  0.00    -0.309 N 
HETATM   60  H32 UNL     1      -6.273   3.758   0.116  1.00  0.00     0.170 HD
HETATM   61  O3  UNL     1      -7.010   0.661   0.318  1.00  0.00    -0.267 OA
BRANCH  59  62
HETATM   62  C18 UNL     1      -8.247   3.253   0.449  1.00  0.00     0.110 A 
HETATM   63  C19 UNL     1      -9.321   2.411   0.668  1.00  0.00     0.067 A 
HETATM   64  C20 UNL     1     -10.502   3.196   0.824  1.00  0.00     0.051 A 
HETATM   65  C21 UNL     1     -10.091   4.512   0.709  1.00  0.00     0.109 A 
HETATM   66  N8  UNL     1      -8.740   4.539   0.487  1.00  0.00    -0.346 N 
HETATM   67  C22 UNL     1      -7.975   5.756   0.323  1.00  0.00     0.157 C 
BRANCH  64  68
HETATM   68  C23 UNL     1     -11.886   2.786   1.071  1.00  0.00     0.257 C 
HETATM   69  N9  UNL     1     -12.102   1.422   0.966  1.00  0.00    -0.321 N 
HETATM   70  H33 UNL     1     -11.411   0.934   0.411  1.00  0.00     0.169 HD
HETATM   71  O4  UNL     1     -12.777   3.603   1.275  1.00  0.00    -0.267 OA
BRANCH  69  72
HETATM   72  C24 UNL     1     -13.359   0.797   1.129  1.00  0.00     0.059 A 
HETATM   73  C25 UNL     1     -14.335   1.107   2.076  1.00  0.00     0.100 A 
HETATM   74  C26 UNL     1     -15.578   0.450   2.040  1.00  0.00     0.040 A 
HETATM   75  C27 UNL     1     -15.857  -0.550   1.097  1.00  0.00    -0.021 A 
HETATM   76  C28 UNL     1     -17.117  -1.166   1.098  1.00  0.00     0.037 A 
HETATM   77  C32 UNL     1     -14.865  -0.942   0.167  1.00  0.00    -0.000 A 
HETATM   78  C29 UNL     1     -17.411  -2.176   0.183  1.00  0.00     0.074 A 
HETATM   79  C30 UNL     1     -16.463  -2.591  -0.746  1.00  0.00     0.051 A 
HETATM   80  C31 UNL     1     -15.198  -1.985  -0.747  1.00  0.00     0.085 A 
HETATM   81  C33 UNL     1     -13.625  -0.246   0.219  1.00  0.00     0.045 A 
BRANCH  73  82
HETATM   82  S3  UNL     1     -14.053   2.112   3.515  1.00  0.00     0.132 S 
HETATM   83  O11 UNL     1     -14.862   3.305   3.418  1.00  0.00    -0.597 OA
HETATM   84  O12 UNL     1     -12.645   2.127   3.851  1.00  0.00    -0.597 OA
BRANCH  82  85
HETATM   85  O13 UNL     1     -14.695   1.235   4.714  1.00  0.00    -0.292 OA
HETATM   86  H37 UNL     1     -14.058   1.275   5.459  1.00  0.00     0.232 HD
ENDBRANCH  82  85
ENDBRANCH  73  82
BRANCH  78  87
HETATM   87  S2  UNL     1     -19.021  -2.913   0.188  1.00  0.00     0.129 S 
HETATM   88  O8  UNL     1     -19.340  -3.300  -1.168  1.00  0.00    -0.598 OA
HETATM   89  O9  UNL     1     -19.061  -3.847   1.289  1.00  0.00    -0.598 OA
BRANCH  87  90
HETATM   90  O10 UNL     1     -20.026  -1.697   0.523  1.00  0.00    -0.292 OA
HETATM   91  H36 UNL     1     -20.725  -1.694  -0.166  1.00  0.00     0.232 HD
ENDBRANCH  87  90
ENDBRANCH  78  87
BRANCH  80  92
HETATM   92  S1  UNL     1     -14.013  -2.587  -1.931  1.00  0.00     0.130 S 
HETATM   93  O5  UNL     1     -14.497  -3.839  -2.472  1.00  0.00    -0.598 OA
HETATM   94  O6  UNL     1     -13.639  -1.484  -2.785  1.00  0.00    -0.598 OA
BRANCH  92  95
HETATM   95  O7  UNL     1     -12.727  -2.998  -1.048  1.00  0.00    -0.292 OA
HETATM   96  H35 UNL     1     -12.491  -3.922  -1.284  1.00  0.00     0.232 HD
ENDBRANCH  92  95
ENDBRANCH  80  92
ENDBRANCH  69  72
ENDBRANCH  64  68
ENDBRANCH  59  62
ENDBRANCH  54  58
ENDBRANCH   3  52
TORSDOF 22
