REMARK  0 active torsions:
REMARK  status: ('A' for Active; 'I' for Inactive)
REMARK       I    between atoms: C2_2  and  C3_3 
REMARK       I    between atoms: C3_3  and  C5_5 
REMARK       I    between atoms: C5_5  and  C6_6 
REMARK       I    between atoms: C5_5  and  N4_87 
REMARK       I    between atoms: C6_6  and  C7_7 
REMARK       I    between atoms: C6_6  and  O4_67 
REMARK       I    between atoms: C7_7  and  C8_8 
REMARK       I    between atoms: C8_8  and  N1_83 
REMARK       I    between atoms: C12_12  and  C13_13 
REMARK       I    between atoms: C13_13  and  C14_14 
REMARK       I    between atoms: C13_13  and  O3_66 
REMARK       I    between atoms: C14_14  and  C16_16 
REMARK       I    between atoms: C16_16  and  O2_65 
REMARK       I    between atoms: C16_16  and  N2_84 
REMARK       I    between atoms: C17_17  and  C18_18 
REMARK       I    between atoms: C17_17  and  C25_25 
REMARK       I    between atoms: C17_17  and  N2_84 
REMARK       I    between atoms: C18_18  and  C19_19 
REMARK       I    between atoms: C31_31  and  C32_32 
REMARK       I    between atoms: C31_31  and  N4_87 
REMARK       I    between atoms: C32_32  and  C33_33 
REMARK       I    between atoms: C32_32  and  N5_88 
REMARK       I    between atoms: C36_36  and  C37_37 
REMARK       I    between atoms: C36_36  and  N5_88 
REMARK       I    between atoms: C37_37  and  C38_38 
REMARK       I    between atoms: C37_37  and  N6_89 
REMARK       I    between atoms: C42_42  and  C43_43 
REMARK       I    between atoms: C42_42  and  N6_89 
REMARK       I    between atoms: C43_43  and  O8_71 
REMARK       I    between atoms: C44_44  and  C45_45 
REMARK       I    between atoms: C46_46  and  N8_92 
REMARK       I    between atoms: C47_47  and  O18_81 
REMARK       I    between atoms: C49_49  and  C50_50 
REMARK       I    between atoms: C49_49  and  O12_75 
REMARK       I    between atoms: C50_50  and  O11_74 
REMARK       I    between atoms: C51_51  and  C52_52 
REMARK       I    between atoms: C51_51  and  O12_75 
REMARK       I    between atoms: C53_53  and  O17_80 
REMARK       I    between atoms: C54_54  and  O16_79 
REMARK       I    between atoms: C55_55  and  O15_78 
REMARK       I    between atoms: C56_56  and  O14_77 
REMARK       I    between atoms: C57_57  and  C59_59 
REMARK       I    between atoms: C57_57  and  O14_77 
REMARK       I    between atoms: C62_62  and  O19_82 
REMARK       I    between atoms: C62_62  and  N8_92 
REMARK       I    between atoms: O8_71  and  N7_90 
ROOT
HETATM    1  C1  UNL     1       5.998  -6.047   2.094  1.00  0.00     0.005 C 
HETATM    2  C2  UNL     1       4.740  -5.323   1.630  1.00  0.00     0.002 C 
HETATM    3  C3  UNL     1       4.984  -3.854   1.199  1.00  0.00     0.006 C 
HETATM    4  C4  UNL     1       5.442  -3.016   2.402  1.00  0.00     0.012 C 
HETATM    5  C5  UNL     1       3.689  -3.260   0.539  1.00  0.00     0.119 C 
HETATM    6  C6  UNL     1       3.746  -1.716   0.226  1.00  0.00     0.152 C 
HETATM    7  C7  UNL     1       4.882  -1.312  -0.729  1.00  0.00     0.137 C 
HETATM    8  C8  UNL     1       5.660  -0.100  -0.237  1.00  0.00     0.222 C 
HETATM    9  C9  UNL     1       7.165  -0.311  -2.248  1.00  0.00     0.126 C 
HETATM   10  C10 UNL     1       8.015   0.785  -2.862  1.00  0.00     0.022 C 
HETATM   11  C11 UNL     1       8.752   1.351  -1.658  1.00  0.00     0.029 C 
HETATM   12  C12 UNL     1       7.688   1.338  -0.545  1.00  0.00     0.116 C 
HETATM   13  C13 UNL     1       8.247   1.251   0.912  1.00  0.00     0.151 C 
HETATM   14  C14 UNL     1       8.397   2.635   1.612  1.00  0.00     0.071 C 
HETATM   15  C15 UNL     1       8.821   2.420   3.076  1.00  0.00     0.017 C 
HETATM   16  C16 UNL     1       9.345   3.653   0.938  1.00  0.00     0.361 C 
HETATM   17  C17 UNL     1      11.789   3.916   0.829  1.00  0.00     0.284 C 
HETATM   18  C18 UNL     1      12.187   3.783   2.321  1.00  0.00     0.081 C 
HETATM   19  C19 UNL     1      13.299   4.713   2.753  1.00  0.00    -0.056 A 
HETATM   20  C20 UNL     1      13.063   6.088   2.887  1.00  0.00     0.007 A 
HETATM   21  C21 UNL     1      14.090   6.947   3.281  1.00  0.00     0.001 A 
HETATM   22  C22 UNL     1      15.361   6.441   3.546  1.00  0.00     0.000 A 
HETATM   23  C23 UNL     1      15.606   5.076   3.418  1.00  0.00     0.001 A 
HETATM   24  C24 UNL     1      14.580   4.214   3.024  1.00  0.00     0.007 A 
HETATM   25  C25 UNL     1      12.941   3.551  -0.102  1.00  0.00     0.084 A 
HETATM   26  C26 UNL     1      14.506   3.773  -1.649  1.00  0.00     0.096 A 
HETATM   27  C27 UNL     1      14.702   2.443  -1.352  1.00  0.00     0.068 A 
HETATM   28  C28 UNL     1       9.363  -0.861   1.044  1.00  0.00     0.202 C 
HETATM   29  C29 UNL     1       2.171   0.043  -0.204  1.00  0.00     0.202 C 
HETATM   30  C30 UNL     1       4.102  -4.326  -1.734  1.00  0.00     0.153 C 
HETATM   31  C31 UNL     1       1.832  -4.116  -0.963  1.00  0.00     0.243 C 
HETATM   32  C32 UNL     1       0.756  -3.921   0.142  1.00  0.00     0.180 C 
HETATM   33  C33 UNL     1       0.661  -5.163   1.058  1.00  0.00     0.009 C 
HETATM   34  C34 UNL     1       0.165  -6.416   0.328  1.00  0.00     0.012 C 
HETATM   35  C35 UNL     1      -0.225  -4.888   2.276  1.00  0.00     0.012 C 
HETATM   36  C36 UNL     1      -1.321  -2.603  -0.205  1.00  0.00     0.241 C 
HETATM   37  C37 UNL     1      -2.384  -2.182  -1.252  1.00  0.00     0.182 C 
HETATM   38  C38 UNL     1      -3.072  -3.356  -1.999  1.00  0.00     0.009 C 
HETATM   39  C39 UNL     1      -3.821  -4.264  -1.014  1.00  0.00     0.012 C 
HETATM   40  C40 UNL     1      -4.062  -2.842  -3.052  1.00  0.00     0.012 C 
HETATM   41  C41 UNL     1      -0.718  -1.590  -3.061  1.00  0.00     0.153 C 
HETATM   42  C42 UNL     1      -1.811   0.207  -1.860  1.00  0.00     0.246 C 
HETATM   43  C43 UNL     1      -2.810   0.722  -0.826  1.00  0.00     0.304 C 
HETATM   44  C44 UNL     1      -6.261   0.708  -0.560  1.00  0.00     0.121 C 
HETATM   45  C45 UNL     1      -6.802   0.291  -1.913  1.00  0.00     0.201 C 
HETATM   46  C46 UNL     1      -7.857  -0.818  -1.745  1.00  0.00     0.286 C 
HETATM   47  C47 UNL     1      -8.392  -1.175  -3.156  1.00  0.00     0.160 C 
HETATM   48  C48 UNL     1      -8.250  -0.026  -4.159  1.00  0.00     0.114 C 
HETATM   49  C49 UNL     1      -8.368   1.338  -3.464  1.00  0.00     0.255 C 
HETATM   50  C50 UNL     1      -8.119   2.420  -4.562  1.00  0.00     0.205 C 
HETATM   51  C51 UNL     1      -9.928   2.428  -1.999  1.00  0.00     0.207 C 
HETATM   52  C52 UNL     1     -11.430   2.530  -1.688  1.00  0.00     0.180 C 
HETATM   53  C53 UNL     1     -12.191   1.180  -1.703  1.00  0.00     0.180 C 
HETATM   54  C54 UNL     1     -13.455   1.285  -0.846  1.00  0.00     0.183 C 
HETATM   55  C55 UNL     1     -13.124   1.707   0.596  1.00  0.00     0.204 C 
HETATM   56  C56 UNL     1     -11.755   2.423   0.671  1.00  0.00     0.292 C 
HETATM   57  C57 UNL     1     -10.480   3.835   2.121  1.00  0.00     0.124 C 
HETATM   58  C58 UNL     1     -10.673   5.332   1.888  1.00  0.00     0.040 C 
HETATM   59  C59 UNL     1     -10.000   3.518   3.556  1.00  0.00     0.006 C 
HETATM   60  C60 UNL     1     -11.007   3.923   4.637  1.00  0.00     0.012 C 
HETATM   61  C61 UNL     1      -9.686   2.024   3.695  1.00  0.00     0.012 C 
HETATM   62  C62 UNL     1      -8.349  -2.720  -0.276  1.00  0.00     0.350 C 
HETATM   63  C63 UNL     1      -7.673  -3.788   0.576  1.00  0.00     0.073 C 
HETATM   64  O1  UNL     1       5.292   0.565   0.730  1.00  0.00    -0.273 OA
HETATM   65  O2  UNL     1       8.711   4.199  -0.198  1.00  0.00    -0.367 OA
HETATM   66  O3  UNL     1       9.510   0.553   1.002  1.00  0.00    -0.388 OA
HETATM   67  O4  UNL     1       2.474  -1.342  -0.342  1.00  0.00    -0.388 OA
HETATM   68  O5  UNL     1       1.459  -4.395  -2.113  1.00  0.00    -0.271 OA
HETATM   69  O6  UNL     1      -1.168  -1.966   0.837  1.00  0.00    -0.271 OA
HETATM   70  O7  UNL     1      -1.052   1.004  -2.424  1.00  0.00    -0.271 OA
HETATM   71  O8  UNL     1      -4.146   0.458  -1.244  1.00  0.00    -0.272 OA
HETATM   72  O9  UNL     1      -7.395   1.491  -2.426  1.00  0.00    -0.333 OA
HETATM   73  O10 UNL     1      -7.077   3.019  -4.782  1.00  0.00    -0.646 OA
HETATM   74  O11 UNL     1      -9.202   2.669  -5.335  1.00  0.00    -0.772 OA
HETATM   75  O12 UNL     1      -9.697   1.395  -2.944  1.00  0.00    -0.344 OA
HETATM   76  O13 UNL     1     -11.595   3.272  -0.463  1.00  0.00    -0.348 OA
HETATM   77  O14 UNL     1     -11.733   3.182   1.888  1.00  0.00    -0.353 OA
HETATM   78  O15 UNL     1     -14.171   2.589   1.062  1.00  0.00    -0.388 OA
HETATM   79  O16 UNL     1     -14.120   0.008  -0.847  1.00  0.00    -0.390 OA
HETATM   80  O17 UNL     1     -11.403   0.094  -1.173  1.00  0.00    -0.390 OA
HETATM   81  O18 UNL     1      -9.770  -1.555  -3.050  1.00  0.00    -0.393 OA
HETATM   82  O19 UNL     1      -9.238  -3.345  -1.181  1.00  0.00    -0.368 OA
HETATM   83  N1  UNL     1       6.828   0.188  -0.921  1.00  0.00    -0.345 N 
HETATM   84  N2  UNL     1      10.602   3.110   0.485  1.00  0.00     0.123 N 
HETATM   85  N3  UNL     1      13.499   4.400  -0.945  1.00  0.00    -0.361 N 
ATOM     86  H3  UNL     1      13.226   5.376  -1.059  1.00  0.00     0.165 HD
HETATM   87  N4  UNL     1       3.193  -4.063  -0.626  1.00  0.00    -0.347 N 
HETATM   88  N5  UNL     1      -0.501  -3.649  -0.561  1.00  0.00    -0.346 N 
HETATM   89  N6  UNL     1      -1.772  -1.165  -2.146  1.00  0.00    -0.341 N 
HETATM   90  N7  UNL     1      -5.015   0.808  -0.201  1.00  0.00    -0.279 N 
ATOM     91  H7  UNL     1      -4.708   1.105   0.725  1.00  0.00     0.193 HD
HETATM   92  N8  UNL     1      -7.338  -1.999  -1.025  1.00  0.00     0.121 N 
HETATM   93  S1  UNL     1      13.588   1.948  -0.150  1.00  0.00    -0.085 SA
HETATM   94  H95 UNL     1       9.450   4.342  -0.816  1.00  0.00     0.212 HD
HETATM   95  H96 UNL     1      -8.893   3.359  -5.958  1.00  0.00     0.167 HD
HETATM   96  H97 UNL     1     -13.734   3.169   1.719  1.00  0.00     0.210 HD
HETATM   97  H98 UNL     1     -13.413  -0.652  -0.714  1.00  0.00     0.210 HD
HETATM   98  H99 UNL     1     -10.845  -0.208  -1.929  1.00  0.00     0.210 HD
HETATM   99  HA0 UNL     1      -9.764  -2.359  -2.480  1.00  0.00     0.210 HD
HETATM  100  HA1 UNL     1      -9.839  -3.891  -0.641  1.00  0.00     0.212 HD
HETATM  101  HA2 UNL     1      10.714   2.149   0.824  1.00  0.00     0.320 HD
HETATM  102  HA3 UNL     1      -0.490  -3.948  -1.531  1.00  0.00     0.163 HD
HETATM  103  HA4 UNL     1      -6.908  -2.653  -1.677  1.00  0.00     0.320 HD
ENDROOT
TORSDOF 42
