REMARK  24 active torsions:
REMARK  status: ('A' for Active; 'I' for Inactive)
REMARK    1  A    between atoms: C2_2  and  O1_46 
REMARK    2  A    between atoms: C3_3  and  C10_10 
REMARK    3  A    between atoms: C5_5  and  N1_59 
REMARK    4  A    between atoms: C8_8  and  C9_9 
REMARK       I    between atoms: C8_8  and  N1_59 
REMARK    5  A    between atoms: C9_9  and  N2_60 
REMARK       I    between atoms: C10_10  and  N3_61 
REMARK    6  A    between atoms: C11_11  and  C12_12 
REMARK    7  A    between atoms: C11_11  and  N3_61 
REMARK       I    between atoms: C12_12  and  N4_62 
REMARK    8  A    between atoms: C13_13  and  N4_62 
REMARK    9  A    between atoms: C15_15  and  C20_20 
REMARK   10  A    between atoms: C16_16  and  O5_50 
REMARK       I    between atoms: C20_20  and  N5_63 
REMARK   11  A    between atoms: C21_21  and  C22_22 
REMARK   12  A    between atoms: C21_21  and  C27_27 
REMARK   13  A    between atoms: C21_21  and  N5_63 
REMARK   14  A    between atoms: C22_22  and  C24_24 
REMARK   15  A    between atoms: C24_24  and  C25_25 
REMARK   16  A    between atoms: C25_25  and  N6_64 
REMARK       I    between atoms: C26_26  and  N6_64 
REMARK       I    between atoms: C26_26  and  N7_65 
REMARK       I    between atoms: C27_27  and  N8_66 
REMARK   17  A    between atoms: C28_28  and  N8_66 
REMARK   18  A    between atoms: C30_30  and  C35_35 
REMARK   19  A    between atoms: C31_31  and  O9_54 
REMARK       I    between atoms: C35_35  and  N9_67 
REMARK   20  A    between atoms: C36_36  and  C37_37 
REMARK   21  A    between atoms: C36_36  and  N9_67 
REMARK       I    between atoms: C37_37  and  N10_68 
REMARK   22  A    between atoms: C38_38  and  N10_68 
REMARK   23  A    between atoms: C40_40  and  C45_45 
REMARK   24  A    between atoms: C41_41  and  O12_57 
REMARK       I    between atoms: C45_45  and  N11_69 
ROOT
HETATM    1  C21 UNL     1      -0.408  -4.089  -3.107  1.00  0.00     0.206 C 
ENDROOT
BRANCH   1   2
HETATM    2  C22 UNL     1      -0.484  -4.997  -1.891  1.00  0.00    -0.056 C 
HETATM    3  C23 UNL     1      -0.662  -4.534  -0.638  1.00  0.00     0.017 C 
BRANCH   2   4
HETATM    4  C24 UNL     1      -0.299  -6.488  -2.127  1.00  0.00     0.055 C 
BRANCH   4   5
HETATM    5  C25 UNL     1       1.059  -6.895  -2.726  1.00  0.00     0.128 C 
BRANCH   5   6
HETATM    6  N6  UNL     1       2.194  -6.320  -2.036  1.00  0.00    -0.343 N 
HETATM    7  C26 UNL     1       2.572  -6.757  -0.805  1.00  0.00     0.313 C 
HETATM    8  O7  UNL     1       2.110  -7.725  -0.219  1.00  0.00    -0.248 OA
HETATM    9  N7  UNL     1       3.548  -5.987  -0.265  1.00  0.00    -0.352 N 
HETATM   10  H45 UNL     1       4.193  -5.544  -0.904  1.00  0.00     0.160 HD
HETATM   11  H46 UNL     1       3.957  -6.366   0.578  1.00  0.00     0.160 HD
HETATM   12  H44 UNL     1       2.402  -5.345  -2.242  1.00  0.00     0.164 HD
ENDBRANCH   5   6
ENDBRANCH   4   5
ENDBRANCH   2   4
ENDBRANCH   1   2
BRANCH   1  13
HETATM   13  C27 UNL     1       0.882  -3.194  -3.071  1.00  0.00     0.249 C 
HETATM   14  O8  UNL     1       1.996  -3.721  -3.132  1.00  0.00    -0.271 OA
HETATM   15  N8  UNL     1       0.656  -1.850  -2.883  1.00  0.00    -0.325 N 
HETATM   16  H47 UNL     1      -0.319  -1.602  -2.710  1.00  0.00     0.169 HD
BRANCH  15  17
HETATM   17  C28 UNL     1       1.587  -0.813  -2.700  1.00  0.00     0.035 A 
HETATM   18  C29 UNL     1       2.969  -0.979  -2.711  1.00  0.00     0.049 A 
HETATM   19  C30 UNL     1       3.825   0.114  -2.474  1.00  0.00     0.067 A 
HETATM   20  C31 UNL     1       3.287   1.395  -2.225  1.00  0.00     0.084 A 
HETATM   21  C32 UNL     1       1.900   1.556  -2.241  1.00  0.00     0.040 A 
HETATM   22  C33 UNL     1       1.062   0.462  -2.470  1.00  0.00     0.032 A 
BRANCH  19  23
HETATM   23  C35 UNL     1       5.290  -0.186  -2.415  1.00  0.00     0.254 C 
HETATM   24  O10 UNL     1       5.685  -1.304  -2.109  1.00  0.00    -0.268 OA
HETATM   25  N9  UNL     1       6.149   0.861  -2.666  1.00  0.00    -0.348 N 
HETATM   26  H48 UNL     1       5.747   1.775  -2.855  1.00  0.00     0.163 HD
BRANCH  25  27
HETATM   27  C36 UNL     1       7.570   0.793  -2.345  1.00  0.00     0.226 C 
BRANCH  27  28
HETATM   28  C37 UNL     1       7.913   1.411  -0.974  1.00  0.00     0.239 C 
HETATM   29  O11 UNL     1       9.082   1.568  -0.630  1.00  0.00    -0.271 OA
HETATM   30  N10 UNL     1       6.796   1.734  -0.226  1.00  0.00    -0.326 N 
HETATM   31  H49 UNL     1       5.911   1.495  -0.661  1.00  0.00     0.169 HD
BRANCH  30  32
HETATM   32  C38 UNL     1       6.724   2.322   1.047  1.00  0.00     0.035 A 
HETATM   33  C39 UNL     1       5.447   2.534   1.574  1.00  0.00     0.049 A 
HETATM   34  C40 UNL     1       5.260   3.135   2.833  1.00  0.00     0.067 A 
HETATM   35  C41 UNL     1       6.383   3.522   3.589  1.00  0.00     0.084 A 
HETATM   36  C42 UNL     1       7.661   3.296   3.057  1.00  0.00     0.040 A 
HETATM   37  C43 UNL     1       7.829   2.705   1.797  1.00  0.00     0.032 A 
BRANCH  34  38
HETATM   38  C45 UNL     1       3.834   3.319   3.255  1.00  0.00     0.252 C 
HETATM   39  O13 UNL     1       2.909   3.177   2.460  1.00  0.00    -0.268 OA
HETATM   40  N11 UNL     1       3.590   3.639   4.557  1.00  0.00    -0.366 N 
HETATM   41  H50 UNL     1       4.342   3.825   5.208  1.00  0.00     0.159 HD
HETATM   42  H51 UNL     1       2.630   3.779   4.875  1.00  0.00     0.159 HD
ENDBRANCH  34  38
BRANCH  35  43
HETATM   43  O12 UNL     1       6.168   4.106   4.811  1.00  0.00    -0.355 OA
HETATM   44  C44 UNL     1       7.303   4.536   5.554  1.00  0.00     0.210 C 
ENDBRANCH  35  43
ENDBRANCH  30  32
ENDBRANCH  27  28
ENDBRANCH  25  27
ENDBRANCH  19  23
BRANCH  20  45
HETATM   45  O9  UNL     1       4.165   2.418  -1.960  1.00  0.00    -0.355 OA
HETATM   46  C34 UNL     1       3.618   3.671  -1.553  1.00  0.00     0.210 C 
ENDBRANCH  20  45
ENDBRANCH  15  17
ENDBRANCH   1  13
BRANCH   1  47
HETATM   47  N5  UNL     1      -1.741  -3.568  -3.417  1.00  0.00    -0.340 N 
HETATM   48  C20 UNL     1      -2.406  -2.589  -2.721  1.00  0.00     0.255 C 
HETATM   49  O6  UNL     1      -1.810  -1.772  -2.024  1.00  0.00    -0.268 OA
HETATM   50  H43 UNL     1      -2.353  -4.242  -3.867  1.00  0.00     0.164 HD
BRANCH  48  51
HETATM   51  C15 UNL     1      -3.891  -2.482  -2.884  1.00  0.00     0.067 A 
HETATM   52  C14 UNL     1      -4.477  -1.304  -2.381  1.00  0.00     0.049 A 
HETATM   53  C13 UNL     1      -5.852  -1.079  -2.464  1.00  0.00     0.035 A 
HETATM   54  C18 UNL     1      -6.653  -2.049  -3.056  1.00  0.00     0.032 A 
HETATM   55  C17 UNL     1      -6.087  -3.230  -3.557  1.00  0.00     0.040 A 
HETATM   56  C16 UNL     1      -4.708  -3.465  -3.472  1.00  0.00     0.084 A 
BRANCH  53  57
HETATM   57  N4  UNL     1      -6.332   0.129  -1.931  1.00  0.00    -0.326 N 
HETATM   58  C12 UNL     1      -7.632   0.596  -1.891  1.00  0.00     0.239 C 
HETATM   59  O4  UNL     1      -8.614   0.051  -2.390  1.00  0.00    -0.271 OA
HETATM   60  H42 UNL     1      -5.635   0.758  -1.526  1.00  0.00     0.169 HD
BRANCH  58  61
HETATM   61  C11 UNL     1      -7.748   1.982  -1.239  1.00  0.00     0.226 C 
BRANCH  61  62
HETATM   62  N3  UNL     1      -7.194   2.049   0.105  1.00  0.00    -0.348 N 
HETATM   63  C10 UNL     1      -5.859   2.221   0.370  1.00  0.00     0.254 C 
HETATM   64  O3  UNL     1      -5.027   2.168  -0.535  1.00  0.00    -0.268 OA
HETATM   65  H41 UNL     1      -7.841   2.061   0.889  1.00  0.00     0.163 HD
BRANCH  63  66
HETATM   66  C3  UNL     1      -5.436   2.437   1.793  1.00  0.00     0.067 A 
HETATM   67  C2  UNL     1      -6.318   2.483   2.891  1.00  0.00     0.084 A 
HETATM   68  C7  UNL     1      -5.789   2.707   4.167  1.00  0.00     0.040 A 
HETATM   69  C6  UNL     1      -4.412   2.883   4.360  1.00  0.00     0.032 A 
HETATM   70  C5  UNL     1      -3.530   2.836   3.285  1.00  0.00     0.035 A 
HETATM   71  C4  UNL     1      -4.051   2.609   2.007  1.00  0.00     0.049 A 
BRANCH  67  72
HETATM   72  O1  UNL     1      -7.657   2.308   2.652  1.00  0.00    -0.355 OA
HETATM   73  C1  UNL     1      -8.538   2.289   3.772  1.00  0.00     0.210 C 
ENDBRANCH  67  72
BRANCH  70  74
HETATM   74  N1  UNL     1      -2.134   3.005   3.402  1.00  0.00    -0.326 N 
HETATM   75  C8  UNL     1      -1.415   3.286   4.553  1.00  0.00     0.250 C 
HETATM   76  O2  UNL     1      -1.875   3.440   5.682  1.00  0.00    -0.271 OA
HETATM   77  H38 UNL     1      -1.598   2.921   2.544  1.00  0.00     0.169 HD
BRANCH  75  78
HETATM   78  C9  UNL     1       0.096   3.403   4.287  1.00  0.00     0.369 C 
BRANCH  78  79
HETATM   79  N2  UNL     1       0.804   3.864   5.501  1.00  0.00     0.087 N 
HETATM   80  H39 UNL     1       0.538   3.220   6.254  1.00  0.00     0.313 HD
HETATM   81  H40 UNL     1       0.357   4.739   5.792  1.00  0.00     0.313 HD
ENDBRANCH  78  79
ENDBRANCH  75  78
ENDBRANCH  70  74
ENDBRANCH  63  66
ENDBRANCH  61  62
ENDBRANCH  58  61
ENDBRANCH  53  57
BRANCH  56  82
HETATM   82  O5  UNL     1      -4.104  -4.605  -3.939  1.00  0.00    -0.355 OA
HETATM   83  C19 UNL     1      -4.948  -5.681  -4.340  1.00  0.00     0.210 C 
ENDBRANCH  56  82
ENDBRANCH  48  51
ENDBRANCH   1  47
TORSDOF 24
