REMARK  15 active torsions:
REMARK  status: ('A' for Active; 'I' for Inactive)
REMARK    1  A    between atoms: C3_3  and  N2_33 
REMARK    2  A    between atoms: C4_4  and  C5_5 
REMARK       I    between atoms: C4_4  and  N2_33 
REMARK    3  A    between atoms: C7_7  and  N3_34 
REMARK    4  A    between atoms: C8_8  and  C9_9 
REMARK       I    between atoms: C8_8  and  N3_34 
REMARK    5  A    between atoms: C11_11  and  N4_35 
REMARK    6  A    between atoms: C12_12  and  C13_13 
REMARK       I    between atoms: C12_12  and  N4_35 
REMARK    7  A    between atoms: C14_14  and  N6_38 
REMARK    8  A    between atoms: C15_15  and  C16_16 
REMARK    9  A    between atoms: C15_15  and  N6_38 
REMARK   10  A    between atoms: C16_16  and  N7_39 
REMARK   11  A    between atoms: C27_27  and  C28_28 
REMARK       I    between atoms: C28_28  and  N10_42 
REMARK   12  A    between atoms: C29_29  and  C30_30 
REMARK   13  A    between atoms: C29_29  and  N10_42 
REMARK   14  A    between atoms: C30_30  and  C31_31 
REMARK   15  A    between atoms: C31_31  and  O6_48 
ROOT
HETATM    1  C8  UNL     1       0.151   2.355   1.347  1.00  0.00     0.273 C 
HETATM    2  N3  UNL     1       0.885   1.219   1.056  1.00  0.00    -0.320 N 
HETATM    3  O2  UNL     1       0.609   3.355   1.894  1.00  0.00    -0.266 OA
HETATM    4  H35 UNL     1       0.439   0.484   0.528  1.00  0.00     0.169 HD
ENDROOT
BRANCH   1   5
HETATM    5  C9  UNL     1      -1.245   2.282   0.918  1.00  0.00     0.105 A 
HETATM    6  C10 UNL     1      -2.017   1.180   0.560  1.00  0.00     0.066 A 
HETATM    7  C11 UNL     1      -3.321   1.619   0.222  1.00  0.00     0.053 A 
HETATM    8  C22 UNL     1      -3.330   2.980   0.384  1.00  0.00     0.120 A 
HETATM    9  N8  UNL     1      -2.089   3.376   0.814  1.00  0.00    -0.354 N 
HETATM   10  C23 UNL     1      -1.737   4.754   1.093  1.00  0.00     0.156 C 
BRANCH   7  11
HETATM   11  N4  UNL     1      -4.353   0.800  -0.182  1.00  0.00    -0.320 N 
HETATM   12  C12 UNL     1      -5.638   1.194  -0.520  1.00  0.00     0.275 C 
HETATM   13  O3  UNL     1      -6.053   2.348  -0.513  1.00  0.00    -0.266 OA
HETATM   14  H36 UNL     1      -4.172  -0.197  -0.239  1.00  0.00     0.169 HD
BRANCH  12  15
HETATM   15  C13 UNL     1      -6.489   0.044  -0.900  1.00  0.00     0.131 A 
HETATM   16  C21 UNL     1      -7.866   0.087  -1.322  1.00  0.00     0.096 A 
HETATM   17  C14 UNL     1      -8.364  -1.182  -1.590  1.00  0.00     0.091 A 
HETATM   18 CL1  UNL     1      -8.809   1.517  -1.467  1.00  0.00    -0.079 Cl
HETATM   19  S1  UNL     1      -7.082  -2.293  -1.332  1.00  0.00    -0.000 SA
HETATM   20  N5  UNL     1      -5.953  -1.189  -0.857  1.00  0.00    -0.319 N 
ATOM     21  H5  UNL     1      -4.997  -1.407  -0.575  1.00  0.00     0.174 HD
BRANCH  17  22
HETATM   22  N6  UNL     1      -9.624  -1.498  -2.025  1.00  0.00    -0.283 NA
HETATM   23  H37 UNL     1     -10.276  -0.704  -2.019  1.00  0.00     0.128 HD
BRANCH  22  24
HETATM   24  C15 UNL     1     -10.328  -2.670  -1.493  1.00  0.00     0.123 C 
BRANCH  24  25
HETATM   25  C16 UNL     1     -11.114  -2.286  -0.218  1.00  0.00     0.287 C 
BRANCH  25  26
HETATM   26  N7  UNL     1     -11.936  -1.066  -0.387  1.00  0.00     0.093 N 
HETATM   27  C17 UNL     1     -12.398  -0.573   0.930  1.00  0.00     0.298 C 
HETATM   28  C18 UNL     1     -13.304   0.659   0.785  1.00  0.00     0.198 C 
HETATM   29  O4  UNL     1     -14.444   0.364  -0.034  1.00  0.00    -0.388 OA
HETATM   30  C19 UNL     1     -14.014  -0.062  -1.333  1.00  0.00     0.198 C 
HETATM   31  C20 UNL     1     -13.121  -1.310  -1.241  1.00  0.00     0.298 C 
ENDBRANCH  25  26
ENDBRANCH  24  25
ENDBRANCH  22  24
ENDBRANCH  17  22
ENDBRANCH  12  15
ENDBRANCH   7  11
ENDBRANCH   1   5
BRANCH   2  32
HETATM   32  C7  UNL     1       2.211   1.001   1.378  1.00  0.00     0.053 A 
HETATM   33  C6  UNL     1       2.951  -0.154   1.026  1.00  0.00     0.066 A 
HETATM   34  C5  UNL     1       4.250  -0.008   1.493  1.00  0.00     0.105 A 
HETATM   35  N9  UNL     1       4.275   1.177   2.200  1.00  0.00    -0.354 N 
HETATM   36  C24 UNL     1       3.062   1.809   2.092  1.00  0.00     0.120 A 
HETATM   37  C25 UNL     1       5.363   1.666   3.021  1.00  0.00     0.156 C 
BRANCH  34  38
HETATM   38  C4  UNL     1       5.342  -0.952   1.325  1.00  0.00     0.273 C 
HETATM   39  N2  UNL     1       6.512  -0.343   0.908  1.00  0.00    -0.320 N 
HETATM   40  H34 UNL     1       6.461   0.629   0.640  1.00  0.00     0.169 HD
HETATM   41  O1  UNL     1       5.183  -2.155   1.495  1.00  0.00    -0.266 OA
BRANCH  39  42
HETATM   42  C3  UNL     1       7.727  -0.970   0.716  1.00  0.00     0.053 A 
HETATM   43  C2  UNL     1       8.061  -2.274   0.980  1.00  0.00     0.120 A 
HETATM   44  N1  UNL     1       9.380  -2.460   0.655  1.00  0.00    -0.354 N 
HETATM   45  C1  UNL     1      10.075  -3.723   0.805  1.00  0.00     0.156 C 
HETATM   46  C27 UNL     1       9.924  -1.286   0.161  1.00  0.00     0.104 A 
HETATM   47  C26 UNL     1       8.896  -0.348   0.209  1.00  0.00     0.066 A 
BRANCH  46  48
HETATM   48  C28 UNL     1      11.304  -1.143  -0.279  1.00  0.00     0.268 C 
HETATM   49  N10 UNL     1      11.581   0.023  -0.961  1.00  0.00    -0.356 N 
HETATM   50  H38 UNL     1      10.826   0.652  -1.186  1.00  0.00     0.162 HD
HETATM   51  O5  UNL     1      12.168  -1.993  -0.087  1.00  0.00    -0.266 OA
BRANCH  49  52
HETATM   52  C29 UNL     1      12.899   0.310  -1.490  1.00  0.00     0.125 C 
BRANCH  52  53
HETATM   53  C30 UNL     1      13.210  -0.451  -2.776  1.00  0.00     0.046 C 
BRANCH  53  54
HETATM   54  C31 UNL     1      12.290  -0.060  -3.924  1.00  0.00     0.165 C 
BRANCH  54  55
HETATM   55  O6  UNL     1      12.691  -0.728  -5.114  1.00  0.00    -0.401 OA
HETATM   56  H39 UNL     1      12.638  -1.685  -4.944  1.00  0.00     0.209 HD
ENDBRANCH  54  55
ENDBRANCH  53  54
ENDBRANCH  52  53
ENDBRANCH  49  52
ENDBRANCH  46  48
ENDBRANCH  39  42
ENDBRANCH  34  38
ENDBRANCH   2  32
TORSDOF 15
