REMARK  11 active torsions:
REMARK  status: ('A' for Active; 'I' for Inactive)
REMARK    1  A    between atoms: C5_5  and  C6_6 
REMARK       I    between atoms: C6_6  and  N1_33 
REMARK    2  A    between atoms: C7_7  and  N1_33 
REMARK    3  A    between atoms: C10_10  and  C11_11 
REMARK    4  A    between atoms: C11_11  and  N2_34 
REMARK    5  A    between atoms: C14_14  and  C15_15 
REMARK    6  A    between atoms: C14_14  and  N3_35 
REMARK    7  A    between atoms: C15_15  and  O2_31 
REMARK    8  A    between atoms: C18_18  and  C19_19 
REMARK    9  A    between atoms: C22_22  and  C23_23 
REMARK   10  A    between atoms: C24_24  and  C25_25 
REMARK   11  A    between atoms: C27_27  and  C28_28 
REMARK       I    between atoms: C28_28  and  N5_38 
ROOT
HETATM    1  C6  UNL     1       0.545   0.311   3.101  1.00  0.00     0.256 C 
HETATM    2  O1  UNL     1      -0.148   1.022   3.818  1.00  0.00    -0.267 OA
HETATM    3  N1  UNL     1       0.149  -0.346   1.950  1.00  0.00    -0.323 N 
HETATM    4  H29 UNL     1       0.805  -1.003   1.548  1.00  0.00     0.169 HD
ENDROOT
BRANCH   1   5
HETATM    5  C5  UNL     1       1.959   0.073   3.504  1.00  0.00     0.033 A 
HETATM    6  C4  UNL     1       2.262   0.000   4.867  1.00  0.00     0.017 A 
HETATM    7  C3  UNL     1       3.576  -0.222   5.283  1.00  0.00     0.009 A 
HETATM    8  C2  UNL     1       4.609  -0.366   4.345  1.00  0.00    -0.043 A 
HETATM    9  C1  UNL     1       6.016  -0.598   4.825  1.00  0.00     0.049 C 
HETATM   10  C22 UNL     1       4.303  -0.270   2.975  1.00  0.00     0.025 A 
HETATM   11  C21 UNL     1       2.984  -0.047   2.558  1.00  0.00     0.038 A 
BRANCH  10  12
HETATM   12  C23 UNL     1       5.321  -0.389   1.973  1.00  0.00    -0.059 C 
HETATM   13  C24 UNL     1       6.175  -0.491   1.134  1.00  0.00    -0.042 C 
BRANCH  13  14
HETATM   14  C25 UNL     1       7.186  -0.614   0.145  1.00  0.00     0.106 A 
HETATM   15  C26 UNL     1       7.390   0.186  -0.955  1.00  0.00     0.129 A 
HETATM   16  N4  UNL     1       8.468  -0.246  -1.685  1.00  0.00    -0.345 N 
HETATM   17  C27 UNL     1       8.934  -1.308  -1.041  1.00  0.00     0.177 A 
ATOM     18  H4  UNL     1       8.835   0.164  -2.544  1.00  0.00     0.167 HD
HETATM   19  N6  UNL     1       8.175  -1.562   0.083  1.00  0.00    -0.325 N 
HETATM   20  C29 UNL     1       8.403  -2.641   1.016  1.00  0.00     0.159 C 
BRANCH  17  21
HETATM   21  C28 UNL     1      10.088  -2.065  -1.497  1.00  0.00     0.283 C 
HETATM   22  O3  UNL     1      10.557  -3.052  -0.938  1.00  0.00    -0.265 OA
HETATM   23  N5  UNL     1      10.647  -1.583  -2.647  1.00  0.00    -0.363 N 
HETATM   24  H30 UNL     1      10.239  -0.765  -3.085  1.00  0.00     0.159 HD
HETATM   25  H31 UNL     1      11.454  -2.039  -3.043  1.00  0.00     0.159 HD
ENDBRANCH  17  21
ENDBRANCH  13  14
ENDBRANCH  10  12
ENDBRANCH   1   5
BRANCH   3  26
HETATM   26  C7  UNL     1      -1.109  -0.276   1.315  1.00  0.00     0.035 A 
HETATM   27  C8  UNL     1      -2.143   0.559   1.725  1.00  0.00     0.030 A 
HETATM   28  C9  UNL     1      -3.357   0.577   1.030  1.00  0.00     0.012 A 
HETATM   29  C10 UNL     1      -3.567  -0.240  -0.094  1.00  0.00    -0.015 A 
HETATM   30  C18 UNL     1      -2.531  -1.103  -0.512  1.00  0.00     0.058 A 
HETATM   31  C20 UNL     1      -1.310  -1.095   0.197  1.00  0.00     0.046 A 
BRANCH  29  32
HETATM   32  C11 UNL     1      -4.904  -0.160  -0.811  1.00  0.00     0.311 C 
BRANCH  32  33
HETATM   33  N2  UNL     1      -4.749   0.227  -2.220  1.00  0.00     0.096 N 
HETATM   34  C12 UNL     1      -5.950  -0.127  -2.997  1.00  0.00     0.303 C 
HETATM   35  C13 UNL     1      -7.227   0.685  -2.646  1.00  0.00     0.302 C 
HETATM   36  N3  UNL     1      -6.965   2.022  -2.066  1.00  0.00     0.093 N 
HETATM   37  C16 UNL     1      -5.725   2.576  -2.635  1.00  0.00     0.302 C 
HETATM   38  C17 UNL     1      -4.485   1.677  -2.374  1.00  0.00     0.303 C 
BRANCH  36  39
HETATM   39  C14 UNL     1      -8.100   2.948  -2.260  1.00  0.00     0.298 C 
BRANCH  39  40
HETATM   40  C15 UNL     1      -9.332   2.516  -1.450  1.00  0.00     0.194 C 
BRANCH  40  41
HETATM   41  O2  UNL     1      -8.963   2.298  -0.089  1.00  0.00    -0.399 OA
HETATM   42  H28 UNL     1      -8.046   1.960  -0.131  1.00  0.00     0.209 HD
ENDBRANCH  40  41
ENDBRANCH  39  40
ENDBRANCH  36  39
ENDBRANCH  32  33
ENDBRANCH  29  32
BRANCH  30  43
HETATM   43  C19 UNL     1      -2.661  -2.020  -1.712  1.00  0.00     0.418 C 
HETATM   44  F1  UNL     1      -1.779  -3.067  -1.651  1.00  0.00    -0.166 F 
HETATM   45  F2  UNL     1      -3.881  -2.613  -1.840  1.00  0.00    -0.166 F 
HETATM   46  F3  UNL     1      -2.390  -1.407  -2.897  1.00  0.00    -0.166 F 
ENDBRANCH  30  43
ENDBRANCH   3  26
TORSDOF 11
