REMARK  22 active torsions:
REMARK  status: ('A' for Active; 'I' for Inactive)
REMARK    1  A    between atoms: C2_2  and  C3_3 
REMARK       I    between atoms: C2_2  and  N1_51 
REMARK    2  A    between atoms: C5_5  and  N3_53 
REMARK    3  A    between atoms: C8_8  and  C9_9 
REMARK       I    between atoms: C8_8  and  N3_53 
REMARK    4  A    between atoms: C11_11  and  N5_55 
REMARK    5  A    between atoms: C14_14  and  C15_15 
REMARK       I    between atoms: C14_14  and  N5_55 
REMARK    6  A    between atoms: C17_17  and  N7_57 
REMARK    7  A    between atoms: C20_20  and  C21_21 
REMARK       I    between atoms: C20_20  and  N7_57 
REMARK    8  A    between atoms: C24_24  and  C25_25 
REMARK    9  A    between atoms: C24_24  and  N9_60 
REMARK   10  A    between atoms: C25_25  and  C26_26 
REMARK   11  A    between atoms: C26_26  and  N10_61 
REMARK   12  A    between atoms: C28_28  and  N12_63 
REMARK   13  A    between atoms: C30_30  and  C31_31 
REMARK       I    between atoms: C31_31  and  N11_62 
REMARK   14  A    between atoms: C33_33  and  C34_34 
REMARK       I    between atoms: C33_33  and  N12_63 
REMARK   15  A    between atoms: C36_36  and  N15_66 
REMARK   16  A    between atoms: C38_38  and  C39_39 
REMARK   17  A    between atoms: C38_38  and  N13_64 
REMARK   18  A    between atoms: C39_39  and  C40_40 
REMARK   19  A    between atoms: C40_40  and  N14_65 
REMARK   20  A    between atoms: C41_41  and  C42_42 
REMARK       I    between atoms: C41_41  and  N15_66 
REMARK   21  A    between atoms: C43_43  and  N18_70 
REMARK   22  A    between atoms: C46_46  and  C47_47 
REMARK       I    between atoms: C46_46  and  N18_70 
ROOT
HETATM    1  C27 UNL     1      -2.961   3.941   1.981  1.00  0.00     0.121 A 
HETATM    2  C28 UNL     1      -3.205   3.386   0.747  1.00  0.00     0.053 A 
HETATM    3  C29 UNL     1      -2.079   3.669  -0.057  1.00  0.00     0.066 A 
HETATM    4  C30 UNL     1      -1.162   4.394   0.695  1.00  0.00     0.105 A 
HETATM    5  N10 UNL     1      -1.718   4.529   1.952  1.00  0.00    -0.350 N 
ENDROOT
BRANCH   5   6
HETATM    6  C26 UNL     1      -1.080   5.129   3.114  1.00  0.00     0.130 C 
BRANCH   6   7
HETATM    7  C25 UNL     1       0.132   4.351   3.631  1.00  0.00     0.040 C 
BRANCH   7   8
HETATM    8  C24 UNL     1      -0.207   2.920   4.046  1.00  0.00     0.132 C 
BRANCH   8   9
HETATM    9  N9  UNL     1       0.971   2.197   4.494  1.00  0.00    -0.337 N 
HETATM   10  C21 UNL     1       1.890   1.531   3.713  1.00  0.00     0.176 A 
HETATM   11  N8  UNL     1       2.845   1.009   4.476  1.00  0.00    -0.346 N 
HETATM   12  C22 UNL     1       2.520   1.338   5.765  1.00  0.00     0.107 A 
ATOM     13  H8  UNL     1       3.655   0.473   4.165  1.00  0.00     0.167 HD
HETATM   14  C23 UNL     1       1.362   2.074   5.801  1.00  0.00     0.110 A 
BRANCH  10  15
HETATM   15  C20 UNL     1       1.891   1.385   2.259  1.00  0.00     0.290 C 
HETATM   16  N7  UNL     1       3.002   0.683   1.830  1.00  0.00    -0.319 N 
HETATM   17  H52 UNL     1       3.639   0.400   2.571  1.00  0.00     0.169 HD
HETATM   18  O4  UNL     1       1.015   1.843   1.531  1.00  0.00    -0.264 OA
BRANCH  16  19
HETATM   19  C17 UNL     1       3.316   0.343   0.533  1.00  0.00     0.053 A 
HETATM   20  C16 UNL     1       4.493  -0.336   0.130  1.00  0.00     0.066 A 
HETATM   21  C15 UNL     1       4.470  -0.503  -1.252  1.00  0.00     0.105 A 
HETATM   22  N6  UNL     1       3.269   0.046  -1.673  1.00  0.00    -0.354 N 
HETATM   23  C18 UNL     1       2.582   0.563  -0.604  1.00  0.00     0.120 A 
HETATM   24  C19 UNL     1       2.787   0.096  -3.038  1.00  0.00     0.156 C 
BRANCH  21  25
HETATM   25  C14 UNL     1       5.444  -1.135  -2.142  1.00  0.00     0.273 C 
HETATM   26  N5  UNL     1       6.690  -1.318  -1.566  1.00  0.00    -0.320 N 
HETATM   27  H51 UNL     1       6.840  -0.958  -0.637  1.00  0.00     0.169 HD
HETATM   28  O3  UNL     1       5.161  -1.443  -3.295  1.00  0.00    -0.266 OA
BRANCH  26  29
HETATM   29  C11 UNL     1       7.785  -1.912  -2.166  1.00  0.00     0.053 A 
HETATM   30  C10 UNL     1       9.065  -2.047  -1.570  1.00  0.00     0.066 A 
HETATM   31  C9  UNL     1       9.914  -2.697  -2.463  1.00  0.00     0.105 A 
HETATM   32  N4  UNL     1       9.141  -2.973  -3.578  1.00  0.00    -0.354 N 
HETATM   33  C12 UNL     1       7.869  -2.489  -3.407  1.00  0.00     0.120 A 
HETATM   34  C13 UNL     1       9.589  -3.653  -4.777  1.00  0.00     0.156 C 
BRANCH  31  35
HETATM   35  C8  UNL     1      11.320  -3.072  -2.320  1.00  0.00     0.273 C 
HETATM   36  N3  UNL     1      11.984  -2.368  -1.331  1.00  0.00    -0.320 N 
HETATM   37  H50 UNL     1      11.488  -1.627  -0.862  1.00  0.00     0.169 HD
HETATM   38  O2  UNL     1      11.839  -3.919  -3.041  1.00  0.00    -0.266 OA
BRANCH  36  39
HETATM   39  C5  UNL     1      13.305  -2.538  -0.958  1.00  0.00     0.053 A 
HETATM   40  C4  UNL     1      13.979  -1.767   0.023  1.00  0.00     0.066 A 
HETATM   41  C3  UNL     1      15.289  -2.222   0.135  1.00  0.00     0.104 A 
HETATM   42  N2  UNL     1      15.396  -3.275  -0.757  1.00  0.00    -0.354 N 
HETATM   43  C6  UNL     1      14.211  -3.457  -1.422  1.00  0.00     0.120 A 
HETATM   44  C7  UNL     1      16.581  -4.077  -0.987  1.00  0.00     0.156 C 
BRANCH  41  45
HETATM   45  C2  UNL     1      16.366  -1.762   0.998  1.00  0.00     0.268 C 
HETATM   46  N1  UNL     1      16.150  -0.533   1.587  1.00  0.00    -0.360 N 
HETATM   47  C1  UNL     1      17.180   0.104   2.367  1.00  0.00     0.149 C 
HETATM   48  H49 UNL     1      15.405   0.041   1.225  1.00  0.00     0.162 HD
HETATM   49  O1  UNL     1      17.404  -2.392   1.182  1.00  0.00    -0.266 OA
ENDBRANCH  41  45
ENDBRANCH  36  39
ENDBRANCH  31  35
ENDBRANCH  26  29
ENDBRANCH  21  25
ENDBRANCH  16  19
ENDBRANCH  10  15
ENDBRANCH   8   9
ENDBRANCH   7   8
ENDBRANCH   6   7
ENDBRANCH   5   6
BRANCH   4  50
HETATM   50  C31 UNL     1       0.131   4.915   0.292  1.00  0.00     0.268 C 
HETATM   51  N11 UNL     1       0.769   4.148  -0.659  1.00  0.00    -0.360 N 
HETATM   52  C32 UNL     1       2.145   4.398  -0.994  1.00  0.00     0.149 C 
HETATM   53  H53 UNL     1       0.443   3.191  -0.718  1.00  0.00     0.162 HD
HETATM   54  O5  UNL     1       0.640   5.918   0.784  1.00  0.00    -0.266 OA
ENDBRANCH   4  50
BRANCH   2  55
HETATM   55  N12 UNL     1      -4.370   2.704   0.454  1.00  0.00    -0.320 N 
HETATM   56  C33 UNL     1      -4.652   2.079  -0.748  1.00  0.00     0.273 C 
HETATM   57  O6  UNL     1      -3.873   2.033  -1.696  1.00  0.00    -0.266 OA
HETATM   58  H54 UNL     1      -5.042   2.633   1.202  1.00  0.00     0.169 HD
BRANCH  56  59
HETATM   59  C34 UNL     1      -5.967   1.439  -0.790  1.00  0.00     0.105 A 
HETATM   60  C35 UNL     1      -7.060   1.617   0.056  1.00  0.00     0.066 A 
HETATM   61  C36 UNL     1      -8.119   0.788  -0.375  1.00  0.00     0.053 A 
HETATM   62  C37 UNL     1      -7.670   0.120  -1.486  1.00  0.00     0.121 A 
HETATM   63  N13 UNL     1      -6.376   0.511  -1.737  1.00  0.00    -0.350 N 
BRANCH  61  64
HETATM   64  N15 UNL     1      -9.383   0.617   0.141  1.00  0.00    -0.319 N 
HETATM   65  C41 UNL     1      -9.899   1.244   1.258  1.00  0.00     0.290 C 
HETATM   66  O7  UNL     1      -9.299   2.045   1.970  1.00  0.00    -0.264 OA
HETATM   67  H57 UNL     1     -10.016  -0.029  -0.328  1.00  0.00     0.169 HD
BRANCH  65  68
HETATM   68  C42 UNL     1     -11.274   0.832   1.506  1.00  0.00     0.178 A 
HETATM   69  N16 UNL     1     -11.903  -0.042   0.734  1.00  0.00    -0.323 N 
HETATM   70  C43 UNL     1     -13.150  -0.184   1.261  1.00  0.00     0.125 A 
ATOM     71  H16 UNL     1     -11.528  -0.513  -0.089  1.00  0.00     0.169 HD
HETATM   72  C44 UNL     1     -13.304   0.610   2.372  1.00  0.00     0.140 A 
HETATM   73  N17 UNL     1     -12.104   1.252   2.518  1.00  0.00    -0.339 N 
HETATM   74  C45 UNL     1     -11.776   2.202   3.553  1.00  0.00     0.157 C 
BRANCH  70  75
HETATM   75  N18 UNL     1     -14.112  -1.007   0.748  1.00  0.00    -0.305 N 
HETATM   76  C46 UNL     1     -13.968  -1.807  -0.365  1.00  0.00     0.291 C 
HETATM   77  O8  UNL     1     -12.968  -1.904  -1.069  1.00  0.00    -0.264 OA
HETATM   78  H58 UNL     1     -15.014  -1.050   1.210  1.00  0.00     0.170 HD
BRANCH  76  79
HETATM   79  C47 UNL     1     -15.192  -2.560  -0.625  1.00  0.00     0.176 A 
HETATM   80  N19 UNL     1     -16.278  -2.451   0.133  1.00  0.00    -0.346 N 
HETATM   81  C48 UNL     1     -17.203  -3.299  -0.419  1.00  0.00     0.107 A 
ATOM     82  H19 UNL     1     -16.398  -1.859   0.955  1.00  0.00     0.167 HD
HETATM   83  C49 UNL     1     -16.687  -3.934  -1.521  1.00  0.00     0.109 A 
HETATM   84  N20 UNL     1     -15.410  -3.458  -1.643  1.00  0.00    -0.342 N 
HETATM   85  C50 UNL     1     -14.464  -3.839  -2.663  1.00  0.00     0.157 C 
ENDBRANCH  76  79
ENDBRANCH  70  75
ENDBRANCH  65  68
ENDBRANCH  61  64
BRANCH  63  86
HETATM   86  C38 UNL     1      -5.597   0.001  -2.858  1.00  0.00     0.130 C 
BRANCH  86  87
HETATM   87  C39 UNL     1      -4.544  -1.037  -2.464  1.00  0.00     0.050 C 
BRANCH  87  88
HETATM   88  C40 UNL     1      -5.106  -2.347  -1.906  1.00  0.00     0.268 C 
BRANCH  88  89
HETATM   89  N14 UNL     1      -5.873  -3.111  -2.882  1.00  0.00     0.078 N 
HETATM   90  H55 UNL     1      -5.333  -3.233  -3.737  1.00  0.00     0.312 HD
HETATM   91  H56 UNL     1      -6.726  -2.617  -3.137  1.00  0.00     0.312 HD
ENDBRANCH  88  89
ENDBRANCH  87  88
ENDBRANCH  86  87
ENDBRANCH  63  86
ENDBRANCH  56  59
ENDBRANCH   2  55
TORSDOF 22
