REMARK  0 active torsions:
REMARK  status: ('A' for Active; 'I' for Inactive)
REMARK       I    between atoms: C4_4  and  N9_74 
REMARK       I    between atoms: C5_5  and  C6_6 
REMARK       I    between atoms: C6_6  and  N2_67 
REMARK       I    between atoms: C7_7  and  N2_67 
REMARK       I    between atoms: C9_9  and  C11_11 
REMARK       I    between atoms: C11_11  and  N4_69 
REMARK       I    between atoms: C12_12  and  N4_69 
REMARK       I    between atoms: C14_14  and  C16_16 
REMARK       I    between atoms: C16_16  and  N6_71 
REMARK       I    between atoms: C17_17  and  C18_18 
REMARK       I    between atoms: C17_17  and  N6_71 
REMARK       I    between atoms: C18_18  and  C19_19 
REMARK       I    between atoms: C19_19  and  N7_72 
REMARK       I    between atoms: C20_20  and  C21_21 
REMARK       I    between atoms: C20_20  and  N7_72 
REMARK       I    between atoms: C21_21  and  O5_94 
REMARK       I    between atoms: C22_22  and  C23_23 
REMARK       I    between atoms: C22_22  and  O5_94 
REMARK       I    between atoms: C23_23  and  O6_95 
REMARK       I    between atoms: C24_24  and  C25_25 
REMARK       I    between atoms: C24_24  and  O6_95 
REMARK       I    between atoms: C25_25  and  O7_96 
REMARK       I    between atoms: C26_26  and  C27_27 
REMARK       I    between atoms: C26_26  and  O7_96 
REMARK       I    between atoms: C27_27  and  N8_73 
REMARK       I    between atoms: C31_31  and  C32_32 
REMARK       I    between atoms: C31_31  and  N9_74 
REMARK       I    between atoms: C34_34  and  N11_76 
REMARK       I    between atoms: C37_37  and  C38_38 
REMARK       I    between atoms: C37_37  and  N11_76 
REMARK       I    between atoms: C38_38  and  C39_39 
REMARK       I    between atoms: C39_39  and  C40_40 
REMARK       I    between atoms: C40_40  and  N12_77 
REMARK       I    between atoms: C41_41  and  C42_42 
REMARK       I    between atoms: C41_41  and  N12_77 
REMARK       I    between atoms: C43_43  and  N15_81 
REMARK       I    between atoms: C46_46  and  C47_47 
REMARK       I    between atoms: C46_46  and  N15_81 
REMARK       I    between atoms: C49_49  and  N17_83 
REMARK       I    between atoms: C52_52  and  C53_53 
REMARK       I    between atoms: C52_52  and  N17_83 
REMARK       I    between atoms: C55_55  and  N19_85 
REMARK       I    between atoms: C58_58  and  C59_59 
REMARK       I    between atoms: C58_58  and  N19_85 
REMARK       I    between atoms: C60_60  and  N22_89 
REMARK       I    between atoms: C63_63  and  N22_89 
ROOT
HETATM    1  C1  UNL     1       4.822   1.669  -4.176  1.00  0.00     0.021 C 
HETATM    2  C2  UNL     1       4.430   2.223  -2.820  1.00  0.00     0.063 A 
HETATM    3  C3  UNL     1       2.971   2.579  -2.749  1.00  0.00     0.032 A 
HETATM    4  C4  UNL     1       2.357   1.814  -1.841  1.00  0.00     0.105 A 
HETATM    5  C5  UNL     1       4.359   1.171  -1.746  1.00  0.00     0.087 A 
HETATM    6  C6  UNL     1       5.596   0.428  -1.299  1.00  0.00     0.269 C 
HETATM    7  C7  UNL     1       6.202  -1.426   0.173  1.00  0.00     0.053 A 
HETATM    8  C8  UNL     1       5.850  -2.397   1.077  1.00  0.00     0.120 A 
HETATM    9  C9  UNL     1       8.094  -2.541   0.803  1.00  0.00     0.105 A 
HETATM   10  C10 UNL     1       7.601  -1.519  -0.005  1.00  0.00     0.066 A 
HETATM   11  C11 UNL     1       9.464  -3.027   0.978  1.00  0.00     0.273 C 
HETATM   12  C12 UNL     1      11.789  -2.456   0.381  1.00  0.00     0.053 A 
HETATM   13  C13 UNL     1      12.480  -3.508   0.924  1.00  0.00     0.120 A 
HETATM   14  C14 UNL     1      14.020  -2.152  -0.027  1.00  0.00     0.104 A 
HETATM   15  C15 UNL     1      12.753  -1.607  -0.219  1.00  0.00     0.066 A 
HETATM   16  C16 UNL     1      15.319  -1.663  -0.455  1.00  0.00     0.268 C 
HETATM   17  C17 UNL     1      16.579   0.312  -1.253  1.00  0.00     0.132 C 
HETATM   18  C18 UNL     1      17.190  -0.202  -2.552  1.00  0.00     0.122 C 
HETATM   19  C19 UNL     1      18.621  -0.635  -2.335  1.00  0.00     0.219 C 
HETATM   20  C20 UNL     1      20.052  -2.378  -1.339  1.00  0.00     0.148 C 
HETATM   21  C21 UNL     1      20.672  -1.661  -0.136  1.00  0.00     0.187 C 
HETATM   22  C22 UNL     1      22.982  -2.223  -0.587  1.00  0.00     0.193 C 
HETATM   23  C23 UNL     1      23.449  -0.814  -0.951  1.00  0.00     0.193 C 
HETATM   24  C24 UNL     1      25.104   0.390  -2.136  1.00  0.00     0.193 C 
HETATM   25  C25 UNL     1      26.399   0.237  -2.940  1.00  0.00     0.194 C 
HETATM   26  C26 UNL     1      28.132   0.734  -1.376  1.00  0.00     0.270 C 
HETATM   27  C27 UNL     1      29.207   0.128  -0.471  1.00  0.00     0.240 C 
HETATM   28  C28 UNL     1      30.049  -2.008   0.417  1.00  0.00     0.149 C 
HETATM   29  C29 UNL     1      14.845  -4.254   1.101  1.00  0.00     0.156 C 
HETATM   30  C30 UNL     1       6.997  -4.165   2.398  1.00  0.00     0.156 C 
HETATM   31  C31 UNL     1       0.312   1.122  -0.678  1.00  0.00     0.274 C 
HETATM   32  C32 UNL     1      -1.098   1.497  -0.570  1.00  0.00     0.105 A 
HETATM   33  C33 UNL     1      -1.737   2.690  -0.901  1.00  0.00     0.066 A 
HETATM   34  C34 UNL     1      -3.118   2.570  -0.605  1.00  0.00     0.052 A 
HETATM   35  C35 UNL     1      -3.301   1.311  -0.094  1.00  0.00     0.120 A 
HETATM   36  C36 UNL     1      -1.902  -0.677   0.431  1.00  0.00     0.156 C 
HETATM   37  C37 UNL     1      -5.417   3.448  -0.520  1.00  0.00     0.222 C 
HETATM   38  C38 UNL     1      -6.154   4.738  -0.847  1.00  0.00     0.105 C 
HETATM   39  C39 UNL     1      -7.637   4.703  -0.484  1.00  0.00     0.029 C 
HETATM   40  C40 UNL     1      -7.870   4.729   1.027  1.00  0.00     0.123 C 
HETATM   41  C41 UNL     1      -9.994   5.977   1.348  1.00  0.00     0.285 C 
HETATM   42  C42 UNL     1     -11.412   5.779   1.606  1.00  0.00     0.178 A 
HETATM   43  C43 UNL     1     -13.289   4.808   1.994  1.00  0.00     0.125 A 
HETATM   44  C44 UNL     1     -13.574   6.147   1.941  1.00  0.00     0.140 A 
HETATM   45  C45 UNL     1     -12.172   8.176   1.540  1.00  0.00     0.157 C 
HETATM   46  C46 UNL     1     -15.472   3.788   2.391  1.00  0.00     0.274 C 
HETATM   47  C47 UNL     1     -16.066   2.490   2.660  1.00  0.00     0.105 A 
HETATM   48  C48 UNL     1     -17.243   1.995   2.113  1.00  0.00     0.066 A 
HETATM   49  C49 UNL     1     -17.461   0.687   2.608  1.00  0.00     0.053 A 
HETATM   50  C50 UNL     1     -16.434   0.423   3.480  1.00  0.00     0.120 A 
HETATM   51  C51 UNL     1     -14.526   1.655   4.483  1.00  0.00     0.156 C 
HETATM   52  C52 UNL     1     -18.752  -1.413   2.707  1.00  0.00     0.273 C 
HETATM   53  C53 UNL     1     -19.973  -2.022   2.179  1.00  0.00     0.105 A 
HETATM   54  C54 UNL     1     -21.015  -1.456   1.448  1.00  0.00     0.066 A 
HETATM   55  C55 UNL     1     -21.976  -2.454   1.165  1.00  0.00     0.053 A 
HETATM   56  C56 UNL     1     -21.519  -3.617   1.732  1.00  0.00     0.120 A 
HETATM   57  C57 UNL     1     -19.543  -4.354   3.051  1.00  0.00     0.156 C 
HETATM   58  C58 UNL     1     -23.683  -1.247  -0.128  1.00  0.00     0.290 C 
HETATM   59  C59 UNL     1     -24.962  -1.528  -0.765  1.00  0.00     0.178 A 
HETATM   60  C60 UNL     1     -26.684  -2.625  -1.431  1.00  0.00     0.125 A 
HETATM   61  C61 UNL     1     -26.871  -1.340  -1.880  1.00  0.00     0.140 A 
HETATM   62  C62 UNL     1     -25.504   0.750  -1.677  1.00  0.00     0.157 C 
HETATM   63  C63 UNL     1     -27.349  -4.952  -1.186  1.00  0.00     0.219 C 
HETATM   64  C64 UNL     1     -28.479  -5.877  -1.568  1.00  0.00     0.117 C 
HETATM   65  N1  UNL     1       3.193   0.942  -1.213  1.00  0.00    -0.341 N 
ATOM     66  H1  UNL     1       2.959   0.263  -0.489  1.00  0.00     0.167 HD
HETATM   67  N2  UNL     1       5.291  -0.572  -0.405  1.00  0.00    -0.321 N 
HETATM   68  N3  UNL     1       6.987  -3.069   1.450  1.00  0.00    -0.354 N 
HETATM   69  N4  UNL     1      10.425  -2.227   0.384  1.00  0.00    -0.320 N 
HETATM   70  N5  UNL     1      13.816  -3.330   0.671  1.00  0.00    -0.354 N 
HETATM   71  N6  UNL     1      15.338  -0.360  -0.906  1.00  0.00    -0.355 N 
HETATM   72  N7  UNL     1      18.754  -1.846  -1.698  1.00  0.00    -0.359 N 
HETATM   73  N8  UNL     1      29.070  -1.231  -0.291  1.00  0.00    -0.364 N 
HETATM   74  N9  UNL     1       1.030   1.909  -1.563  1.00  0.00    -0.308 N 
HETATM   75  N10 UNL     1      -2.087   0.674  -0.058  1.00  0.00    -0.354 N 
HETATM   76  N11 UNL     1      -4.064   3.559  -0.801  1.00  0.00    -0.326 N 
HETATM   77  N12 UNL     1      -9.278   4.801   1.341  1.00  0.00    -0.354 N 
HETATM   78  N13 UNL     1     -11.956   4.581   1.793  1.00  0.00    -0.323 N 
ATOM     79  H13 UNL     1     -11.478   3.680   1.788  1.00  0.00     0.169 HD
HETATM   80  N14 UNL     1     -12.377   6.756   1.689  1.00  0.00    -0.339 N 
HETATM   81  N15 UNL     1     -14.108   3.737   2.220  1.00  0.00    -0.306 N 
HETATM   82  N16 UNL     1     -15.620   1.526   3.544  1.00  0.00    -0.354 N 
HETATM   83  N17 UNL     1     -18.525  -0.123   2.258  1.00  0.00    -0.320 N 
HETATM   84  N18 UNL     1     -20.320  -3.355   2.346  1.00  0.00    -0.354 N 
HETATM   85  N19 UNL     1     -23.163  -2.376   0.474  1.00  0.00    -0.319 N 
HETATM   86  N20 UNL     1     -25.514  -2.732  -0.748  1.00  0.00    -0.323 N 
ATOM     87  H20 UNL     1     -25.136  -3.572  -0.310  1.00  0.00     0.169 HD
HETATM   88  N21 UNL     1     -25.768  -0.650  -1.450  1.00  0.00    -0.339 N 
HETATM   89  N22 UNL     1     -27.556  -3.664  -1.638  1.00  0.00    -0.312 N 
HETATM   90  O1  UNL     1       6.683   0.768  -1.739  1.00  0.00    -0.266 OA
HETATM   91  O2  UNL     1       9.710  -4.049   1.611  1.00  0.00    -0.266 OA
HETATM   92  O3  UNL     1      16.348  -2.336  -0.422  1.00  0.00    -0.266 OA
HETATM   93  O4  UNL     1      19.574   0.054  -2.687  1.00  0.00    -0.274 OA
HETATM   94  O5  UNL     1      21.884  -2.259   0.326  1.00  0.00    -0.387 OA
HETATM   95  O6  UNL     1      24.642  -0.902  -1.731  1.00  0.00    -0.387 OA
HETATM   96  O7  UNL     1      27.477  -0.273  -2.147  1.00  0.00    -0.380 OA
HETATM   97  O8  UNL     1      30.080   0.808   0.061  1.00  0.00    -0.271 OA
HETATM   98  O9  UNL     1       0.777   0.178  -0.048  1.00  0.00    -0.266 OA
HETATM   99  O10 UNL     1      -5.993   2.462  -0.075  1.00  0.00    -0.273 OA
HETATM  100  O11 UNL     1      -9.473   7.072   1.147  1.00  0.00    -0.264 OA
HETATM  101  O12 UNL     1     -16.157   4.801   2.287  1.00  0.00    -0.266 OA
HETATM  102  O13 UNL     1     -18.005  -2.019   3.470  1.00  0.00    -0.266 OA
HETATM  103  O14 UNL     1     -23.158  -0.136  -0.141  1.00  0.00    -0.264 OA
HETATM  104  O15 UNL     1     -26.381  -5.380  -0.567  1.00  0.00    -0.274 OA
HETATM  105  H69 UNL     1       4.309  -0.664  -0.146  1.00  0.00     0.169 HD
HETATM  106  H70 UNL     1      10.122  -1.383  -0.077  1.00  0.00     0.169 HD
HETATM  107  H71 UNL     1      14.514   0.208  -0.768  1.00  0.00     0.162 HD
HETATM  108  H72 UNL     1      17.926  -2.251  -1.252  1.00  0.00     0.162 HD
HETATM  109  H73 UNL     1      28.428  -1.687  -0.936  1.00  0.00     0.161 HD
HETATM  110  H74 UNL     1       0.509   2.588  -2.094  1.00  0.00     0.170 HD
HETATM  111  H75 UNL     1      -3.723   4.433  -1.181  1.00  0.00     0.169 HD
HETATM  112  H76 UNL     1      -9.820   3.948   1.449  1.00  0.00     0.162 HD
HETATM  113  H77 UNL     1     -13.642   2.844   2.168  1.00  0.00     0.170 HD
HETATM  114  H78 UNL     1     -19.175   0.275   1.597  1.00  0.00     0.169 HD
HETATM  115  H79 UNL     1     -23.728  -3.220   0.384  1.00  0.00     0.169 HD
HETATM  116  H80 UNL     1     -28.392  -3.450  -2.161  1.00  0.00     0.170 HD
ENDROOT
TORSDOF 34
