REMARK  20 active torsions:
REMARK  status: ('A' for Active; 'I' for Inactive)
REMARK    1  A    between atoms: C4_4  and  C5_5 
REMARK       I    between atoms: C5_5  and  N3_43 
REMARK    2  A    between atoms: C6_6  and  N3_43 
REMARK    3  A    between atoms: C8_8  and  C10_10 
REMARK       I    between atoms: C10_10  and  N5_45 
REMARK    4  A    between atoms: C11_11  and  N5_45 
REMARK    5  A    between atoms: C13_13  and  C15_15 
REMARK       I    between atoms: C15_15  and  N7_47 
REMARK    6  A    between atoms: C16_16  and  N7_47 
REMARK    7  A    between atoms: C18_18  and  C20_20 
REMARK       I    between atoms: C20_20  and  N9_49 
REMARK    8  A    between atoms: C21_21  and  N9_49 
REMARK    9  A    between atoms: C23_23  and  C25_25 
REMARK       I    between atoms: C25_25  and  N11_51 
REMARK   10  A    between atoms: C26_26  and  C27_27 
REMARK   11  A    between atoms: C26_26  and  N11_51 
REMARK   12  A    between atoms: C27_27  and  C28_28 
REMARK       I    between atoms: C28_28  and  N12_52 
REMARK   13  A    between atoms: C29_29  and  C30_30 
REMARK   14  A    between atoms: C29_29  and  N12_52 
REMARK   15  A    between atoms: C30_30  and  C31_31 
REMARK   16  A    between atoms: C31_31  and  N13_53 
REMARK   17  A    between atoms: C33_33  and  C34_34 
REMARK   18  A    between atoms: C33_33  and  N13_53 
REMARK   19  A    between atoms: C34_34  and  C35_35 
REMARK   20  A    between atoms: C35_35  and  N14_54 
ROOT
HETATM    1  C16 UNL     1      -3.096   1.157   0.367  1.00  0.00     0.053 A 
HETATM    2  C17 UNL     1      -2.789   2.485   0.197  1.00  0.00     0.120 A 
HETATM    3  C18 UNL     1      -0.833   1.409   0.579  1.00  0.00     0.105 A 
HETATM    4  C19 UNL     1      -1.874   0.484   0.599  1.00  0.00     0.066 A 
HETATM    5  C37 UNL     1      -0.747   3.906   0.204  1.00  0.00     0.156 C 
HETATM    6  N8  UNL     1      -1.430   2.633   0.321  1.00  0.00    -0.354 N 
ENDROOT
BRANCH   1   7
HETATM    7  N7  UNL     1      -4.388   0.673   0.298  1.00  0.00    -0.320 N 
HETATM    8  C15 UNL     1      -4.762  -0.646   0.480  1.00  0.00     0.273 C 
HETATM    9  O3  UNL     1      -3.973  -1.550   0.747  1.00  0.00    -0.266 OA
HETATM   10  H47 UNL     1      -5.105   1.359   0.116  1.00  0.00     0.169 HD
BRANCH   8  11
HETATM   11  C13 UNL     1      -6.198  -0.890   0.341  1.00  0.00     0.105 A 
HETATM   12  C14 UNL     1      -7.218  -0.031  -0.060  1.00  0.00     0.066 A 
HETATM   13  C11 UNL     1      -8.448  -0.729  -0.036  1.00  0.00     0.053 A 
HETATM   14  C12 UNL     1      -8.167  -2.009   0.374  1.00  0.00     0.120 A 
HETATM   15  N6  UNL     1      -6.816  -2.104   0.595  1.00  0.00    -0.354 N 
HETATM   16  C38 UNL     1      -6.158  -3.317   1.041  1.00  0.00     0.156 C 
BRANCH  13  17
HETATM   17  N5  UNL     1      -9.727  -0.305  -0.344  1.00  0.00    -0.320 N 
HETATM   18  C10 UNL     1     -10.071   0.966  -0.768  1.00  0.00     0.273 C 
HETATM   19  O2  UNL     1      -9.260   1.874  -0.933  1.00  0.00    -0.266 OA
HETATM   20  H46 UNL     1     -10.452  -1.001  -0.260  1.00  0.00     0.169 HD
BRANCH  18  21
HETATM   21  C8  UNL     1     -11.500   1.149  -1.019  1.00  0.00     0.105 A 
HETATM   22  C9  UNL     1     -12.573   0.298  -0.762  1.00  0.00     0.066 A 
HETATM   23  C6  UNL     1     -13.769   0.922  -1.184  1.00  0.00     0.053 A 
HETATM   24  C7  UNL     1     -13.419   2.150  -1.687  1.00  0.00     0.120 A 
HETATM   25  N4  UNL     1     -12.058   2.286  -1.584  1.00  0.00    -0.354 N 
HETATM   26  C39 UNL     1     -11.332   3.462  -2.022  1.00  0.00     0.156 C 
BRANCH  23  27
HETATM   27  N3  UNL     1     -15.070   0.474  -1.138  1.00  0.00    -0.319 N 
HETATM   28  C5  UNL     1     -15.495  -0.747  -0.652  1.00  0.00     0.290 C 
HETATM   29  O1  UNL     1     -14.766  -1.621  -0.189  1.00  0.00    -0.264 OA
HETATM   30  H45 UNL     1     -15.804   1.083  -1.491  1.00  0.00     0.169 HD
BRANCH  28  31
HETATM   31  C4  UNL     1     -16.943  -0.887  -0.755  1.00  0.00     0.176 A 
HETATM   32  N1  UNL     1     -17.700  -1.967  -0.365  1.00  0.00    -0.342 N 
HETATM   33  C1  UNL     1     -17.207  -3.186   0.230  1.00  0.00     0.157 C 
HETATM   34  C2  UNL     1     -19.011  -1.687  -0.638  1.00  0.00     0.109 A 
HETATM   35  C3  UNL     1     -19.001  -0.430  -1.191  1.00  0.00     0.107 A 
HETATM   36  N2  UNL     1     -17.723   0.061  -1.262  1.00  0.00    -0.346 N 
ATOM     37  H2  UNL     1     -17.431   0.967  -1.628  1.00  0.00     0.167 HD
ENDBRANCH  28  31
ENDBRANCH  23  27
ENDBRANCH  18  21
ENDBRANCH  13  17
ENDBRANCH   8  11
ENDBRANCH   1   7
BRANCH   3  38
HETATM   38  C20 UNL     1       0.605   1.213   0.767  1.00  0.00     0.273 C 
HETATM   39  N9  UNL     1       0.956  -0.063   1.169  1.00  0.00    -0.320 N 
HETATM   40  H48 UNL     1       0.225  -0.739   1.330  1.00  0.00     0.169 HD
HETATM   41  O4  UNL     1       1.413   2.121   0.587  1.00  0.00    -0.266 OA
BRANCH  39  42
HETATM   42  C21 UNL     1       2.245  -0.503   1.404  1.00  0.00     0.053 A 
HETATM   43  C22 UNL     1       2.529  -1.780   1.823  1.00  0.00     0.120 A 
HETATM   44  N10 UNL     1       3.890  -1.896   1.958  1.00  0.00    -0.354 N 
HETATM   45  C23 UNL     1       4.509  -0.700   1.638  1.00  0.00     0.104 A 
HETATM   46  C36 UNL     1       4.558  -3.107   2.390  1.00  0.00     0.156 C 
HETATM   47  C24 UNL     1       3.482   0.170   1.284  1.00  0.00     0.066 A 
BRANCH  45  48
HETATM   48  C25 UNL     1       5.947  -0.481   1.675  1.00  0.00     0.268 C 
HETATM   49  N11 UNL     1       6.343   0.829   1.512  1.00  0.00    -0.355 N 
HETATM   50  H49 UNL     1       5.639   1.552   1.483  1.00  0.00     0.162 HD
HETATM   51  O5  UNL     1       6.764  -1.382   1.840  1.00  0.00    -0.266 OA
BRANCH  49  52
HETATM   52  C26 UNL     1       7.735   1.235   1.593  1.00  0.00     0.132 C 
BRANCH  52  53
HETATM   53  C27 UNL     1       8.517   0.861   0.341  1.00  0.00     0.122 C 
BRANCH  53  54
HETATM   54  C28 UNL     1       9.931   1.393   0.400  1.00  0.00     0.219 C 
HETATM   55  N12 UNL     1      10.724   0.916  -0.625  1.00  0.00    -0.361 N 
HETATM   56  H50 UNL     1      10.266   0.463  -1.405  1.00  0.00     0.162 HD
HETATM   57  O6  UNL     1      10.322   2.184   1.250  1.00  0.00    -0.274 OA
BRANCH  55  58
HETATM   58  C29 UNL     1      12.083   1.393  -0.800  1.00  0.00     0.124 C 
BRANCH  58  59
HETATM   59  C30 UNL     1      12.891   0.520  -1.757  1.00  0.00     0.050 C 
BRANCH  59  60
HETATM   60  C31 UNL     1      13.227  -0.871  -1.197  1.00  0.00     0.273 C 
BRANCH  60  61
HETATM   61  N13 UNL     1      14.027  -0.871   0.035  1.00  0.00     0.084 N 
HETATM   62  C32 UNL     1      14.129  -2.223   0.584  1.00  0.00     0.309 C 
BRANCH  61  63
HETATM   63  C33 UNL     1      15.342  -0.217  -0.074  1.00  0.00     0.273 C 
BRANCH  63  64
HETATM   64  C34 UNL     1      16.305  -0.779  -1.130  1.00  0.00     0.060 C 
BRANCH  64  65
HETATM   65  C35 UNL     1      17.679  -0.102  -1.104  1.00  0.00     0.268 C 
BRANCH  65  66
HETATM   66  N14 UNL     1      17.627   1.292  -1.530  1.00  0.00     0.078 N 
HETATM   67  H51 UNL     1      17.122   1.850  -0.843  1.00  0.00     0.312 HD
HETATM   68  H52 UNL     1      18.573   1.672  -1.552  1.00  0.00     0.312 HD
ENDBRANCH  65  66
ENDBRANCH  64  65
ENDBRANCH  63  64
ENDBRANCH  61  63
ENDBRANCH  60  61
ENDBRANCH  59  60
ENDBRANCH  58  59
ENDBRANCH  55  58
ENDBRANCH  53  54
ENDBRANCH  52  53
ENDBRANCH  49  52
ENDBRANCH  45  48
ENDBRANCH  39  42
ENDBRANCH   3  38
TORSDOF 20
