REMARK  20 active torsions:
REMARK  status: ('A' for Active; 'I' for Inactive)
REMARK    1  A    between atoms: C3_3  and  N7_43 
REMARK    2  A    between atoms: C5_5  and  N3_39 
REMARK    3  A    between atoms: C6_6  and  C7_7 
REMARK       I    between atoms: C6_6  and  N3_39 
REMARK    4  A    between atoms: C8_8  and  C17_17 
REMARK    5  A    between atoms: C11_11  and  C13_13 
REMARK    6  A    between atoms: C13_13  and  N4_40 
REMARK    7  A    between atoms: C14_14  and  N4_40 
REMARK       I    between atoms: C17_17  and  N5_41 
REMARK    8  A    between atoms: C18_18  and  C19_19 
REMARK    9  A    between atoms: C18_18  and  N5_41 
REMARK   10  A    between atoms: C19_19  and  C20_20 
REMARK   11  A    between atoms: C20_20  and  C21_21 
REMARK   12  A    between atoms: C21_21  and  C22_22 
REMARK       I    between atoms: C22_22  and  N6_42 
REMARK   13  A    between atoms: C23_23  and  C24_24 
REMARK       I    between atoms: C23_23  and  N7_43 
REMARK   14  A    between atoms: C26_26  and  C34_34 
REMARK   15  A    between atoms: C27_27  and  C30_30 
REMARK   16  A    between atoms: C30_30  and  N8_44 
REMARK   17  A    between atoms: C31_31  and  C32_32 
REMARK       I    between atoms: C31_31  and  N8_44 
REMARK   18  A    between atoms: C32_32  and  C33_33 
REMARK   19  A    between atoms: C33_33  and  O7_51 
REMARK   20  A    between atoms: N6_42  and  O4_48 
ROOT
HETATM    1  C1  UNL     1       0.973  -4.907  -0.766  1.00  0.00     0.089 C 
HETATM    2  C2  UNL     1       0.859  -3.415  -0.749  1.00  0.00     0.080 A 
HETATM    3  C3  UNL     1       1.850  -1.367  -0.540  1.00  0.00     0.112 A 
HETATM    4  C4  UNL     1       0.655  -0.727  -0.781  1.00  0.00     0.097 A 
HETATM    5  C5  UNL     1      -0.431  -1.541  -1.009  1.00  0.00     0.112 A 
HETATM    6  N1  UNL     1       1.975  -2.706  -0.528  1.00  0.00    -0.332 N 
ATOM      7  H1  UNL     1       2.873  -3.159  -0.359  1.00  0.00     0.168 HD
HETATM    8  N2  UNL     1      -0.343  -2.882  -1.000  1.00  0.00    -0.332 N 
ATOM      9  H2  UNL     1      -1.158  -3.469  -1.177  1.00  0.00     0.168 HD
ENDROOT
BRANCH   5  10
HETATM   10  N3  UNL     1      -1.727  -1.082  -1.280  1.00  0.00    -0.309 N 
HETATM   11  C6  UNL     1      -2.168   0.215  -1.368  1.00  0.00     0.258 C 
HETATM   12  O1  UNL     1      -1.481   1.220  -1.225  1.00  0.00    -0.267 OA
HETATM   13  H34 UNL     1      -2.386  -1.853  -1.382  1.00  0.00     0.170 HD
BRANCH  11  14
HETATM   14  C7  UNL     1      -3.603   0.416  -1.716  1.00  0.00     0.048 A 
HETATM   15  C8  UNL     1      -4.666  -0.298  -1.156  1.00  0.00     0.047 A 
HETATM   16  C9  UNL     1      -5.992  -0.008  -1.511  1.00  0.00     0.018 A 
HETATM   17  C10 UNL     1      -6.264   1.012  -2.423  1.00  0.00     0.010 A 
HETATM   18  C11 UNL     1      -5.221   1.766  -2.976  1.00  0.00    -0.029 A 
HETATM   19  C12 UNL     1      -3.896   1.454  -2.619  1.00  0.00     0.027 A 
BRANCH  15  20
HETATM   20  C17 UNL     1      -4.455  -1.378  -0.184  1.00  0.00     0.252 C 
HETATM   21  N5  UNL     1      -4.851  -1.094   1.099  1.00  0.00    -0.357 N 
HETATM   22  H36 UNL     1      -5.169  -0.158   1.324  1.00  0.00     0.162 HD
HETATM   23  O2  UNL     1      -3.961  -2.430  -0.567  1.00  0.00    -0.268 OA
BRANCH  21  24
HETATM   24  C18 UNL     1      -4.625  -2.020   2.190  1.00  0.00     0.123 C 
BRANCH  24  25
HETATM   25  C19 UNL     1      -5.599  -3.198   2.187  1.00  0.00     0.020 C 
BRANCH  25  26
HETATM   26  C20 UNL     1      -7.057  -2.757   2.361  1.00  0.00     0.011 C 
BRANCH  26  27
HETATM   27  C21 UNL     1      -8.014  -3.948   2.427  1.00  0.00     0.105 C 
BRANCH  27  28
HETATM   28  C22 UNL     1      -7.956  -4.688   3.748  1.00  0.00     0.240 C 
HETATM   29  N6  UNL     1      -8.696  -5.851   3.755  1.00  0.00    -0.237 N 
HETATM   30  H37 UNL     1      -8.874  -6.370   2.901  1.00  0.00     0.197 HD
HETATM   31  O3  UNL     1      -7.344  -4.301   4.741  1.00  0.00    -0.271 OA
BRANCH  29  32
HETATM   32  O4  UNL     1      -8.564  -6.630   4.931  1.00  0.00    -0.287 OA
HETATM   33  H40 UNL     1      -7.984  -6.069   5.493  1.00  0.00     0.244 HD
ENDBRANCH  29  32
ENDBRANCH  27  28
ENDBRANCH  26  27
ENDBRANCH  25  26
ENDBRANCH  24  25
ENDBRANCH  21  24
ENDBRANCH  15  20
BRANCH  18  34
HETATM   34  C13 UNL     1      -5.519   2.857  -3.980  1.00  0.00     0.308 C 
BRANCH  34  35
HETATM   35  N4  UNL     1      -4.743   4.082  -3.775  1.00  0.00     0.091 N 
HETATM   36  H35 UNL     1      -4.600   4.519  -4.685  1.00  0.00     0.316 HD
BRANCH  35  37
HETATM   37  C14 UNL     1      -5.379   5.064  -2.883  1.00  0.00     0.212 C 
HETATM   38  C15 UNL     1      -4.595   6.376  -2.994  1.00  0.00     0.042 C 
HETATM   39  C16 UNL     1      -5.416   4.621  -1.420  1.00  0.00     0.042 C 
ENDBRANCH  35  37
ENDBRANCH  34  35
ENDBRANCH  18  34
ENDBRANCH  11  14
ENDBRANCH   5  10
BRANCH   3  40
HETATM   40  N7  UNL     1       3.066  -0.719  -0.297  1.00  0.00    -0.309 N 
HETATM   41  C23 UNL     1       3.300   0.627  -0.155  1.00  0.00     0.257 C 
HETATM   42  O5  UNL     1       2.459   1.516  -0.156  1.00  0.00    -0.267 OA
HETATM   43  H38 UNL     1       3.812  -1.381  -0.144  1.00  0.00     0.170 HD
BRANCH  41  44
HETATM   44  C24 UNL     1       4.727   1.006   0.064  1.00  0.00     0.033 A 
HETATM   45  C25 UNL     1       5.788   0.288  -0.504  1.00  0.00     0.034 A 
HETATM   46  C26 UNL     1       7.129   0.676  -0.288  1.00  0.00     0.056 A 
HETATM   47  C27 UNL     1       7.396   1.810   0.516  1.00  0.00    -0.025 A 
HETATM   48  C28 UNL     1       6.321   2.529   1.068  1.00  0.00     0.011 A 
HETATM   49  C29 UNL     1       5.001   2.135   0.838  1.00  0.00     0.017 A 
BRANCH  46  50
HETATM   50  C34 UNL     1       8.239  -0.153  -0.907  1.00  0.00     0.418 C 
HETATM   51  F1  UNL     1       7.782  -1.037  -1.840  1.00  0.00    -0.166 F 
HETATM   52  F2  UNL     1       8.895  -0.909   0.016  1.00  0.00    -0.166 F 
HETATM   53  F3  UNL     1       9.181   0.591  -1.544  1.00  0.00    -0.166 F 
ENDBRANCH  46  50
BRANCH  47  54
HETATM   54  C30 UNL     1       8.803   2.280   0.807  1.00  0.00     0.162 C 
BRANCH  54  55
HETATM   55  N8  UNL     1       9.502   1.336   1.644  1.00  0.00    -0.357 N 
HETATM   56  C31 UNL     1      10.863   1.436   1.825  1.00  0.00     0.219 C 
HETATM   57  O6  UNL     1      11.561   2.262   1.245  1.00  0.00    -0.274 OA
HETATM   58  H39 UNL     1       8.967   0.765   2.286  1.00  0.00     0.162 HD
BRANCH  56  59
HETATM   59  C32 UNL     1      11.419   0.403   2.781  1.00  0.00     0.128 C 
BRANCH  59  60
HETATM   60  C33 UNL     1      12.885   0.664   3.090  1.00  0.00     0.173 C 
BRANCH  60  61
HETATM   61  O7  UNL     1      13.695   0.404   1.950  1.00  0.00    -0.400 OA
HETATM   62  H41 UNL     1      13.458   1.085   1.287  1.00  0.00     0.209 HD
ENDBRANCH  60  61
ENDBRANCH  59  60
ENDBRANCH  56  59
ENDBRANCH  54  55
ENDBRANCH  47  54
ENDBRANCH  41  44
ENDBRANCH   3  40
TORSDOF 20
