REMARK  0 active torsions:
REMARK  status: ('A' for Active; 'I' for Inactive)
REMARK       I    between atoms: C2_2  and  C3_3 
REMARK       I    between atoms: C2_2  and  S1_59 
REMARK       I    between atoms: C3_3  and  C4_4 
REMARK       I    between atoms: C4_4  and  C58_58 
REMARK       I    between atoms: C4_4  and  N1_60 
REMARK       I    between atoms: C5_5  and  C6_6 
REMARK       I    between atoms: C5_5  and  N1_60 
REMARK       I    between atoms: C6_6  and  C7_7 
REMARK       I    between atoms: C6_6  and  N2_61 
REMARK       I    between atoms: C7_7  and  C8_8 
REMARK       I    between atoms: C11_11  and  C12_12 
REMARK       I    between atoms: C11_11  and  N2_61 
REMARK       I    between atoms: C12_12  and  N3_62 
REMARK       I    between atoms: C13_13  and  C14_14 
REMARK       I    between atoms: C13_13  and  N3_62 
REMARK       I    between atoms: C14_14  and  C15_15 
REMARK       I    between atoms: C14_14  and  N4_63 
REMARK       I    between atoms: C15_15  and  C16_16 
REMARK       I    between atoms: C19_19  and  O4_76 
REMARK       I    between atoms: C22_22  and  C23_23 
REMARK       I    between atoms: C22_22  and  N4_63 
REMARK       I    between atoms: C23_23  and  C24_24 
REMARK       I    between atoms: C23_23  and  N5_64 
REMARK       I    between atoms: C24_24  and  C25_25 
REMARK       I    between atoms: C31_31  and  C32_32 
REMARK       I    between atoms: C31_31  and  N5_64 
REMARK       I    between atoms: C32_32  and  C56_56 
REMARK       I    between atoms: C32_32  and  N6_65 
REMARK       I    between atoms: C33_33  and  C34_34 
REMARK       I    between atoms: C33_33  and  N6_65 
REMARK       I    between atoms: C34_34  and  C35_35 
REMARK       I    between atoms: C34_34  and  N8_67 
REMARK       I    between atoms: C35_35  and  C36_36 
REMARK       I    between atoms: C36_36  and  C37_37 
REMARK       I    between atoms: C37_37  and  C38_38 
REMARK       I    between atoms: C38_38  and  N7_66 
REMARK       I    between atoms: C39_39  and  C40_40 
REMARK       I    between atoms: C39_39  and  N8_67 
REMARK       I    between atoms: C44_44  and  C45_45 
REMARK       I    between atoms: C44_44  and  N9_68 
REMARK       I    between atoms: C45_45  and  C46_46 
REMARK       I    between atoms: C45_45  and  N10_69 
REMARK       I    between atoms: C46_46  and  C47_47 
REMARK       I    between atoms: C47_47  and  O10_82 
REMARK       I    between atoms: C48_48  and  C49_49 
REMARK       I    between atoms: C48_48  and  N10_69 
REMARK       I    between atoms: C49_49  and  N11_70 
REMARK       I    between atoms: C51_51  and  C52_52 
REMARK       I    between atoms: C51_51  and  N11_70 
REMARK       I    between atoms: C56_56  and  O15_87 
REMARK       I    between atoms: C58_58  and  N13_72 
ROOT
HETATM    1  C1  UNL     1       8.638   4.454   6.176  1.00  0.00     0.089 C 
HETATM    2  C2  UNL     1       9.147   2.031   4.917  1.00  0.00     0.076 C 
HETATM    3  C3  UNL     1      10.289   2.601   4.076  1.00  0.00     0.045 C 
HETATM    4  C4  UNL     1       9.895   3.271   2.749  1.00  0.00     0.177 C 
HETATM    5  C5  UNL     1       8.644   2.786   0.680  1.00  0.00     0.241 C 
HETATM    6  C6  UNL     1       7.717   1.740   0.016  1.00  0.00     0.177 C 
HETATM    7  C7  UNL     1       7.338   2.100  -1.428  1.00  0.00     0.038 C 
HETATM    8  C8  UNL     1       8.341   1.602  -2.490  1.00  0.00    -0.020 C 
HETATM    9  C9  UNL     1       9.733   2.214  -2.341  1.00  0.00     0.009 C 
HETATM   10  C10 UNL     1       7.797   1.898  -3.891  1.00  0.00     0.009 C 
HETATM   11  C11 UNL     1       6.428   0.925   1.985  1.00  0.00     0.236 C 
HETATM   12  C12 UNL     1       5.131   1.077   2.793  1.00  0.00     0.225 C 
HETATM   13  C13 UNL     1       3.499   2.209   1.309  1.00  0.00     0.241 C 
HETATM   14  C14 UNL     1       2.056   2.144   0.738  1.00  0.00     0.180 C 
HETATM   15  C15 UNL     1       1.760   3.309  -0.231  1.00  0.00     0.073 C 
HETATM   16  C16 UNL     1       2.516   3.311  -1.543  1.00  0.00    -0.056 A 
HETATM   17  C17 UNL     1       3.722   4.015  -1.678  1.00  0.00     0.010 A 
HETATM   18  C18 UNL     1       4.417   4.013  -2.889  1.00  0.00     0.037 A 
HETATM   19  C19 UNL     1       3.911   3.308  -3.972  1.00  0.00     0.065 A 
HETATM   20  C20 UNL     1       2.711   2.617  -3.868  1.00  0.00     0.037 A 
HETATM   21  C21 UNL     1       2.013   2.630  -2.658  1.00  0.00     0.010 A 
HETATM   22  C22 UNL     1       1.330  -0.236   0.986  1.00  0.00     0.241 C 
HETATM   23  C23 UNL     1       1.050  -1.565   0.245  1.00  0.00     0.180 C 
HETATM   24  C24 UNL     1       0.742  -2.676   1.267  1.00  0.00     0.073 C 
HETATM   25  C25 UNL     1       0.424  -4.056   0.726  1.00  0.00    -0.056 A 
HETATM   26  C26 UNL     1      -0.314  -4.938   1.533  1.00  0.00     0.007 A 
HETATM   27  C27 UNL     1      -0.598  -6.235   1.103  1.00  0.00     0.001 A 
HETATM   28  C28 UNL     1      -0.142  -6.672  -0.137  1.00  0.00     0.000 A 
HETATM   29  C29 UNL     1       0.593  -5.812  -0.947  1.00  0.00     0.001 A 
HETATM   30  C30 UNL     1       0.882  -4.515  -0.516  1.00  0.00     0.007 A 
HETATM   31  C31 UNL     1       0.154  -0.941  -1.989  1.00  0.00     0.243 C 
HETATM   32  C32 UNL     1      -1.096  -0.934  -2.898  1.00  0.00     0.205 C 
HETATM   33  C33 UNL     1      -1.778  -3.318  -2.983  1.00  0.00     0.241 C 
HETATM   34  C34 UNL     1      -2.794  -4.375  -2.481  1.00  0.00     0.176 C 
HETATM   35  C35 UNL     1      -2.849  -5.560  -3.460  1.00  0.00     0.035 C 
HETATM   36  C36 UNL     1      -3.805  -6.695  -3.069  1.00  0.00     0.004 C 
HETATM   37  C37 UNL     1      -3.343  -7.473  -1.834  1.00  0.00     0.030 C 
HETATM   38  C38 UNL     1      -4.345  -8.534  -1.372  1.00  0.00     0.267 C 
HETATM   39  C39 UNL     1      -4.880  -3.931  -1.191  1.00  0.00     0.241 C 
HETATM   40  C40 UNL     1      -6.188  -3.103  -1.179  1.00  0.00     0.179 C 
HETATM   41  C41 UNL     1      -7.390  -3.956  -0.776  1.00  0.00     0.037 C 
HETATM   42  C42 UNL     1      -7.443  -3.819   0.742  1.00  0.00     0.022 C 
HETATM   43  C43 UNL     1      -6.983  -2.390   0.982  1.00  0.00     0.127 C 
HETATM   44  C44 UNL     1      -5.223  -1.032  -0.271  1.00  0.00     0.243 C 
HETATM   45  C45 UNL     1      -4.900  -0.140   0.960  1.00  0.00     0.186 C 
HETATM   46  C46 UNL     1      -3.977  -0.861   1.958  1.00  0.00     0.144 C 
HETATM   47  C47 UNL     1      -3.297  -2.063   1.360  1.00  0.00     0.141 C 
HETATM   48  C48 UNL     1      -6.878   1.328   0.979  1.00  0.00     0.240 C 
HETATM   49  C49 UNL     1      -7.977   1.972   1.844  1.00  0.00     0.172 C 
HETATM   50  C50 UNL     1      -9.029   0.940   2.234  1.00  0.00     0.042 C 
HETATM   51  C51 UNL     1      -9.217   4.111   1.682  1.00  0.00     0.241 C 
HETATM   52  C52 UNL     1      -9.741   5.190   0.712  1.00  0.00     0.177 C 
HETATM   53  C53 UNL     1      -8.634   5.885  -0.068  1.00  0.00     0.044 C 
HETATM   54  C54 UNL     1      -8.241   7.062   0.822  1.00  0.00     0.105 C 
HETATM   55  C55 UNL     1      -9.489   7.321   1.625  1.00  0.00     0.218 C 
HETATM   56  C56 UNL     1      -1.830   0.428  -2.890  1.00  0.00     0.146 C 
HETATM   57  C57 UNL     1      -1.915   1.117  -1.533  1.00  0.00     0.042 C 
HETATM   58  C58 UNL     1      11.175   3.932   2.187  1.00  0.00     0.238 C 
HETATM   59  S1  UNL     1       7.759   3.161   5.262  1.00  0.00    -0.173 SA
HETATM   60  N1  UNL     1       9.308   2.311   1.804  1.00  0.00    -0.346 N 
HETATM   61  N2  UNL     1       6.506   1.674   0.835  1.00  0.00    -0.346 N 
HETATM   62  N3  UNL     1       3.916   1.083   1.990  1.00  0.00    -0.351 N 
HETATM   63  N4  UNL     1       1.689   0.831   0.190  1.00  0.00    -0.346 N 
HETATM   64  N5  UNL     1      -0.047  -1.386  -0.703  1.00  0.00    -0.346 N 
HETATM   65  N6  UNL     1      -2.012  -2.029  -2.542  1.00  0.00    -0.344 N 
HETATM   66  N7  UNL     1      -4.498  -9.610  -2.343  1.00  0.00     0.078 N 
HETATM   67  N8  UNL     1      -4.116  -3.762  -2.322  1.00  0.00    -0.346 N 
HETATM   68  N9  UNL     1      -6.079  -2.100  -0.120  1.00  0.00    -0.337 N 
HETATM   69  N10 UNL     1      -6.090   0.398   1.631  1.00  0.00    -0.346 N 
HETATM   70  N11 UNL     1      -8.565   3.063   1.078  1.00  0.00    -0.346 N 
HETATM   71  N12 UNL     1     -10.369   6.280   1.413  1.00  0.00    -0.348 N 
HETATM   72  N13 UNL     1      11.868   3.204   1.257  1.00  0.00    -0.368 N 
HETATM   73  O1  UNL     1       8.774   3.938   0.278  1.00  0.00    -0.271 OA
HETATM   74  O2  UNL     1       7.395   0.286   2.403  1.00  0.00    -0.272 OA
HETATM   75  O3  UNL     1       4.199   3.220   1.285  1.00  0.00    -0.271 OA
HETATM   76  O4  UNL     1       4.625   3.319  -5.133  1.00  0.00    -0.361 OA
HETATM   77  O5  UNL     1       1.344  -0.140   2.214  1.00  0.00    -0.271 OA
HETATM   78  O6  UNL     1       1.236  -0.460  -2.324  1.00  0.00    -0.271 OA
HETATM   79  O7  UNL     1      -0.786  -3.610  -3.647  1.00  0.00    -0.271 OA
HETATM   80  O8  UNL     1      -4.506  -4.608  -0.233  1.00  0.00    -0.271 OA
HETATM   81  O9  UNL     1      -4.564  -0.910  -1.312  1.00  0.00    -0.271 OA
HETATM   82  O10 UNL     1      -3.762  -3.211   1.883  1.00  0.00    -0.776 OA
HETATM   83  O11 UNL     1      -2.491  -2.039   0.443  1.00  0.00    -0.650 OA
HETATM   84  O12 UNL     1      -6.732   1.609  -0.210  1.00  0.00    -0.271 OA
HETATM   85  O13 UNL     1      -9.397   4.154   2.897  1.00  0.00    -0.271 OA
HETATM   86  O14 UNL     1      -9.684   8.265   2.369  1.00  0.00    -0.274 OA
HETATM   87  O15 UNL     1      -1.212   1.328  -3.817  1.00  0.00    -0.393 OA
HETATM   88  O16 UNL     1      11.656   4.964   2.648  1.00  0.00    -0.271 OA
HETATM   89  H69 UNL     1       8.873   1.478   2.204  1.00  0.00     0.163 HD
HETATM   90  H70 UNL     1       5.851   2.455   0.766  1.00  0.00     0.163 HD
HETATM   91  H71 UNL     1       3.164   0.476   2.311  1.00  0.00     0.163 HD
HETATM   92  H72 UNL     1       1.893   0.631  -0.792  1.00  0.00     0.163 HD
HETATM   93  H73 UNL     1      -0.954  -1.790  -0.464  1.00  0.00     0.163 HD
HETATM   94  H74 UNL     1      -2.707  -1.881  -1.810  1.00  0.00     0.163 HD
HETATM   95  H75 UNL     1      -4.908  -9.251  -3.203  1.00  0.00     0.312 HD
HETATM   96  H76 UNL     1      -5.157 -10.300  -1.982  1.00  0.00     0.312 HD
HETATM   97  H77 UNL     1      -4.357  -3.015  -2.967  1.00  0.00     0.163 HD
HETATM   98  H78 UNL     1      -6.066   0.471   2.643  1.00  0.00     0.163 HD
HETATM   99  H79 UNL     1      -8.391   3.059   0.076  1.00  0.00     0.163 HD
HETATM  100  H80 UNL     1     -11.113   6.155   2.091  1.00  0.00     0.163 HD
HETATM  101  H81 UNL     1      11.325   2.575   0.680  1.00  0.00     0.159 HD
HETATM  102  H82 UNL     1      12.625   3.700   0.807  1.00  0.00     0.159 HD
HETATM  103  H83 UNL     1       4.165   2.756  -5.777  1.00  0.00     0.217 HD
HETATM  104  H84 UNL     1      -3.558  -3.934   1.234  1.00  0.00     0.167 HD
HETATM  105  H85 UNL     1      -1.765   2.126  -3.868  1.00  0.00     0.210 HD
ENDROOT
TORSDOF 40
