REMARK  30 active torsions:
REMARK  status: ('A' for Active; 'I' for Inactive)
REMARK    1  A    between atoms: C2_2  and  C3_3 
REMARK    2  A    between atoms: C2_2  and  O14_52 
REMARK    3  A    between atoms: C3_3  and  C4_4 
REMARK    4  A    between atoms: C3_3  and  N10_63 
REMARK       I    between atoms: C4_4  and  N1_53 
REMARK    5  A    between atoms: C5_5  and  C6_6 
REMARK    6  A    between atoms: C5_5  and  C13_13 
REMARK    7  A    between atoms: C5_5  and  N1_53 
REMARK    8  A    between atoms: C6_6  and  C7_7 
REMARK    9  A    between atoms: C10_10  and  O2_40 
REMARK       I    between atoms: C13_13  and  N2_54 
REMARK   10  A    between atoms: C14_14  and  C16_16 
REMARK   11  A    between atoms: C14_14  and  N2_54 
REMARK       I    between atoms: C16_16  and  N3_55 
REMARK   12  A    between atoms: C17_17  and  C19_19 
REMARK   13  A    between atoms: C17_17  and  N3_55 
REMARK       I    between atoms: C19_19  and  N4_56 
REMARK   14  A    between atoms: C20_20  and  C21_21 
REMARK   15  A    between atoms: C20_20  and  C23_23 
REMARK   16  A    between atoms: C20_20  and  N4_56 
REMARK   17  A    between atoms: C21_21  and  O6_44 
REMARK       I    between atoms: C23_23  and  N5_57 
REMARK   18  A    between atoms: C27_27  and  C28_28 
REMARK       I    between atoms: C28_28  and  N6_58 
REMARK   19  A    between atoms: C29_29  and  C30_30 
REMARK   20  A    between atoms: C29_29  and  C34_34 
REMARK   21  A    between atoms: C29_29  and  N6_58 
REMARK   22  A    between atoms: C30_30  and  C31_31 
REMARK   23  A    between atoms: C31_31  and  C32_32 
REMARK   24  A    between atoms: C32_32  and  N7_59 
REMARK       I    between atoms: C33_33  and  N8_61 
REMARK       I    between atoms: C33_33  and  N9_62 
REMARK   25  A    between atoms: C34_34  and  O10_48 
REMARK   26  A    between atoms: C35_35  and  C36_36 
REMARK       I    between atoms: C35_35  and  N10_63 
REMARK   27  A    between atoms: C36_36  and  C37_37 
REMARK   28  A    between atoms: C36_36  and  N11_64 
REMARK   29  A    between atoms: C37_37  and  C38_38 
REMARK   30  A    between atoms: C38_38  and  O13_51 
ROOT
HETATM    1  C16 UNL     1      -1.456   2.775   0.386  1.00  0.00     0.240 C 
HETATM    2  O4  UNL     1      -1.526   2.586   1.600  1.00  0.00    -0.271 OA
HETATM    3  N3  UNL     1      -0.476   2.194  -0.387  1.00  0.00    -0.346 N 
HETATM    4  H50 UNL     1      -0.492   2.339  -1.401  1.00  0.00     0.163 HD
ENDROOT
BRANCH   3   5
HETATM    5  C17 UNL     1       0.697   1.543   0.185  1.00  0.00     0.172 C 
HETATM    6  C18 UNL     1       0.377   0.179   0.785  1.00  0.00     0.042 C 
BRANCH   5   7
HETATM    7  C19 UNL     1       1.797   1.430  -0.891  1.00  0.00     0.240 C 
HETATM    8  O5  UNL     1       1.583   1.624  -2.084  1.00  0.00    -0.271 OA
HETATM    9  N4  UNL     1       3.043   1.086  -0.402  1.00  0.00    -0.344 N 
HETATM   10  H51 UNL     1       3.197   1.284   0.582  1.00  0.00     0.163 HD
BRANCH   9  11
HETATM   11  C20 UNL     1       4.240   1.334  -1.217  1.00  0.00     0.205 C 
BRANCH  11  12
HETATM   12  C21 UNL     1       5.474   1.426  -0.281  1.00  0.00     0.146 C 
HETATM   13  C22 UNL     1       6.687   2.094  -0.920  1.00  0.00     0.042 C 
BRANCH  12  14
HETATM   14  O6  UNL     1       5.115   2.179   0.905  1.00  0.00    -0.393 OA
HETATM   15  H44 UNL     1       5.098   3.121   0.647  1.00  0.00     0.210 HD
ENDBRANCH  12  14
ENDBRANCH  11  12
BRANCH  11  16
HETATM   16  C23 UNL     1       4.536   0.381  -2.401  1.00  0.00     0.245 C 
HETATM   17  O7  UNL     1       5.147   0.848  -3.374  1.00  0.00    -0.271 OA
HETATM   18  N5  UNL     1       4.301  -0.975  -2.336  1.00  0.00    -0.337 N 
HETATM   19  C24 UNL     1       4.721  -1.814  -3.449  1.00  0.00     0.127 C 
HETATM   20  C27 UNL     1       3.496  -1.748  -1.383  1.00  0.00     0.179 C 
HETATM   21  C25 UNL     1       4.428  -3.237  -3.008  1.00  0.00     0.022 C 
HETATM   22  C26 UNL     1       3.204  -3.062  -2.120  1.00  0.00     0.037 C 
BRANCH  20  23
HETATM   23  C28 UNL     1       4.245  -2.056  -0.073  1.00  0.00     0.241 C 
HETATM   24  O8  UNL     1       5.457  -1.908   0.058  1.00  0.00    -0.271 OA
HETATM   25  N6  UNL     1       3.440  -2.526   0.945  1.00  0.00    -0.345 N 
HETATM   26  H52 UNL     1       2.520  -2.893   0.718  1.00  0.00     0.163 HD
BRANCH  25  27
HETATM   27  C29 UNL     1       4.000  -2.937   2.239  1.00  0.00     0.182 C 
BRANCH  27  28
HETATM   28  C30 UNL     1       3.726  -1.893   3.332  1.00  0.00     0.038 C 
BRANCH  28  29
HETATM   29  C31 UNL     1       4.114  -0.474   2.909  1.00  0.00     0.022 C 
BRANCH  29  30
HETATM   30  C32 UNL     1       4.062   0.532   4.055  1.00  0.00     0.121 C 
BRANCH  30  31
HETATM   31  N7  UNL     1       5.242   0.391   4.899  1.00  0.00    -0.372 N 
HETATM   32  C33 UNL     1       6.310   1.017   4.576  1.00  0.00     0.121 C 
HETATM   33  N8  UNL     1       7.403   0.918   5.364  1.00  0.00    -0.279 NA
HETATM   34  N9  UNL     1       6.579   1.822   3.523  1.00  0.00    -0.279 NA
HETATM   35  H53 UNL     1       7.817   1.822   5.556  1.00  0.00     0.126 HD
HETATM   36  H54 UNL     1       7.155   0.449   6.230  1.00  0.00     0.126 HD
HETATM   37  H55 UNL     1       7.520   1.680   3.175  1.00  0.00     0.126 HD
HETATM   38  H56 UNL     1       5.920   1.754   2.747  1.00  0.00     0.126 HD
ATOM     39  H7  UNL     1       5.217  -0.196   5.732  1.00  0.00     0.161 HD
ENDBRANCH  30  31
ENDBRANCH  29  30
ENDBRANCH  28  29
ENDBRANCH  27  28
BRANCH  27  40
HETATM   40  C34 UNL     1       3.407  -4.283   2.666  1.00  0.00     0.163 C 
HETATM   41  O9  UNL     1       3.704  -4.930   3.658  1.00  0.00    -0.648 OA
BRANCH  40  42
HETATM   42  O10 UNL     1       2.428  -4.733   1.843  1.00  0.00    -0.775 OA
HETATM   43  H45 UNL     1       2.175  -5.589   2.253  1.00  0.00     0.167 HD
ENDBRANCH  40  42
ENDBRANCH  27  40
ENDBRANCH  25  27
ENDBRANCH  20  23
ENDBRANCH  11  16
ENDBRANCH   9  11
ENDBRANCH   5   7
ENDBRANCH   3   5
BRANCH   1  44
HETATM   44  C14 UNL     1      -2.477   3.627  -0.400  1.00  0.00     0.172 C 
HETATM   45  C15 UNL     1      -3.246   4.553   0.534  1.00  0.00     0.042 C 
BRANCH  44  46
HETATM   46  N2  UNL     1      -3.403   2.758  -1.115  1.00  0.00    -0.346 N 
HETATM   47  C13 UNL     1      -3.104   2.262  -2.368  1.00  0.00     0.241 C 
HETATM   48  O3  UNL     1      -2.114   2.645  -2.989  1.00  0.00    -0.271 OA
HETATM   49  H49 UNL     1      -4.081   2.239  -0.564  1.00  0.00     0.163 HD
BRANCH  47  50
HETATM   50  C5  UNL     1      -4.178   1.326  -2.971  1.00  0.00     0.180 C 
BRANCH  50  51
HETATM   51  C6  UNL     1      -3.568   0.314  -3.961  1.00  0.00     0.073 C 
BRANCH  51  52
HETATM   52  C7  UNL     1      -2.653  -0.705  -3.313  1.00  0.00    -0.056 A 
HETATM   53  C8  UNL     1      -3.169  -1.880  -2.746  1.00  0.00     0.010 A 
HETATM   54  C9  UNL     1      -2.328  -2.787  -2.096  1.00  0.00     0.037 A 
HETATM   55  C10 UNL     1      -0.964  -2.526  -2.028  1.00  0.00     0.065 A 
HETATM   56  C11 UNL     1      -0.433  -1.383  -2.610  1.00  0.00     0.037 A 
HETATM   57  C12 UNL     1      -1.274  -0.472  -3.247  1.00  0.00     0.010 A 
BRANCH  55  58
HETATM   58  O2  UNL     1      -0.113  -3.372  -1.378  1.00  0.00    -0.361 OA
HETATM   59  H43 UNL     1      -0.604  -4.188  -1.180  1.00  0.00     0.217 HD
ENDBRANCH  55  58
ENDBRANCH  51  52
ENDBRANCH  50  51
BRANCH  50  60
HETATM   60  N1  UNL     1      -4.977   0.673  -1.930  1.00  0.00    -0.346 N 
HETATM   61  C4  UNL     1      -6.257   0.216  -2.175  1.00  0.00     0.243 C 
HETATM   62  O1  UNL     1      -6.845   0.433  -3.234  1.00  0.00    -0.271 OA
HETATM   63  H48 UNL     1      -4.459   0.243  -1.166  1.00  0.00     0.163 HD
BRANCH  61  64
HETATM   64  C3  UNL     1      -6.880  -0.657  -1.056  1.00  0.00     0.205 C 
BRANCH  64  65
HETATM   65  C2  UNL     1      -8.379  -0.335  -0.876  1.00  0.00     0.146 C 
HETATM   66  C1  UNL     1      -8.678   1.128  -0.560  1.00  0.00     0.042 C 
BRANCH  65  67
HETATM   67  O14 UNL     1      -9.136  -0.721  -2.028  1.00  0.00    -0.393 OA
HETATM   68  H47 UNL     1      -8.749  -0.257  -2.801  1.00  0.00     0.210 HD
ENDBRANCH  65  67
ENDBRANCH  64  65
BRANCH  64  69
HETATM   69  N10 UNL     1      -6.121  -0.488   0.183  1.00  0.00    -0.344 N 
HETATM   70  C35 UNL     1      -5.201  -1.426   0.597  1.00  0.00     0.252 C 
HETATM   71  O11 UNL     1      -5.199  -2.590   0.206  1.00  0.00    -0.271 OA
HETATM   72  H57 UNL     1      -5.928   0.483   0.434  1.00  0.00     0.163 HD
BRANCH  70  73
HETATM   73  C36 UNL     1      -4.059  -0.859   1.465  1.00  0.00     0.318 C 
BRANCH  73  74
HETATM   74  C37 UNL     1      -4.537  -0.152   2.736  1.00  0.00     0.155 C 
BRANCH  74  75
HETATM   75  C38 UNL     1      -5.006   1.265   2.541  1.00  0.00     0.141 C 
HETATM   76  O12 UNL     1      -5.432   1.763   1.510  1.00  0.00    -0.650 OA
BRANCH  75  77
HETATM   77  O13 UNL     1      -4.968   1.971   3.686  1.00  0.00    -0.776 OA
HETATM   78  H46 UNL     1      -5.273   2.873   3.453  1.00  0.00     0.167 HD
ENDBRANCH  75  77
ENDBRANCH  74  75
ENDBRANCH  73  74
BRANCH  73  79
HETATM   79  N11 UNL     1      -3.203  -0.040   0.580  1.00  0.00     0.092 N 
HETATM   80  H58 UNL     1      -2.487   0.429   1.147  1.00  0.00     0.313 HD
HETATM   81  H59 UNL     1      -2.671  -0.672  -0.030  1.00  0.00     0.313 HD
ENDBRANCH  73  79
ENDBRANCH  70  73
ENDBRANCH  64  69
ENDBRANCH  61  64
ENDBRANCH  50  60
ENDBRANCH  47  50
ENDBRANCH  44  46
ENDBRANCH   1  44
TORSDOF 30
