REMARK  26 active torsions:
REMARK  status: ('A' for Active; 'I' for Inactive)
REMARK    1  A    between atoms: C3_3  and  C5_5 
REMARK    2  A    between atoms: C5_5  and  C6_6 
REMARK    3  A    between atoms: C6_6  and  N3_53 
REMARK    4  A    between atoms: C7_7  and  N3_53 
REMARK    5  A    between atoms: C10_10  and  N6_58 
REMARK    6  A    between atoms: C11_11  and  N6_58 
REMARK    7  A    between atoms: C14_14  and  N7_59 
REMARK       I    between atoms: C17_17  and  N7_59 
REMARK       I    between atoms: C17_17  and  N8_60 
REMARK    8  A    between atoms: C18_18  and  N8_60 
REMARK    9  A    between atoms: C21_21  and  N9_61 
REMARK   10  A    between atoms: C24_24  and  N9_61 
REMARK   11  A    between atoms: C25_25  and  N15_70 
REMARK   12  A    between atoms: C29_29  and  N13_68 
REMARK   13  A    between atoms: C31_31  and  N14_69 
REMARK   14  A    between atoms: C32_32  and  O3_80 
REMARK   15  A    between atoms: C33_33  and  O2_79 
REMARK   16  A    between atoms: C34_34  and  C35_35 
REMARK       I    between atoms: C34_34  and  N14_69 
REMARK   17  A    between atoms: C35_35  and  O5_82 
REMARK   18  A    between atoms: C36_36  and  C37_37 
REMARK   19  A    between atoms: C36_36  and  N15_70 
REMARK   20  A    between atoms: C37_37  and  C38_38 
REMARK   21  A    between atoms: C43_43  and  N19_76 
REMARK   22  A    between atoms: C45_45  and  N20_77 
REMARK   23  A    between atoms: C46_46  and  O7_84 
REMARK   24  A    between atoms: C47_47  and  O6_83 
REMARK   25  A    between atoms: C48_48  and  C49_49 
REMARK       I    between atoms: C48_48  and  N20_77 
REMARK   26  A    between atoms: C49_49  and  O9_86 
ROOT
HETATM    1  C17 UNL     1       0.535  -0.910   0.660  1.00  0.00     0.316 C 
HETATM    2  N7  UNL     1      -0.528  -0.483  -0.097  1.00  0.00    -0.339 N 
HETATM    3  N8  UNL     1       1.709  -0.318   0.266  1.00  0.00    -0.339 N 
HETATM    4  O1  UNL     1       0.453  -1.742   1.552  1.00  0.00    -0.247 OA
HETATM    5  H59 UNL     1      -0.415   0.385  -0.594  1.00  0.00     0.164 HD
HETATM    6  H60 UNL     1       1.634   0.532  -0.270  1.00  0.00     0.164 HD
ENDROOT
BRANCH   2   7
HETATM    7  C14 UNL     1      -1.888  -0.921   0.198  1.00  0.00     0.086 C 
HETATM    8  C13 UNL     1      -2.484  -0.129   1.378  1.00  0.00     0.027 C 
HETATM    9  C12 UNL     1      -3.305   1.066   0.899  1.00  0.00     0.022 C 
HETATM   10  C11 UNL     1      -4.502   0.634   0.027  1.00  0.00     0.062 C 
HETATM   11  C16 UNL     1      -4.224  -0.671  -0.744  1.00  0.00     0.022 C 
HETATM   12  C15 UNL     1      -2.745  -0.826  -1.073  1.00  0.00     0.027 C 
BRANCH  10  13
HETATM   13  N6  UNL     1      -5.668   0.473   0.889  1.00  0.00    -0.272 NA
HETATM   14  H58 UNL     1      -5.594  -0.238   1.615  1.00  0.00     0.129 HD
BRANCH  13  15
HETATM   15  C10 UNL     1      -6.917   0.396   0.268  1.00  0.00     0.114 A 
HETATM   16  C9  UNL     1      -7.971  -0.337   0.836  1.00  0.00     0.117 A 
HETATM   17  C8  UNL     1      -9.172  -0.325   0.154  1.00  0.00     0.141 A 
HETATM   18  N18 UNL     1      -8.063  -1.103   1.980  1.00  0.00    -0.346 N 
HETATM   19  N4  UNL     1      -9.441   0.300  -1.000  1.00  0.00    -0.317 N 
HETATM   20  N19 UNL     1     -10.020  -1.081   0.916  1.00  0.00    -0.320 N 
HETATM   21  C7  UNL     1      -8.371   0.947  -1.494  1.00  0.00     0.160 A 
ATOM     22  H4  UNL     1     -10.355   0.287  -1.453  1.00  0.00     0.170 HD
HETATM   23  N5  UNL     1      -7.160   1.033  -0.909  1.00  0.00    -0.321 N 
ATOM     24  H5  UNL     1      -6.421   1.579  -1.352  1.00  0.00     0.169 HD
HETATM   25  C42 UNL     1      -9.305  -1.540   1.992  1.00  0.00     0.185 A 
ATOM     26  H18 UNL     1      -7.331  -1.290   2.665  1.00  0.00     0.167 HD
BRANCH  21  27
HETATM   27  N3  UNL     1      -8.454   1.593  -2.716  1.00  0.00    -0.264 NA
HETATM   28  H57 UNL     1      -7.738   2.311  -2.713  1.00  0.00     0.130 HD
BRANCH  27  29
HETATM   29  C6  UNL     1      -9.770   1.986  -3.197  1.00  0.00     0.101 C 
BRANCH  29  30
HETATM   30  C5  UNL     1     -10.384   0.886  -4.070  1.00  0.00     0.073 C 
BRANCH  30  31
HETATM   31  C3  UNL     1     -11.670   1.314  -4.689  1.00  0.00     0.026 A 
HETATM   32  C2  UNL     1     -11.876   2.086  -5.814  1.00  0.00     0.116 A 
HETATM   33  N1  UNL     1     -13.232   2.199  -5.927  1.00  0.00    -0.355 N 
HETATM   34  C1  UNL     1     -13.954   2.919  -6.944  1.00  0.00     0.156 C 
HETATM   35  C4  UNL     1     -13.795   1.507  -4.896  1.00  0.00     0.182 A 
HETATM   36  N2  UNL     1     -12.878   0.940  -4.142  1.00  0.00    -0.354 N 
ATOM     37  H2  UNL     1     -13.029   0.348  -3.325  1.00  0.00     0.166 HD
ENDBRANCH  30  31
ENDBRANCH  29  30
ENDBRANCH  27  29
ENDBRANCH  21  27
BRANCH  20  38
HETATM   38  C43 UNL     1     -11.435  -1.299   0.695  1.00  0.00     0.125 C 
HETATM   39  C44 UNL     1     -11.777  -1.939  -0.661  1.00  0.00     0.056 C 
HETATM   40  C45 UNL     1     -13.065  -1.244  -1.106  1.00  0.00     0.118 C 
HETATM   41  C46 UNL     1     -12.874   0.191  -0.601  1.00  0.00     0.171 C 
HETATM   42  C47 UNL     1     -12.256   0.003   0.788  1.00  0.00     0.172 C 
BRANCH  40  43
HETATM   43  N20 UNL     1     -13.262  -1.309  -2.539  1.00  0.00    -0.352 N 
HETATM   44  C48 UNL     1     -13.595  -2.467  -3.191  1.00  0.00     0.241 C 
HETATM   45  O8  UNL     1     -13.729  -3.555  -2.633  1.00  0.00    -0.271 OA
HETATM   46  H64 UNL     1     -13.192  -0.439  -3.080  1.00  0.00     0.163 HD
BRANCH  44  47
HETATM   47  C49 UNL     1     -13.778  -2.315  -4.702  1.00  0.00     0.266 C 
BRANCH  47  48
HETATM   48  O9  UNL     1     -14.194  -3.531  -5.313  1.00  0.00    -0.392 OA
HETATM   49  H70 UNL     1     -14.125  -4.212  -4.612  1.00  0.00     0.210 HD
ENDBRANCH  47  48
ENDBRANCH  44  47
ENDBRANCH  40  43
BRANCH  41  50
HETATM   50  O7  UNL     1     -14.105   0.905  -0.523  1.00  0.00    -0.391 OA
HETATM   51  H69 UNL     1     -14.519   0.613   0.315  1.00  0.00     0.210 HD
ENDBRANCH  41  50
BRANCH  42  52
HETATM   52  O6  UNL     1     -13.320  -0.161   1.744  1.00  0.00    -0.391 OA
HETATM   53  H68 UNL     1     -12.946   0.013   2.628  1.00  0.00     0.210 HD
ENDBRANCH  42  52
ENDBRANCH  20  38
ENDBRANCH  13  15
ENDBRANCH  10  13
ENDBRANCH   2   7
BRANCH   3  54
HETATM   54  C18 UNL     1       2.951  -0.555   0.991  1.00  0.00     0.086 C 
HETATM   55  C19 UNL     1       4.145  -0.350   0.047  1.00  0.00     0.027 C 
HETATM   56  C20 UNL     1       5.412   0.003   0.816  1.00  0.00     0.027 C 
HETATM   57  C21 UNL     1       5.267   1.338   1.572  1.00  0.00     0.083 C 
HETATM   58  C22 UNL     1       3.809   1.612   1.997  1.00  0.00     0.027 C 
HETATM   59  C23 UNL     1       3.033   0.322   2.254  1.00  0.00     0.027 C 
BRANCH  57  60
HETATM   60  N9  UNL     1       6.102   1.338   2.768  1.00  0.00    -0.370 N 
HETATM   61  H61 UNL     1       5.822   0.717   3.521  1.00  0.00     0.161 HD
BRANCH  60  62
HETATM   62  C24 UNL     1       7.489   1.320   2.663  1.00  0.00     0.135 A 
HETATM   63  C27 UNL     1       8.267   1.814   1.599  1.00  0.00     0.122 A 
HETATM   64  C26 UNL     1       9.638   1.676   1.728  1.00  0.00     0.142 A 
HETATM   65  N12 UNL     1       7.961   2.414   0.391  1.00  0.00    -0.346 N 
HETATM   66  N11 UNL     1      10.306   1.119   2.745  1.00  0.00    -0.317 N 
HETATM   67  N13 UNL     1      10.167   2.209   0.585  1.00  0.00    -0.320 N 
HETATM   68  C25 UNL     1       9.489   0.662   3.706  1.00  0.00     0.160 A 
ATOM     69  H11 UNL     1      11.323   1.050   2.785  1.00  0.00     0.170 HD
HETATM   70  N10 UNL     1       8.145   0.744   3.706  1.00  0.00    -0.317 N 
ATOM     71  H10 UNL     1       7.615   0.371   4.494  1.00  0.00     0.170 HD
HETATM   72  C28 UNL     1       9.122   2.650  -0.182  1.00  0.00     0.185 A 
ATOM     73  H12 UNL     1       7.034   2.628   0.023  1.00  0.00     0.167 HD
BRANCH  68  74
HETATM   74  N15 UNL     1      10.026   0.031   4.819  1.00  0.00    -0.264 NA
HETATM   75  H63 UNL     1       9.231  -0.335   5.334  1.00  0.00     0.130 HD
BRANCH  74  76
HETATM   76  C36 UNL     1      11.085  -0.942   4.560  1.00  0.00     0.101 C 
BRANCH  76  77
HETATM   77  C37 UNL     1      10.562  -2.305   4.089  1.00  0.00     0.073 C 
BRANCH  77  78
HETATM   78  C38 UNL     1      10.306  -2.382   2.622  1.00  0.00     0.026 A 
HETATM   79  C39 UNL     1       9.112  -2.259   1.943  1.00  0.00     0.116 A 
HETATM   80  N16 UNL     1       9.432  -2.404   0.625  1.00  0.00    -0.355 N 
HETATM   81  C40 UNL     1      10.772  -2.644   0.545  1.00  0.00     0.182 A 
HETATM   82  C41 UNL     1       8.521  -2.314  -0.487  1.00  0.00     0.156 C 
HETATM   83  N17 UNL     1      11.336  -2.628   1.735  1.00  0.00    -0.354 N 
ATOM     84  H17 UNL     1      12.322  -2.767   1.955  1.00  0.00     0.166 HD
ENDBRANCH  77  78
ENDBRANCH  76  77
ENDBRANCH  74  76
ENDBRANCH  68  74
BRANCH  67  85
HETATM   85  C29 UNL     1      11.568   2.266   0.215  1.00  0.00     0.125 C 
HETATM   86  C30 UNL     1      12.212   0.873   0.107  1.00  0.00     0.056 C 
HETATM   87  C31 UNL     1      13.564   0.987   0.809  1.00  0.00     0.118 C 
HETATM   88  C32 UNL     1      13.333   2.047   1.889  1.00  0.00     0.171 C 
HETATM   89  C33 UNL     1      12.433   3.074   1.199  1.00  0.00     0.172 C 
BRANCH  87  90
HETATM   90  N14 UNL     1      14.009  -0.273   1.374  1.00  0.00    -0.352 N 
HETATM   91  C34 UNL     1      14.430  -1.318   0.574  1.00  0.00     0.241 C 
HETATM   92  O4  UNL     1      14.626  -1.220  -0.632  1.00  0.00    -0.271 OA
HETATM   93  H62 UNL     1      13.638  -0.577   2.272  1.00  0.00     0.163 HD
BRANCH  91  94
HETATM   94  C35 UNL     1      14.655  -2.612   1.361  1.00  0.00     0.266 C 
BRANCH  94  95
HETATM   95  O5  UNL     1      13.897  -2.647   2.567  1.00  0.00    -0.392 OA
HETATM   96  H67 UNL     1      12.960  -2.771   2.281  1.00  0.00     0.210 HD
ENDBRANCH  94  95
ENDBRANCH  91  94
ENDBRANCH  87  90
BRANCH  88  97
HETATM   97  O3  UNL     1      14.556   2.656   2.308  1.00  0.00    -0.391 OA
HETATM   98  H66 UNL     1      15.156   1.926   2.550  1.00  0.00     0.210 HD
ENDBRANCH  88  97
BRANCH  89  99
HETATM   99  O2  UNL     1      13.246   3.996   0.456  1.00  0.00    -0.391 OA
HETATM  100  H65 UNL     1      14.032   4.148   1.026  1.00  0.00     0.210 HD
ENDBRANCH  89  99
ENDBRANCH  67  85
ENDBRANCH  60  62
ENDBRANCH  57  60
ENDBRANCH   3  54
TORSDOF 26
