REMARK  19 active torsions:
REMARK  status: ('A' for Active; 'I' for Inactive)
REMARK    1  A    between atoms: C2_2  and  C3_3 
REMARK       I    between atoms: C2_2  and  N1_52 
REMARK    2  A    between atoms: C5_5  and  N3_54 
REMARK    3  A    between atoms: C8_8  and  C9_9 
REMARK       I    between atoms: C8_8  and  N3_54 
REMARK    4  A    between atoms: C15_15  and  C16_16 
REMARK    5  A    between atoms: C17_17  and  N8_61 
REMARK    6  A    between atoms: C20_20  and  C21_21 
REMARK       I    between atoms: C20_20  and  N8_61 
REMARK    7  A    between atoms: C23_23  and  N10_63 
REMARK    8  A    between atoms: C26_26  and  C27_27 
REMARK       I    between atoms: C26_26  and  N10_63 
REMARK    9  A    between atoms: C27_27  and  C28_28 
REMARK   10  A    between atoms: C27_27  and  N21_76 
REMARK   11  A    between atoms: C28_28  and  C29_29 
REMARK   12  A    between atoms: C29_29  and  N11_64 
REMARK   13  A    between atoms: C30_30  and  C31_31 
REMARK       I    between atoms: C30_30  and  N11_64 
REMARK   14  A    between atoms: C33_33  and  N13_66 
REMARK   15  A    between atoms: C36_36  and  C37_37 
REMARK       I    between atoms: C36_36  and  N13_66 
REMARK   16  A    between atoms: C39_39  and  N15_68 
REMARK   17  A    between atoms: C42_42  and  C43_43 
REMARK       I    between atoms: C42_42  and  N15_68 
REMARK   18  A    between atoms: C44_44  and  N18_72 
REMARK   19  A    between atoms: C47_47  and  C48_48 
REMARK       I    between atoms: C47_47  and  N18_72 
ROOT
HETATM    1  C27 UNL     1      -0.978  -0.223   0.202  1.00  0.00     0.276 C 
ENDROOT
BRANCH   1   2
HETATM    2  C26 UNL     1       0.415   0.220   0.687  1.00  0.00     0.253 C 
HETATM    3  N10 UNL     1       1.468  -0.519   0.188  1.00  0.00    -0.324 N 
HETATM    4  H49 UNL     1       1.308  -1.280  -0.462  1.00  0.00     0.169 HD
HETATM    5  O4  UNL     1       0.471   1.183   1.454  1.00  0.00    -0.271 OA
BRANCH   3   6
HETATM    6  C23 UNL     1       2.803  -0.280   0.473  1.00  0.00     0.052 A 
HETATM    7  C22 UNL     1       3.896  -1.014  -0.056  1.00  0.00     0.066 A 
HETATM    8  C21 UNL     1       5.081  -0.473   0.436  1.00  0.00     0.105 A 
HETATM    9  N9  UNL     1       4.704   0.579   1.254  1.00  0.00    -0.354 N 
HETATM   10  C24 UNL     1       3.335   0.686   1.288  1.00  0.00     0.120 A 
HETATM   11  C25 UNL     1       5.601   1.446   1.993  1.00  0.00     0.156 C 
BRANCH   8  12
HETATM   12  C20 UNL     1       6.473  -0.843   0.169  1.00  0.00     0.274 C 
HETATM   13  N8  UNL     1       6.620  -2.132  -0.304  1.00  0.00    -0.306 N 
HETATM   14  H48 UNL     1       5.819  -2.735  -0.353  1.00  0.00     0.170 HD
HETATM   15  O3  UNL     1       7.388  -0.055   0.378  1.00  0.00    -0.266 OA
BRANCH  13  16
HETATM   16  C17 UNL     1       7.824  -2.698  -0.644  1.00  0.00     0.125 A 
HETATM   17  C18 UNL     1       7.991  -3.997  -1.064  1.00  0.00     0.140 A 
HETATM   18  N7  UNL     1       9.339  -4.126  -1.288  1.00  0.00    -0.341 N 
HETATM   19  C16 UNL     1       9.923  -2.917  -1.004  1.00  0.00     0.153 A 
HETATM   20  C19 UNL     1      10.009  -5.322  -1.736  1.00  0.00     0.157 C 
HETATM   21  N6  UNL     1       9.015  -2.042  -0.618  1.00  0.00    -0.324 N 
ATOM     22  H6  UNL     1       9.174  -1.070  -0.353  1.00  0.00     0.169 HD
BRANCH  19  23
HETATM   23  C15 UNL     1      11.310  -2.605  -1.093  1.00  0.00     0.151 A 
HETATM   24  N4  UNL     1      12.283  -3.405  -1.482  1.00  0.00    -0.338 N 
HETATM   25  C12 UNL     1      13.427  -2.649  -1.387  1.00  0.00     0.060 A 
ATOM     26  H4  UNL     1      12.204  -4.375  -1.787  1.00  0.00     0.167 HD
HETATM   27  C11 UNL     1      13.142  -1.363  -0.937  1.00  0.00     0.061 A 
HETATM   28  C13 UNL     1      14.758  -2.998  -1.661  1.00  0.00     0.033 A 
HETATM   29  C10 UNL     1      14.117  -0.382  -0.747  1.00  0.00     0.049 A 
HETATM   30  N5  UNL     1      11.785  -1.364  -0.756  1.00  0.00    -0.337 N 
HETATM   31  C9  UNL     1      15.445  -0.739  -1.042  1.00  0.00     0.034 A 
HETATM   32  C14 UNL     1      15.763  -2.034  -1.480  1.00  0.00     0.019 A 
HETATM   33  H47 UNL     1      11.204  -0.604  -0.427  1.00  0.00     0.167 HD
BRANCH  31  34
HETATM   34  C8  UNL     1      16.498   0.298  -0.841  1.00  0.00     0.256 C 
HETATM   35  N3  UNL     1      17.540   0.258  -1.748  1.00  0.00    -0.322 N 
HETATM   36  H46 UNL     1      17.505  -0.399  -2.514  1.00  0.00     0.169 HD
HETATM   37  O2  UNL     1      16.351   1.104   0.071  1.00  0.00    -0.267 OA
BRANCH  35  38
HETATM   38  C5  UNL     1      18.618   1.123  -1.747  1.00  0.00     0.053 A 
HETATM   39  C4  UNL     1      18.937   2.189  -0.876  1.00  0.00     0.066 A 
HETATM   40  C3  UNL     1      20.146   2.742  -1.275  1.00  0.00     0.104 A 
HETATM   41  N2  UNL     1      20.523   2.064  -2.416  1.00  0.00    -0.354 N 
HETATM   42  C6  UNL     1      19.621   1.064  -2.687  1.00  0.00     0.120 A 
HETATM   43  C7  UNL     1      21.644   2.392  -3.272  1.00  0.00     0.156 C 
BRANCH  40  44
HETATM   44  C2  UNL     1      20.838   3.848  -0.647  1.00  0.00     0.268 C 
HETATM   45  N1  UNL     1      22.196   3.646  -0.501  1.00  0.00    -0.360 N 
HETATM   46  C1  UNL     1      22.987   4.579   0.261  1.00  0.00     0.149 C 
HETATM   47  H45 UNL     1      22.512   2.687  -0.544  1.00  0.00     0.162 HD
HETATM   48  O1  UNL     1      20.273   4.854  -0.236  1.00  0.00    -0.266 OA
ENDBRANCH  40  44
ENDBRANCH  35  38
ENDBRANCH  31  34
ENDBRANCH  19  23
ENDBRANCH  13  16
ENDBRANCH   8  12
ENDBRANCH   3   6
ENDBRANCH   1   2
BRANCH   1  49
HETATM   49  C28 UNL     1      -1.403  -1.529   0.892  1.00  0.00     0.062 C 
BRANCH  49  50
HETATM   50  C29 UNL     1      -2.510  -2.296   0.156  1.00  0.00     0.125 C 
BRANCH  50  51
HETATM   51  N11 UNL     1      -3.761  -2.350   0.887  1.00  0.00    -0.356 N 
HETATM   52  C30 UNL     1      -4.606  -1.266   0.967  1.00  0.00     0.268 C 
HETATM   53  O5  UNL     1      -4.239  -0.164   0.552  1.00  0.00    -0.266 OA
HETATM   54  H50 UNL     1      -4.212  -3.257   0.961  1.00  0.00     0.162 HD
BRANCH  52  55
HETATM   55  C31 UNL     1      -5.917  -1.524   1.508  1.00  0.00     0.104 A 
HETATM   56  C32 UNL     1      -7.103  -0.933   1.088  1.00  0.00     0.066 A 
HETATM   57  C33 UNL     1      -8.174  -1.467   1.844  1.00  0.00     0.053 A 
HETATM   58  C34 UNL     1      -7.617  -2.349   2.736  1.00  0.00     0.120 A 
HETATM   59  N12 UNL     1      -6.257  -2.353   2.560  1.00  0.00    -0.354 N 
HETATM   60  C35 UNL     1      -5.354  -3.068   3.438  1.00  0.00     0.156 C 
BRANCH  57  61
HETATM   61  N13 UNL     1      -9.505  -1.133   1.682  1.00  0.00    -0.320 N 
HETATM   62  C36 UNL     1     -10.566  -1.631   2.420  1.00  0.00     0.273 C 
HETATM   63  O6  UNL     1     -10.443  -2.433   3.342  1.00  0.00    -0.266 OA
HETATM   64  H51 UNL     1      -9.706  -0.448   0.969  1.00  0.00     0.169 HD
BRANCH  62  65
HETATM   65  C37 UNL     1     -11.872  -1.108   2.018  1.00  0.00     0.105 A 
HETATM   66  C38 UNL     1     -12.225  -0.325   0.921  1.00  0.00     0.066 A 
HETATM   67  C39 UNL     1     -13.615  -0.073   0.962  1.00  0.00     0.053 A 
HETATM   68  C40 UNL     1     -14.101  -0.710   2.077  1.00  0.00     0.120 A 
HETATM   69  N14 UNL     1     -13.054  -1.336   2.706  1.00  0.00    -0.354 N 
HETATM   70  C41 UNL     1     -13.197  -2.109   3.923  1.00  0.00     0.156 C 
BRANCH  67  71
HETATM   71  N15 UNL     1     -14.415   0.647   0.106  1.00  0.00    -0.319 N 
HETATM   72  C42 UNL     1     -14.002   1.318  -1.029  1.00  0.00     0.290 C 
HETATM   73  O7  UNL     1     -12.846   1.376  -1.443  1.00  0.00    -0.264 OA
HETATM   74  H52 UNL     1     -15.413   0.707   0.307  1.00  0.00     0.169 HD
BRANCH  72  75
HETATM   75  C43 UNL     1     -15.123   1.967  -1.694  1.00  0.00     0.178 A 
HETATM   76  N16 UNL     1     -16.360   1.899  -1.223  1.00  0.00    -0.323 N 
HETATM   77  C44 UNL     1     -17.135   2.610  -2.086  1.00  0.00     0.125 A 
ATOM     78  H16 UNL     1     -16.669   1.411  -0.382  1.00  0.00     0.169 HD
HETATM   79  C45 UNL     1     -16.376   3.129  -3.107  1.00  0.00     0.140 A 
HETATM   80  N17 UNL     1     -15.098   2.714  -2.848  1.00  0.00    -0.339 N 
HETATM   81  C46 UNL     1     -13.936   3.010  -3.649  1.00  0.00     0.157 C 
BRANCH  77  82
HETATM   82  N18 UNL     1     -18.483   2.780  -1.948  1.00  0.00    -0.305 N 
HETATM   83  C47 UNL     1     -19.254   2.264  -0.928  1.00  0.00     0.291 C 
HETATM   84  O8  UNL     1     -18.858   1.578   0.009  1.00  0.00    -0.264 OA
HETATM   85  H53 UNL     1     -18.980   3.327  -2.643  1.00  0.00     0.170 HD
BRANCH  83  86
HETATM   86  C48 UNL     1     -20.654   2.641  -1.096  1.00  0.00     0.176 A 
HETATM   87  N19 UNL     1     -21.080   3.385  -2.111  1.00  0.00    -0.346 N 
HETATM   88  C49 UNL     1     -22.431   3.525  -1.929  1.00  0.00     0.107 A 
ATOM     89  H19 UNL     1     -20.518   3.772  -2.869  1.00  0.00     0.167 HD
HETATM   90  C50 UNL     1     -22.841   2.864  -0.797  1.00  0.00     0.109 A 
HETATM   91  N20 UNL     1     -21.706   2.307  -0.276  1.00  0.00    -0.342 N 
HETATM   92  C51 UNL     1     -21.635   1.510   0.925  1.00  0.00     0.157 C 
ENDBRANCH  83  86
ENDBRANCH  77  82
ENDBRANCH  72  75
ENDBRANCH  67  71
ENDBRANCH  62  65
ENDBRANCH  57  61
ENDBRANCH  52  55
ENDBRANCH  50  51
ENDBRANCH  49  50
ENDBRANCH   1  49
BRANCH   1  93
HETATM   93  N21 UNL     1      -1.947   0.876   0.513  1.00  0.00    -0.066 N 
HETATM   94  H54 UNL     1      -1.796   1.201   1.480  1.00  0.00     0.275 HD
HETATM   95  H55 UNL     1      -2.946   0.599   0.430  1.00  0.00     0.275 HD
HETATM   96  H56 UNL     1      -1.796   1.704  -0.073  1.00  0.00     0.275 HD
ENDBRANCH   1  93
TORSDOF 19
