REMARK  0 active torsions:
REMARK  status: ('A' for Active; 'I' for Inactive)
REMARK       I    between atoms: C2_2  and  C3_3 
REMARK       I    between atoms: C3_3  and  C5_5 
REMARK       I    between atoms: C5_5  and  C6_6 
REMARK       I    between atoms: C5_5  and  N10_79 
REMARK       I    between atoms: C6_6  and  N1_69 
REMARK       I    between atoms: C7_7  and  C8_8 
REMARK       I    between atoms: C7_7  and  C11_11 
REMARK       I    between atoms: C7_7  and  N1_69 
REMARK       I    between atoms: C11_11  and  N2_70 
REMARK       I    between atoms: C12_12  and  C13_13 
REMARK       I    between atoms: C12_12  and  C17_17 
REMARK       I    between atoms: C12_12  and  N2_70 
REMARK       I    between atoms: C13_13  and  C14_14 
REMARK       I    between atoms: C14_14  and  C15_15 
REMARK       I    between atoms: C15_15  and  N3_71 
REMARK       I    between atoms: C16_16  and  N4_73 
REMARK       I    between atoms: C16_16  and  N5_74 
REMARK       I    between atoms: C17_17  and  N6_75 
REMARK       I    between atoms: C18_18  and  C19_19 
REMARK       I    between atoms: C18_18  and  C21_21 
REMARK       I    between atoms: C18_18  and  N6_75 
REMARK       I    between atoms: C19_19  and  O4_59 
REMARK       I    between atoms: C21_21  and  N7_76 
REMARK       I    between atoms: C22_22  and  C23_23 
REMARK       I    between atoms: C22_22  and  C27_27 
REMARK       I    between atoms: C22_22  and  N7_76 
REMARK       I    between atoms: C23_23  and  C24_24 
REMARK       I    between atoms: C24_24  and  C25_25 
REMARK       I    between atoms: C25_25  and  C26_26 
REMARK       I    between atoms: C26_26  and  N8_77 
REMARK       I    between atoms: C27_27  and  N9_78 
REMARK       I    between atoms: C28_28  and  C29_29 
REMARK       I    between atoms: C28_28  and  N9_78 
REMARK       I    between atoms: C29_29  and  O8_63 
REMARK       I    between atoms: C30_30  and  C31_31 
REMARK       I    between atoms: C30_30  and  N10_79 
REMARK       I    between atoms: C31_31  and  C32_32 
REMARK       I    between atoms: C31_31  and  N11_80 
REMARK       I    between atoms: C32_32  and  C33_33 
REMARK       I    between atoms: C36_36  and  C37_37 
REMARK       I    between atoms: C36_36  and  N11_80 
REMARK       I    between atoms: C37_37  and  N12_81 
REMARK       I    between atoms: C39_39  and  C40_40 
REMARK       I    between atoms: C39_39  and  N12_81 
REMARK       I    between atoms: C44_44  and  C45_45 
REMARK       I    between atoms: C44_44  and  N13_82 
REMARK       I    between atoms: C45_45  and  C46_46 
REMARK       I    between atoms: C45_45  and  N17_87 
REMARK       I    between atoms: C46_46  and  C47_47 
REMARK       I    between atoms: C47_47  and  C48_48 
REMARK       I    between atoms: C48_48  and  N14_83 
REMARK       I    between atoms: C49_49  and  N15_85 
REMARK       I    between atoms: C49_49  and  N16_86 
REMARK       I    between atoms: C50_50  and  C51_51 
REMARK       I    between atoms: C50_50  and  N17_87 
REMARK       I    between atoms: C51_51  and  C52_52 
REMARK       I    between atoms: C51_51  and  N18_88 
REMARK       I    between atoms: C52_52  and  C53_53 
ROOT
HETATM    1  C1  UNL     1       0.116  -2.651   3.654  1.00  0.00     0.005 C 
HETATM    2  C2  UNL     1      -0.881  -1.502   3.691  1.00  0.00     0.002 C 
HETATM    3  C3  UNL     1      -0.355  -0.195   3.064  1.00  0.00     0.013 C 
HETATM    4  C4  UNL     1      -1.380   0.925   3.301  1.00  0.00     0.012 C 
HETATM    5  C5  UNL     1       0.053  -0.310   1.574  1.00  0.00     0.180 C 
HETATM    6  C6  UNL     1      -1.145  -0.424   0.605  1.00  0.00     0.241 C 
HETATM    7  C7  UNL     1      -2.880  -1.953  -0.300  1.00  0.00     0.180 C 
HETATM    8  C8  UNL     1      -2.748  -3.185  -1.219  1.00  0.00     0.009 C 
HETATM    9  C9  UNL     1      -4.065  -3.493  -1.939  1.00  0.00     0.012 C 
HETATM   10  C10 UNL     1      -1.644  -2.974  -2.263  1.00  0.00     0.012 C 
HETATM   11  C11 UNL     1      -3.945  -2.184   0.791  1.00  0.00     0.241 C 
HETATM   12  C12 UNL     1      -6.215  -1.558   1.555  1.00  0.00     0.176 C 
HETATM   13  C13 UNL     1      -6.775  -0.220   2.060  1.00  0.00     0.036 C 
HETATM   14  C14 UNL     1      -7.289   0.773   1.006  1.00  0.00     0.022 C 
HETATM   15  C15 UNL     1      -6.187   1.554   0.279  1.00  0.00     0.121 C 
HETATM   16  C16 UNL     1      -4.666   1.184  -1.482  1.00  0.00     0.121 C 
HETATM   17  C17 UNL     1      -7.277  -2.437   0.851  1.00  0.00     0.241 C 
HETATM   18  C18 UNL     1      -9.268  -3.886   1.291  1.00  0.00     0.205 C 
HETATM   19  C19 UNL     1      -9.747  -4.597   2.578  1.00  0.00     0.146 C 
HETATM   20  C20 UNL     1      -8.695  -5.577   3.090  1.00  0.00     0.042 C 
HETATM   21  C21 UNL     1     -10.477  -3.425   0.444  1.00  0.00     0.243 C 
HETATM   22  C22 UNL     1     -11.207  -1.846  -1.351  1.00  0.00     0.176 C 
HETATM   23  C23 UNL     1     -11.933  -0.592  -0.832  1.00  0.00     0.035 C 
HETATM   24  C24 UNL     1     -12.756  -0.833   0.440  1.00  0.00     0.004 C 
HETATM   25  C25 UNL     1     -11.978  -0.522   1.726  1.00  0.00     0.030 C 
HETATM   26  C26 UNL     1     -12.652  -1.084   2.979  1.00  0.00     0.267 C 
HETATM   27  C27 UNL     1     -10.491  -1.546  -2.689  1.00  0.00     0.240 C 
HETATM   28  C28 UNL     1      -8.414  -1.962  -3.927  1.00  0.00     0.232 C 
HETATM   29  C29 UNL     1      -7.412  -0.952  -3.374  1.00  0.00     0.158 C 
HETATM   30  C30 UNL     1       2.152   1.014   1.362  1.00  0.00     0.241 C 
HETATM   31  C31 UNL     1       2.765   2.305   0.787  1.00  0.00     0.177 C 
HETATM   32  C32 UNL     1       3.190   2.117  -0.679  1.00  0.00     0.038 C 
HETATM   33  C33 UNL     1       2.047   1.969  -1.703  1.00  0.00    -0.020 C 
HETATM   34  C34 UNL     1       2.634   1.682  -3.089  1.00  0.00     0.009 C 
HETATM   35  C35 UNL     1       1.160   3.213  -1.769  1.00  0.00     0.009 C 
HETATM   36  C36 UNL     1       4.473   3.865   1.723  1.00  0.00     0.240 C 
HETATM   37  C37 UNL     1       5.753   3.908   2.583  1.00  0.00     0.172 C 
HETATM   38  C38 UNL     1       6.582   5.149   2.280  1.00  0.00     0.042 C 
HETATM   39  C39 UNL     1       7.446   2.190   3.231  1.00  0.00     0.241 C 
HETATM   40  C40 UNL     1       8.229   0.966   2.698  1.00  0.00     0.179 C 
HETATM   41  C41 UNL     1       9.186   0.406   3.756  1.00  0.00     0.037 C 
HETATM   42  C42 UNL     1      10.299  -0.210   2.927  1.00  0.00     0.022 C 
HETATM   43  C43 UNL     1      10.452   0.782   1.785  1.00  0.00     0.127 C 
HETATM   44  C44 UNL     1       8.583   1.539   0.298  1.00  0.00     0.243 C 
HETATM   45  C45 UNL     1       9.542   1.945  -0.847  1.00  0.00     0.176 C 
HETATM   46  C46 UNL     1       9.503   3.469  -1.033  1.00  0.00     0.036 C 
HETATM   47  C47 UNL     1      10.199   4.280   0.068  1.00  0.00     0.022 C 
HETATM   48  C48 UNL     1      11.710   4.067   0.164  1.00  0.00     0.121 C 
HETATM   49  C49 UNL     1      13.582   4.236  -1.249  1.00  0.00     0.121 C 
HETATM   50  C50 UNL     1       9.308  -0.026  -2.307  1.00  0.00     0.251 C 
HETATM   51  C51 UNL     1       8.476  -0.651  -3.455  1.00  0.00     0.309 C 
HETATM   52  C52 UNL     1       7.054  -0.965  -2.954  1.00  0.00     0.049 C 
HETATM   53  C53 UNL     1       5.975  -1.253  -4.019  1.00  0.00    -0.020 C 
HETATM   54  C54 UNL     1       6.220  -2.535  -4.811  1.00  0.00     0.009 C 
HETATM   55  C55 UNL     1       5.766  -0.070  -4.966  1.00  0.00     0.009 C 
HETATM   56  O1  UNL     1      -1.612   0.566   0.035  1.00  0.00    -0.271 OA
HETATM   57  O2  UNL     1      -3.777  -2.996   1.701  1.00  0.00    -0.271 OA
HETATM   58  O3  UNL     1      -7.218  -2.776  -0.330  1.00  0.00    -0.271 OA
HETATM   59  O4  UNL     1      -9.947  -3.623   3.618  1.00  0.00    -0.393 OA
HETATM   60  O5  UNL     1     -11.538  -4.046   0.409  1.00  0.00    -0.271 OA
HETATM   61  O6  UNL     1     -10.906  -0.734  -3.512  1.00  0.00    -0.271 OA
HETATM   62  O7  UNL     1      -6.399  -0.571  -3.948  1.00  0.00    -0.649 OA
HETATM   63  O8  UNL     1      -7.734  -0.478  -2.151  1.00  0.00    -0.775 OA
HETATM   64  O9  UNL     1       2.826   0.163   1.942  1.00  0.00    -0.271 OA
HETATM   65  O10 UNL     1       3.920   4.862   1.268  1.00  0.00    -0.271 OA
HETATM   66  O11 UNL     1       7.584   2.649   4.362  1.00  0.00    -0.271 OA
HETATM   67  O12 UNL     1       7.359   1.536   0.108  1.00  0.00    -0.271 OA
HETATM   68  O13 UNL     1      10.158  -0.656  -1.678  1.00  0.00    -0.271 OA
HETATM   69  N1  UNL     1      -1.635  -1.697   0.428  1.00  0.00    -0.346 N 
HETATM   70  N2  UNL     1      -5.055  -1.377   0.700  1.00  0.00    -0.346 N 
HETATM   71  N3  UNL     1      -5.789   0.853  -0.950  1.00  0.00    -0.372 N 
ATOM     72  H3  UNL     1      -6.380   0.132  -1.365  1.00  0.00     0.161 HD
HETATM   73  N4  UNL     1      -3.727   2.065  -1.072  1.00  0.00    -0.279 NA
HETATM   74  N5  UNL     1      -4.249   0.593  -2.622  1.00  0.00    -0.279 NA
HETATM   75  N6  UNL     1      -8.337  -2.804   1.645  1.00  0.00    -0.344 N 
HETATM   76  N7  UNL     1     -10.231  -2.356  -0.388  1.00  0.00    -0.346 N 
HETATM   77  N8  UNL     1     -12.465  -2.532   3.093  1.00  0.00     0.078 N 
HETATM   78  N9  UNL     1      -9.394  -2.356  -2.929  1.00  0.00    -0.349 N 
HETATM   79  N10 UNL     1       0.804   0.870   1.146  1.00  0.00    -0.346 N 
HETATM   80  N11 UNL     1       3.932   2.604   1.608  1.00  0.00    -0.346 N 
HETATM   81  N12 UNL     1       6.524   2.691   2.343  1.00  0.00    -0.346 N 
HETATM   82  N13 UNL     1       9.104   1.285   1.551  1.00  0.00    -0.337 N 
HETATM   83  N14 UNL     1      12.320   4.391  -1.120  1.00  0.00    -0.372 N 
ATOM     84  H14 UNL     1      11.753   4.733  -1.896  1.00  0.00     0.161 HD
HETATM   85  N15 UNL     1      14.176   4.498  -2.433  1.00  0.00    -0.279 NA
HETATM   86  N16 UNL     1      14.503   3.819  -0.352  1.00  0.00    -0.279 NA
HETATM   87  N17 UNL     1       9.010   1.296  -2.048  1.00  0.00    -0.346 N 
HETATM   88  N18 UNL     1       9.163  -1.861  -3.945  1.00  0.00     0.092 N 
HETATM   89  H80 UNL     1     -10.825  -3.201   3.441  1.00  0.00     0.210 HD
HETATM   90  H81 UNL     1      -6.991   0.116  -1.863  1.00  0.00     0.167 HD
HETATM   91  H82 UNL     1      -1.360  -2.421   1.082  1.00  0.00     0.163 HD
HETATM   92  H83 UNL     1      -5.219  -0.886  -0.177  1.00  0.00     0.163 HD
HETATM   93  H84 UNL     1      -2.801   1.623  -1.053  1.00  0.00     0.126 HD
HETATM   94  H85 UNL     1      -3.876   2.465  -0.156  1.00  0.00     0.126 HD
HETATM   95  H86 UNL     1      -4.995   0.135  -3.154  1.00  0.00     0.126 HD
HETATM   96  H87 UNL     1      -3.745   1.229  -3.229  1.00  0.00     0.126 HD
HETATM   97  H88 UNL     1      -8.336  -2.575   2.637  1.00  0.00     0.163 HD
HETATM   98  H89 UNL     1      -9.346  -1.866  -0.298  1.00  0.00     0.163 HD
HETATM   99  H90 UNL     1     -12.811  -2.987   2.239  1.00  0.00     0.312 HD
HETATM  100  H91 UNL     1     -13.079  -2.875   3.836  1.00  0.00     0.312 HD
HETATM  101  H92 UNL     1      -9.019  -2.827  -2.111  1.00  0.00     0.163 HD
HETATM  102  H93 UNL     1       0.277   1.600   0.678  1.00  0.00     0.163 HD
HETATM  103  H94 UNL     1       4.427   1.819   2.026  1.00  0.00     0.163 HD
HETATM  104  H95 UNL     1       6.566   2.342   1.383  1.00  0.00     0.163 HD
HETATM  105  H96 UNL     1      14.796   3.751  -2.724  1.00  0.00     0.126 HD
HETATM  106  H97 UNL     1      13.466   4.661  -3.141  1.00  0.00     0.126 HD
HETATM  107  H98 UNL     1      15.388   4.300  -0.468  1.00  0.00     0.126 HD
HETATM  108  H99 UNL     1      14.196   3.866   0.610  1.00  0.00     0.126 HD
HETATM  109  HA0 UNL     1       8.101   1.625  -2.354  1.00  0.00     0.163 HD
HETATM  110  HA1 UNL     1      10.117  -1.599  -4.201  1.00  0.00     0.313 HD
HETATM  111  HA2 UNL     1       9.296  -2.483  -3.142  1.00  0.00     0.313 HD
ENDROOT
TORSDOF 44
