REMARK  20 active torsions:
REMARK  status: ('A' for Active; 'I' for Inactive)
REMARK    1  A    between atoms: C3_3  and  S1_62 
REMARK    2  A    between atoms: C5_5  and  C7_7 
REMARK    3  A    between atoms: C7_7  and  C8_8 
REMARK    4  A    between atoms: C8_8  and  C9_9 
REMARK       I    between atoms: C9_9  and  N5_41 
REMARK    5  A    between atoms: C10_10  and  C11_11 
REMARK    6  A    between atoms: C10_10  and  S1_62 
REMARK    7  A    between atoms: C12_12  and  C33_33 
REMARK    8  A    between atoms: C14_14  and  N7_43 
REMARK    9  A    between atoms: C16_16  and  C17_17 
REMARK       I    between atoms: C16_16  and  N7_43 
REMARK   10  A    between atoms: C17_17  and  C29_29 
REMARK   11  A    between atoms: C18_18  and  C21_21 
REMARK   12  A    between atoms: C18_18  and  O5_55 
REMARK       I    between atoms: C21_21  and  N9_46 
REMARK   13  A    between atoms: C22_22  and  C23_23 
REMARK       I    between atoms: C22_22  and  N10_47 
REMARK   14  A    between atoms: C25_25  and  O9_59 
REMARK   15  A    between atoms: C26_26  and  O8_58 
REMARK   16  A    between atoms: C31_31  and  N12_50 
REMARK   17  A    between atoms: C33_33  and  O11_61 
REMARK   18  A    between atoms: N5_41  and  O2_52 
REMARK   19  A    between atoms: N8_44  and  O5_55 
REMARK   20  A    between atoms: N9_46  and  N10_47 
ROOT
HETATM    1  C16 UNL     1      -0.718   1.379   1.459  1.00  0.00     0.273 C 
HETATM    2  N7  UNL     1      -0.307   1.082   0.179  1.00  0.00    -0.340 N 
HETATM    3  O4  UNL     1       0.021   1.772   2.350  1.00  0.00    -0.266 OA
HETATM    4  H26 UNL     1      -1.026   0.864  -0.507  1.00  0.00     0.163 HD
ENDROOT
BRANCH   2   5
HETATM    5  C14 UNL     1       1.112   1.224  -0.225  1.00  0.00     0.211 A 
HETATM    6  C13 UNL     1       2.123   0.132   0.250  1.00  0.00     0.187 A 
HETATM    7  N6  UNL     1       2.400  -0.117  -1.151  1.00  0.00    -0.293 N 
HETATM    8  S3  UNL     1       1.443  -1.379   0.999  1.00  0.00    -0.136 SA
HETATM    9  C12 UNL     1       2.921  -1.270  -1.666  1.00  0.00     0.116 C 
HETATM   10  C15 UNL     1       1.461   0.720  -1.655  1.00  0.00     0.251 A 
HETATM   11  C11 UNL     1       3.264  -2.318  -0.879  1.00  0.00    -0.027 C 
HETATM   12  C32 UNL     1       2.918  -2.365   0.598  1.00  0.00     0.113 C 
HETATM   13  O3  UNL     1       1.021   0.890  -2.767  1.00  0.00    -0.271 OA
BRANCH   9  14
HETATM   14  C33 UNL     1       3.127  -1.292  -3.139  1.00  0.00     0.194 C 
HETATM   15  O10 UNL     1       3.815  -0.503  -3.764  1.00  0.00    -0.645 OA
BRANCH  14  16
HETATM   16  O11 UNL     1       2.447  -2.289  -3.728  1.00  0.00    -0.772 OA
HETATM   17  H34 UNL     1       2.610  -2.151  -4.685  1.00  0.00     0.167 HD
ENDBRANCH  14  16
ENDBRANCH   9  14
BRANCH  11  18
HETATM   18  C10 UNL     1       3.942  -3.586  -1.367  1.00  0.00     0.118 C 
BRANCH  18  19
HETATM   19  S1  UNL     1       5.511  -3.338  -2.253  1.00  0.00    -0.105 SA
BRANCH  19  20
HETATM   20  C3  UNL     1       6.345  -2.157  -1.288  1.00  0.00     0.113 A 
HETATM   21  C4  UNL     1       6.778  -1.026  -1.867  1.00  0.00     0.065 A 
HETATM   22  C5  UNL     1       7.479  -0.047  -0.980  1.00  0.00     0.029 A 
HETATM   23  N3  UNL     1       7.706  -0.228   0.288  1.00  0.00    -0.193 N 
HETATM   24  C6  UNL     1       7.259  -1.394   0.836  1.00  0.00     0.706 A 
ATOM     25  H3  UNL     1       8.196   0.470   0.847  1.00  0.00     0.184 HD
HETATM   26  N2  UNL     1       6.590  -2.365   0.077  1.00  0.00    -0.078 N 
HETATM   27  N4  UNL     1       7.345  -1.802   2.082  1.00  0.00    -0.178 N 
HETATM   28  N1  UNL     1       6.244  -3.403   0.889  1.00  0.00    -0.267 N 
HETATM   29  C2  UNL     1       6.745  -3.025   2.067  1.00  0.00     0.109 A 
ATOM     30  H1  UNL     1       5.732  -4.254   0.656  1.00  0.00     0.189 HD
HETATM   31  C1  UNL     1       6.632  -3.861   3.279  1.00  0.00     0.091 C 
ATOM     32  H4  UNL     1       7.763  -1.316   2.875  1.00  0.00     0.185 HD
BRANCH  22  33
HETATM   33  C7  UNL     1       7.986   1.223  -1.643  1.00  0.00     0.067 C 
BRANCH  33  34
HETATM   34  C8  UNL     1       8.009   2.409  -0.685  1.00  0.00     0.111 C 
BRANCH  34  35
HETATM   35  C9  UNL     1       8.395   3.687  -1.390  1.00  0.00     0.241 C 
HETATM   36  N5  UNL     1       8.431   4.782  -0.555  1.00  0.00    -0.237 N 
HETATM   37  H25 UNL     1       8.612   4.684   0.439  1.00  0.00     0.197 HD
HETATM   38  O1  UNL     1       8.646   3.770  -2.589  1.00  0.00    -0.271 OA
BRANCH  36  39
HETATM   39  O2  UNL     1       8.917   5.970  -1.155  1.00  0.00    -0.287 OA
HETATM   40  H31 UNL     1       9.064   5.693  -2.087  1.00  0.00     0.244 HD
ENDBRANCH  36  39
ENDBRANCH  34  35
ENDBRANCH  33  34
ENDBRANCH  22  33
ENDBRANCH  19  20
ENDBRANCH  18  19
ENDBRANCH  11  18
ENDBRANCH   2   5
BRANCH   1  41
HETATM   41  C17 UNL     1      -2.192   1.139   1.728  1.00  0.00     0.149 C 
HETATM   42  N8  UNL     1      -3.150   1.680   1.030  1.00  0.00    -0.258 N 
ATOM     43  H8  UNL     1      -4.135   1.514   1.234  1.00  0.00     0.194 HD
BRANCH  41  44
HETATM   44  C29 UNL     1      -2.648   0.241   2.782  1.00  0.00     0.074 A 
HETATM   45  C30 UNL     1      -1.888  -0.336   3.781  1.00  0.00     0.084 A 
HETATM   46  S2  UNL     1      -2.890  -1.291   4.802  1.00  0.00    -0.070 SA
HETATM   47  C31 UNL     1      -4.246  -0.902   3.830  1.00  0.00     0.121 A 
HETATM   48  N11 UNL     1      -3.993  -0.114   2.822  1.00  0.00    -0.339 N 
ATOM     49  H11 UNL     1      -4.692   0.202   2.149  1.00  0.00     0.167 HD
BRANCH  47  50
HETATM   50  N12 UNL     1      -5.486  -1.352   4.083  1.00  0.00    -0.283 NA
HETATM   51  H29 UNL     1      -6.202  -0.818   3.577  1.00  0.00     0.126 HD
HETATM   52  H30 UNL     1      -5.730  -1.499   5.053  1.00  0.00     0.126 HD
ENDBRANCH  47  50
ENDBRANCH  41  44
BRANCH  42  53
HETATM   53  O5  UNL     1      -2.733   2.501  -0.014  1.00  0.00    -0.259 OA
BRANCH  53  54
HETATM   54  C18 UNL     1      -3.873   3.154  -0.600  1.00  0.00     0.163 C 
HETATM   55  C19 UNL     1      -4.324   4.293   0.325  1.00  0.00     0.059 C 
HETATM   56  C20 UNL     1      -3.355   3.761  -1.911  1.00  0.00     0.059 C 
BRANCH  54  57
HETATM   57  C21 UNL     1      -5.086   2.219  -0.923  1.00  0.00     0.272 C 
HETATM   58  N9  UNL     1      -5.688   1.621   0.178  1.00  0.00    -0.265 N 
HETATM   59  H27 UNL     1      -5.105   1.455   1.008  1.00  0.00     0.190 HD
HETATM   60  O6  UNL     1      -5.520   2.036  -2.064  1.00  0.00    -0.268 OA
BRANCH  58  61
HETATM   61  N10 UNL     1      -6.657   0.640  -0.089  1.00  0.00    -0.263 N 
HETATM   62  C22 UNL     1      -7.340   0.055   0.960  1.00  0.00     0.270 C 
HETATM   63  O7  UNL     1      -7.117   0.268   2.149  1.00  0.00    -0.266 OA
HETATM   64  H28 UNL     1      -6.999   0.624  -1.048  1.00  0.00     0.190 HD
BRANCH  62  65
HETATM   65  C23 UNL     1      -8.431  -0.880   0.570  1.00  0.00     0.036 A 
HETATM   66  C24 UNL     1      -8.363  -1.639  -0.609  1.00  0.00     0.056 A 
HETATM   67  C25 UNL     1      -9.412  -2.499  -0.916  1.00  0.00     0.099 A 
HETATM   68  C26 UNL     1     -10.510  -2.611  -0.065  1.00  0.00     0.098 A 
HETATM   69  C27 UNL     1     -10.579  -1.877   1.109  1.00  0.00     0.040 A 
HETATM   70  C28 UNL     1      -9.533  -1.012   1.432  1.00  0.00     0.020 A 
BRANCH  67  71
HETATM   71  O9  UNL     1      -9.409  -3.268  -2.048  1.00  0.00    -0.358 OA
HETATM   72  H33 UNL     1      -8.580  -3.110  -2.532  1.00  0.00     0.217 HD
ENDBRANCH  67  71
BRANCH  68  73
HETATM   73  O8  UNL     1     -11.533  -3.459  -0.380  1.00  0.00    -0.358 OA
HETATM   74  H32 UNL     1     -11.266  -3.865  -1.229  1.00  0.00     0.217 HD
ENDBRANCH  68  73
ENDBRANCH  62  65
ENDBRANCH  58  61
ENDBRANCH  54  57
ENDBRANCH  53  54
ENDBRANCH  42  53
ENDBRANCH   1  41
TORSDOF 20
