REMARK  0 active torsions:
REMARK  status: ('A' for Active; 'I' for Inactive)
REMARK       I    between atoms: C2_2  and  C25_25 
REMARK       I    between atoms: C4_4  and  N4_56 
REMARK       I    between atoms: C6_6  and  C7_7 
REMARK       I    between atoms: C7_7  and  N1_53 
REMARK       I    between atoms: C8_8  and  C9_9 
REMARK       I    between atoms: C8_8  and  N1_53 
REMARK       I    between atoms: C9_9  and  C10_10 
REMARK       I    between atoms: C10_10  and  C11_11 
REMARK       I    between atoms: C11_11  and  C12_12 
REMARK       I    between atoms: C12_12  and  C13_13 
REMARK       I    between atoms: C12_12  and  N2_54 
REMARK       I    between atoms: C13_13  and  O3_40 
REMARK       I    between atoms: C14_14  and  N2_54 
REMARK       I    between atoms: C14_14  and  N3_55 
REMARK       I    between atoms: C15_15  and  C16_16 
REMARK       I    between atoms: C15_15  and  C19_19 
REMARK       I    between atoms: C15_15  and  N3_55 
REMARK       I    between atoms: C16_16  and  C17_17 
REMARK       I    between atoms: C17_17  and  C18_18 
REMARK       I    between atoms: C18_18  and  O5_42 
REMARK       I    between atoms: C19_19  and  O7_44 
REMARK       I    between atoms: C21_21  and  C22_22 
REMARK       I    between atoms: C22_22  and  C23_23 
REMARK       I    between atoms: C23_23  and  C24_24 
REMARK       I    between atoms: C25_25  and  N7_60 
REMARK       I    between atoms: C26_26  and  C27_27 
REMARK       I    between atoms: C26_26  and  N7_60 
REMARK       I    between atoms: C27_27  and  C28_28 
REMARK       I    between atoms: C28_28  and  C29_29 
REMARK       I    between atoms: C29_29  and  C30_30 
REMARK       I    between atoms: C30_30  and  C31_31 
REMARK       I    between atoms: C30_30  and  N8_61 
REMARK       I    between atoms: C31_31  and  O10_47 
REMARK       I    between atoms: C32_32  and  N8_61 
REMARK       I    between atoms: C32_32  and  N9_62 
REMARK       I    between atoms: C33_33  and  C34_34 
REMARK       I    between atoms: C33_33  and  C37_37 
REMARK       I    between atoms: C33_33  and  N9_62 
REMARK       I    between atoms: C34_34  and  C35_35 
REMARK       I    between atoms: C35_35  and  C36_36 
REMARK       I    between atoms: C36_36  and  O13_50 
REMARK       I    between atoms: C37_37  and  O15_52 
ROOT
HETATM    1  C1  UNL     1      -0.427  -3.016  -0.667  1.00  0.00     0.034 A 
HETATM    2  C2  UNL     1      -0.380  -2.910   0.726  1.00  0.00     0.035 A 
HETATM    3  C3  UNL     1      -1.326  -3.555   1.528  1.00  0.00     0.048 A 
HETATM    4  C4  UNL     1      -2.352  -4.301   0.931  1.00  0.00     0.056 A 
HETATM    5  C5  UNL     1      -2.404  -4.407  -0.467  1.00  0.00     0.048 A 
HETATM    6  C6  UNL     1      -1.443  -3.765  -1.266  1.00  0.00     0.035 A 
HETATM    7  C7  UNL     1      -1.539  -3.926  -2.744  1.00  0.00     0.251 C 
HETATM    8  C8  UNL     1      -1.175  -2.854  -4.943  1.00  0.00     0.123 C 
HETATM    9  C9  UNL     1      -2.624  -2.682  -5.415  1.00  0.00     0.020 C 
HETATM   10  C10 UNL     1      -3.506  -1.749  -4.575  1.00  0.00     0.004 C 
HETATM   11  C11 UNL     1      -2.956  -0.328  -4.400  1.00  0.00     0.031 C 
HETATM   12  C12 UNL     1      -2.762   0.062  -2.929  1.00  0.00     0.162 C 
HETATM   13  C13 UNL     1      -4.123   0.280  -2.245  1.00  0.00     0.158 C 
HETATM   14  C14 UNL     1      -1.164   1.526  -1.768  1.00  0.00     0.295 C 
HETATM   15  C15 UNL     1      -0.269   3.503  -0.519  1.00  0.00     0.183 C 
HETATM   16  C16 UNL     1      -1.120   3.539   0.762  1.00  0.00     0.038 C 
HETATM   17  C17 UNL     1      -1.348   2.196   1.459  1.00  0.00     0.028 C 
HETATM   18  C18 UNL     1      -1.893   2.362   2.872  1.00  0.00     0.164 C 
HETATM   19  C19 UNL     1       1.200   3.148  -0.270  1.00  0.00     0.163 C 
HETATM   20  C20 UNL     1      -4.384  -5.730   1.373  1.00  0.00     0.140 A 
HETATM   21  C21 UNL     1      -5.001  -6.078   2.553  1.00  0.00     0.041 A 
HETATM   22  C22 UNL     1      -6.199  -6.921   2.787  1.00  0.00     0.062 C 
HETATM   23  C23 UNL     1      -5.837  -8.386   3.006  1.00  0.00     0.037 C 
HETATM   24  C24 UNL     1      -7.071  -9.224   3.279  1.00  0.00     0.222 C 
HETATM   25  C25 UNL     1       0.746  -2.196   1.361  1.00  0.00     0.251 C 
HETATM   26  C26 UNL     1       2.228  -0.237   1.200  1.00  0.00     0.123 C 
HETATM   27  C27 UNL     1       2.288   0.246   2.646  1.00  0.00     0.020 C 
HETATM   28  C28 UNL     1       3.479   1.161   2.958  1.00  0.00     0.004 C 
HETATM   29  C29 UNL     1       4.861   0.564   2.652  1.00  0.00     0.036 C 
HETATM   30  C30 UNL     1       5.390   0.896   1.248  1.00  0.00     0.184 C 
HETATM   31  C31 UNL     1       6.676   0.100   0.992  1.00  0.00     0.163 C 
HETATM   32  C32 UNL     1       5.192   3.061   0.072  1.00  0.00     0.317 C 
HETATM   33  C33 UNL     1       5.366   5.343  -0.916  1.00  0.00     0.184 C 
HETATM   34  C34 UNL     1       3.919   5.839  -0.802  1.00  0.00     0.046 C 
HETATM   35  C35 UNL     1       3.549   6.351   0.592  1.00  0.00     0.112 C 
HETATM   36  C36 UNL     1       2.100   6.752   0.663  1.00  0.00     0.139 C 
HETATM   37  C37 UNL     1       6.337   6.525  -0.821  1.00  0.00     0.163 C 
HETATM   38  O1  UNL     1      -2.112  -4.901  -3.216  1.00  0.00    -0.268 OA
HETATM   39  O2  UNL     1      -4.940  -0.583  -1.965  1.00  0.00    -0.649 OA
HETATM   40  O3  UNL     1      -4.415   1.583  -2.022  1.00  0.00    -0.775 OA
HETATM   41  O4  UNL     1      -0.776   0.656  -1.000  1.00  0.00    -0.254 OA
HETATM   42  O5  UNL     1      -3.138   3.048   2.834  1.00  0.00    -0.401 OA
HETATM   43  O6  UNL     1       1.822   3.395   0.755  1.00  0.00    -0.648 OA
HETATM   44  O7  UNL     1       1.825   2.639  -1.355  1.00  0.00    -0.775 OA
HETATM   45  O8  UNL     1       1.389  -2.751   2.242  1.00  0.00    -0.268 OA
HETATM   46  O9  UNL     1       6.772  -1.113   0.900  1.00  0.00    -0.648 OA
HETATM   47  O10 UNL     1       7.790   0.869   0.928  1.00  0.00    -0.775 OA
HETATM   48  O11 UNL     1       4.393   2.646  -0.760  1.00  0.00    -0.247 OA
HETATM   49  O12 UNL     1       1.245   6.602  -0.193  1.00  0.00    -0.650 OA
HETATM   50  O13 UNL     1       1.800   7.333   1.841  1.00  0.00    -0.776 OA
HETATM   51  O14 UNL     1       6.355   7.506  -1.547  1.00  0.00    -0.648 OA
HETATM   52  O15 UNL     1       7.209   6.432   0.210  1.00  0.00    -0.775 OA
HETATM   53  N1  UNL     1      -1.016  -2.905  -3.506  1.00  0.00    -0.357 N 
HETATM   54  N2  UNL     1      -1.976   1.298  -2.856  1.00  0.00    -0.230 NA
HETATM   55  N3  UNL     1      -0.902   2.865  -1.671  1.00  0.00    -0.333 N 
HETATM   56  N4  UNL     1      -3.320  -4.941   1.747  1.00  0.00    -0.249 N 
HETATM   57  N5  UNL     1      -4.326  -5.510   3.594  1.00  0.00    -0.286 N 
ATOM     58  H5  UNL     1      -4.563  -5.600   4.582  1.00  0.00     0.184 HD
HETATM   59  N6  UNL     1      -3.308  -4.821   3.098  1.00  0.00    -0.015 NA
HETATM   60  N7  UNL     1       1.006  -0.937   0.870  1.00  0.00    -0.357 N 
HETATM   61  N8  UNL     1       5.664   2.332   1.128  1.00  0.00    -0.329 N 
HETATM   62  N9  UNL     1       5.699   4.325   0.076  1.00  0.00    -0.329 N 
HETATM   63  F1  UNL     1      -6.691 -10.520   3.437  1.00  0.00    -0.255 F 
HETATM   64  H41 UNL     1      -5.281   1.556  -1.560  1.00  0.00     0.167 HD
HETATM   65  H42 UNL     1      -3.475   3.064   3.747  1.00  0.00     0.209 HD
HETATM   66  H43 UNL     1       2.784   2.564  -1.102  1.00  0.00     0.167 HD
HETATM   67  H44 UNL     1       8.505   0.213   0.774  1.00  0.00     0.167 HD
HETATM   68  H45 UNL     1       0.841   7.525   1.781  1.00  0.00     0.167 HD
HETATM   69  H46 UNL     1       7.747   7.250   0.133  1.00  0.00     0.167 HD
HETATM   70  H47 UNL     1      -0.625  -2.087  -3.059  1.00  0.00     0.162 HD
HETATM   71  H48 UNL     1      -2.530   2.121  -3.065  1.00  0.00     0.133 HD
HETATM   72  H49 UNL     1      -0.666   3.279  -2.562  1.00  0.00     0.164 HD
HETATM   73  H50 UNL     1       0.369  -0.502   0.200  1.00  0.00     0.162 HD
HETATM   74  H51 UNL     1       6.595   2.590   1.430  1.00  0.00     0.165 HD
HETATM   75  H52 UNL     1       6.244   4.631   0.872  1.00  0.00     0.165 HD
ENDROOT
TORSDOF 36
