REMARK  18 active torsions:
REMARK  status: ('A' for Active; 'I' for Inactive)
REMARK    1  A    between atoms: C3_3  and  N4_53 
REMARK    2  A    between atoms: C5_5  and  C6_6 
REMARK       I    between atoms: C6_6  and  N2_51 
REMARK    3  A    between atoms: C7_7  and  C8_8 
REMARK    4  A    between atoms: C7_7  and  N2_51 
REMARK    5  A    between atoms: C8_8  and  C9_9 
REMARK    6  A    between atoms: C9_9  and  N3_52 
REMARK    7  A    between atoms: C12_12  and  C13_13 
REMARK       I    between atoms: C12_12  and  N4_53 
REMARK    8  A    between atoms: C15_15  and  N6_55 
REMARK    9  A    between atoms: C18_18  and  C19_19 
REMARK       I    between atoms: C18_18  and  N6_55 
REMARK   10  A    between atoms: C30_30  and  C32_32 
REMARK       I    between atoms: C32_32  and  N11_60 
REMARK   11  A    between atoms: C33_33  and  N11_60 
REMARK   12  A    between atoms: C35_35  and  C37_37 
REMARK       I    between atoms: C37_37  and  N13_62 
REMARK   13  A    between atoms: C38_38  and  N13_62 
REMARK   14  A    between atoms: C40_40  and  C42_42 
REMARK       I    between atoms: C42_42  and  N15_64 
REMARK   15  A    between atoms: C43_43  and  C44_44 
REMARK   16  A    between atoms: C43_43  and  N15_64 
REMARK   17  A    between atoms: C44_44  and  C45_45 
REMARK   18  A    between atoms: C45_45  and  N16_65 
ROOT
HETATM    1  C19 UNL     1      -2.495  -0.414   0.824  1.00  0.00     0.105 A 
HETATM    2  C20 UNL     1      -2.235   0.920   1.148  1.00  0.00     0.061 A 
HETATM    3  C21 UNL     1      -0.924   0.988   1.633  1.00  0.00     0.038 A 
HETATM    4  C22 UNL     1      -0.370  -0.264   1.576  1.00  0.00     0.047 A 
HETATM    5  C23 UNL     1      -1.141  -2.545   0.889  1.00  0.00     0.156 C 
HETATM    6  C24 UNL     1       1.054  -0.558   1.942  1.00  0.00     0.156 C 
HETATM    7  C25 UNL     1       0.937   1.640   2.936  1.00  0.00     0.193 C 
HETATM    8  C26 UNL     1       0.370   2.902   0.957  1.00  0.00     0.156 C 
HETATM    9  C27 UNL     1       1.662   2.334   0.451  1.00  0.00     0.047 A 
HETATM   10  C28 UNL     1       2.316   1.288   1.049  1.00  0.00     0.038 A 
HETATM   11  C29 UNL     1       3.437   0.962   0.277  1.00  0.00     0.061 A 
HETATM   12  C30 UNL     1       3.486   1.857  -0.794  1.00  0.00     0.105 A 
HETATM   13  C31 UNL     1       2.020   3.759  -1.577  1.00  0.00     0.156 C 
HETATM   14  N7  UNL     1      -1.322  -1.122   1.091  1.00  0.00    -0.348 N 
HETATM   15  N8  UNL     1       1.818   0.705   2.180  1.00  0.00    -0.263 NA
HETATM   16  N9  UNL     1      -0.190   2.060   2.057  1.00  0.00    -0.263 NA
HETATM   17  N10 UNL     1       2.370   2.687  -0.667  1.00  0.00    -0.348 N 
ENDROOT
BRANCH   1  18
HETATM   18  C18 UNL     1      -3.714  -1.016   0.281  1.00  0.00     0.273 C 
HETATM   19  N6  UNL     1      -4.836  -0.217   0.409  1.00  0.00    -0.320 N 
HETATM   20  H61 UNL     1      -4.744   0.657   0.905  1.00  0.00     0.169 HD
HETATM   21  O3  UNL     1      -3.715  -2.138  -0.218  1.00  0.00    -0.266 OA
BRANCH  19  22
HETATM   22  C15 UNL     1      -6.108  -0.518  -0.041  1.00  0.00     0.053 A 
HETATM   23  C14 UNL     1      -7.246   0.304   0.141  1.00  0.00     0.066 A 
HETATM   24  C13 UNL     1      -8.347  -0.332  -0.418  1.00  0.00     0.105 A 
HETATM   25  N5  UNL     1      -7.867  -1.482  -1.011  1.00  0.00    -0.354 N 
HETATM   26  C16 UNL     1      -6.527  -1.620  -0.745  1.00  0.00     0.120 A 
HETATM   27  C17 UNL     1      -8.608  -2.382  -1.870  1.00  0.00     0.156 C 
BRANCH  24  28
HETATM   28  C12 UNL     1      -9.714   0.159  -0.429  1.00  0.00     0.273 C 
HETATM   29  N4  UNL     1     -10.636  -0.814  -0.094  1.00  0.00    -0.320 N 
HETATM   30  H60 UNL     1     -10.285  -1.698   0.245  1.00  0.00     0.169 HD
HETATM   31  O2  UNL     1      -9.973   1.334  -0.667  1.00  0.00    -0.266 OA
BRANCH  29  32
HETATM   32  C3  UNL     1     -12.009  -0.661  -0.079  1.00  0.00     0.053 A 
HETATM   33  C2  UNL     1     -12.749   0.429  -0.463  1.00  0.00     0.120 A 
HETATM   34  N1  UNL     1     -14.080   0.128  -0.313  1.00  0.00    -0.354 N 
HETATM   35  C1  UNL     1     -15.148   0.998  -0.760  1.00  0.00     0.156 C 
HETATM   36  C5  UNL     1     -14.217  -1.135   0.230  1.00  0.00     0.104 A 
HETATM   37  C4  UNL     1     -12.932  -1.651   0.332  1.00  0.00     0.066 A 
BRANCH  36  38
HETATM   38  C6  UNL     1     -15.443  -1.826   0.575  1.00  0.00     0.268 C 
HETATM   39  N2  UNL     1     -16.407  -1.023   1.149  1.00  0.00    -0.356 N 
HETATM   40  H59 UNL     1     -16.071  -0.166   1.566  1.00  0.00     0.162 HD
HETATM   41  O1  UNL     1     -15.595  -3.033   0.425  1.00  0.00    -0.266 OA
BRANCH  39  42
HETATM   42  C7  UNL     1     -17.614  -1.600   1.706  1.00  0.00     0.125 C 
BRANCH  42  43
HETATM   43  C8  UNL     1     -18.718  -0.560   1.877  1.00  0.00     0.050 C 
BRANCH  43  44
HETATM   44  C9  UNL     1     -19.276  -0.093   0.525  1.00  0.00     0.273 C 
BRANCH  44  45
HETATM   45  N3  UNL     1     -20.235   1.019   0.655  1.00  0.00     0.080 N 
HETATM   46  C10 UNL     1     -20.542   1.570  -0.669  1.00  0.00     0.309 C 
HETATM   47  C11 UNL     1     -21.478   0.603   1.309  1.00  0.00     0.309 C 
ENDBRANCH  44  45
ENDBRANCH  43  44
ENDBRANCH  42  43
ENDBRANCH  39  42
ENDBRANCH  36  38
ENDBRANCH  29  32
ENDBRANCH  24  28
ENDBRANCH  19  22
ENDBRANCH   1  18
BRANCH  12  48
HETATM   48  C32 UNL     1       4.459   1.948  -1.883  1.00  0.00     0.273 C 
HETATM   49  N11 UNL     1       5.651   1.295  -1.619  1.00  0.00    -0.320 N 
HETATM   50  H62 UNL     1       5.769   0.882  -0.707  1.00  0.00     0.169 HD
HETATM   51  O4  UNL     1       4.222   2.572  -2.913  1.00  0.00    -0.266 OA
BRANCH  49  52
HETATM   52  C33 UNL     1       6.732   1.193  -2.474  1.00  0.00     0.053 A 
HETATM   53  C34 UNL     1       6.848   1.653  -3.761  1.00  0.00     0.120 A 
HETATM   54  N12 UNL     1       8.089   1.312  -4.236  1.00  0.00    -0.354 N 
HETATM   55  C35 UNL     1       8.811   0.646  -3.260  1.00  0.00     0.105 A 
HETATM   56  C49 UNL     1       8.556   1.635  -5.569  1.00  0.00     0.156 C 
HETATM   57  C36 UNL     1       7.959   0.556  -2.161  1.00  0.00     0.066 A 
BRANCH  55  58
HETATM   58  C37 UNL     1      10.173   0.147  -3.438  1.00  0.00     0.273 C 
HETATM   59  N13 UNL     1      10.822  -0.133  -2.248  1.00  0.00    -0.320 N 
HETATM   60  H63 UNL     1      10.351   0.093  -1.387  1.00  0.00     0.169 HD
HETATM   61  O5  UNL     1      10.674   0.019  -4.551  1.00  0.00    -0.266 OA
BRANCH  59  62
HETATM   62  C38 UNL     1      12.101  -0.643  -2.118  1.00  0.00     0.053 A 
HETATM   63  C39 UNL     1      12.969  -1.030  -3.107  1.00  0.00     0.120 A 
HETATM   64  N14 UNL     1      14.121  -1.489  -2.519  1.00  0.00    -0.354 N 
HETATM   65  C40 UNL     1      14.029  -1.393  -1.141  1.00  0.00     0.104 A 
HETATM   66  C48 UNL     1      15.262  -1.984  -3.263  1.00  0.00     0.156 C 
HETATM   67  C41 UNL     1      12.763  -0.875  -0.886  1.00  0.00     0.066 A 
BRANCH  65  68
HETATM   68  C42 UNL     1      15.079  -1.795  -0.218  1.00  0.00     0.268 C 
HETATM   69  N15 UNL     1      14.902  -1.371   1.083  1.00  0.00    -0.356 N 
HETATM   70  H64 UNL     1      14.181  -0.691   1.273  1.00  0.00     0.162 HD
HETATM   71  O6  UNL     1      16.065  -2.445  -0.554  1.00  0.00    -0.266 OA
BRANCH  69  72
HETATM   72  C43 UNL     1      15.906  -1.599   2.102  1.00  0.00     0.125 C 
BRANCH  72  73
HETATM   73  C44 UNL     1      16.998  -0.531   2.068  1.00  0.00     0.050 C 
BRANCH  73  74
HETATM   74  C45 UNL     1      18.061  -0.807   3.137  1.00  0.00     0.273 C 
BRANCH  74  75
HETATM   75  N16 UNL     1      19.044   0.283   3.268  1.00  0.00     0.080 N 
HETATM   76  C46 UNL     1      19.889   0.409   2.078  1.00  0.00     0.309 C 
HETATM   77  C47 UNL     1      19.887   0.057   4.446  1.00  0.00     0.309 C 
ENDBRANCH  74  75
ENDBRANCH  73  74
ENDBRANCH  72  73
ENDBRANCH  69  72
ENDBRANCH  65  68
ENDBRANCH  59  62
ENDBRANCH  55  58
ENDBRANCH  49  52
ENDBRANCH  12  48
TORSDOF 18
