REMARK  17 active torsions:
REMARK  status: ('A' for Active; 'I' for Inactive)
REMARK    1  A    between atoms: C2_2  and  C3_3 
REMARK    2  A    between atoms: C5_5  and  C67_67 
REMARK    3  A    between atoms: C11_11  and  C57_57 
REMARK    4  A    between atoms: C13_13  and  C54_54 
REMARK    5  A    between atoms: C15_15  and  C51_51 
REMARK    6  A    between atoms: C17_17  and  C50_50 
REMARK    7  A    between atoms: C30_30  and  C46_46 
REMARK    8  A    between atoms: C32_32  and  C39_39 
REMARK    9  A    between atoms: C39_39  and  C40_40 
REMARK   10  A    between atoms: C43_43  and  O12_86 
REMARK       I    between atoms: C50_50  and  N12_104 
REMARK   11  A    between atoms: C51_51  and  O14_88 
REMARK   12  A    between atoms: C57_57  and  C58_58 
REMARK   13  A    between atoms: C61_61  and  O18_92 
REMARK   14  A    between atoms: C67_67  and  C68_68 
REMARK   15  A    between atoms: O14_88  and  P1_110 
REMARK   16  A    between atoms: O16_90  and  P1_110 
REMARK   17  A    between atoms: O17_91  and  P1_110 
ROOT
HETATM    1  C3  UNL     1       4.420  -4.947   1.550  1.00  0.00     0.176 C 
HETATM    2  C4  UNL     1       3.561  -5.697   0.508  1.00  0.00     0.241 C 
HETATM    3  C5  UNL     1       1.353  -6.708   0.057  1.00  0.00     0.181 C 
HETATM    4  C6  UNL     1       0.438  -5.577  -0.447  1.00  0.00     0.241 C 
HETATM    5  C7  UNL     1      -1.329  -5.004  -2.119  1.00  0.00     0.106 C 
HETATM    6  C8  UNL     1      -2.529  -5.231  -1.148  1.00  0.00     0.246 C 
HETATM    7  C9  UNL     1      -4.629  -4.263  -0.216  1.00  0.00     0.172 C 
HETATM    8  C10 UNL     1      -5.548  -3.101  -0.657  1.00  0.00     0.240 C 
HETATM    9  C11 UNL     1      -7.419  -1.609  -0.035  1.00  0.00     0.180 C 
HETATM   10  C12 UNL     1      -6.534  -0.457   0.486  1.00  0.00     0.241 C 
HETATM   11  C13 UNL     1      -4.541   0.927  -0.194  1.00  0.00     0.113 C 
HETATM   12  C14 UNL     1      -4.995   2.183   0.632  1.00  0.00     0.246 C 
HETATM   13  C15 UNL     1      -4.245   3.934   2.280  1.00  0.00     0.205 C 
HETATM   14  C16 UNL     1      -4.236   5.242   1.455  1.00  0.00     0.243 C 
HETATM   15  C17 UNL     1      -5.258   6.402  -0.505  1.00  0.00     0.185 C 
HETATM   16  C18 UNL     1      -4.168   6.232  -1.576  1.00  0.00     0.109 C 
HETATM   17  C19 UNL     1      -2.922   8.753  -1.306  1.00  0.00     0.112 C 
HETATM   18  C20 UNL     1      -1.624   8.191  -0.776  1.00  0.00    -0.048 A 
HETATM   19  C21 UNL     1      -1.356   8.246   0.599  1.00  0.00     0.008 A 
HETATM   20  C22 UNL     1      -0.145   7.779   1.109  1.00  0.00     0.001 A 
HETATM   21  C23 UNL     1       0.822   7.258   0.251  1.00  0.00     0.008 A 
HETATM   22  C24 UNL     1       0.593   7.209  -1.130  1.00  0.00    -0.048 A 
HETATM   23  C25 UNL     1      -0.629   7.689  -1.631  1.00  0.00     0.015 A 
HETATM   24  C26 UNL     1       1.662   6.706  -2.066  1.00  0.00     0.112 C 
HETATM   25  C27 UNL     1       1.095   3.960  -1.654  1.00  0.00     0.083 C 
HETATM   26  C28 UNL     1       2.342   3.768  -0.801  1.00  0.00     0.113 C 
HETATM   27  C29 UNL     1       3.535   3.330  -1.619  1.00  0.00     0.219 C 
HETATM   28  C30 UNL     1       5.836   3.949  -2.317  1.00  0.00     0.184 C 
HETATM   29  C31 UNL     1       6.789   3.255  -1.311  1.00  0.00     0.241 C 
HETATM   30  C32 UNL     1       7.151   1.166  -0.010  1.00  0.00     0.181 C 
HETATM   31  C33 UNL     1       6.737  -0.313  -0.169  1.00  0.00     0.243 C 
HETATM   32  C34 UNL     1       8.927  -1.135   0.836  1.00  0.00     0.127 C 
HETATM   33  C35 UNL     1       9.602  -2.431   0.418  1.00  0.00     0.022 C 
HETATM   34  C36 UNL     1       8.495  -3.463   0.575  1.00  0.00     0.037 C 
HETATM   35  C37 UNL     1       7.216  -2.701   0.199  1.00  0.00     0.179 C 
HETATM   36  C38 UNL     1       6.074  -3.137   1.138  1.00  0.00     0.241 C 
HETATM   37  C53 UNL     1      -3.535   0.048   0.583  1.00  0.00     0.049 C 
HETATM   38  C64 UNL     1      -4.161  -4.082   1.228  1.00  0.00     0.042 C 
HETATM   39  C65 UNL     1      -0.906  -3.531  -2.243  1.00  0.00     0.048 C 
HETATM   40  C66 UNL     1      -1.757  -5.508  -3.506  1.00  0.00     0.048 C 
HETATM   41  O1  UNL     1       3.973  -5.936  -0.628  1.00  0.00    -0.271 OA
HETATM   42  O2  UNL     1       0.278  -4.542   0.200  1.00  0.00    -0.271 OA
HETATM   43  O3  UNL     1      -2.642  -6.266  -0.487  1.00  0.00    -0.271 OA
HETATM   44  O4  UNL     1      -5.314  -2.431  -1.668  1.00  0.00    -0.271 OA
HETATM   45  O5  UNL     1      -6.456  -0.165   1.676  1.00  0.00    -0.271 OA
HETATM   46  O6  UNL     1      -6.105   2.712   0.520  1.00  0.00    -0.271 OA
HETATM   47  O7  UNL     1      -3.447   6.162   1.664  1.00  0.00    -0.271 OA
HETATM   48  O8  UNL     1       3.565   2.274  -2.242  1.00  0.00    -0.274 OA
HETATM   49  O9  UNL     1       7.797   3.776  -0.841  1.00  0.00    -0.271 OA
HETATM   50  O10 UNL     1       5.687  -0.618  -0.742  1.00  0.00    -0.271 OA
HETATM   51  O11 UNL     1       5.713  -2.488   2.117  1.00  0.00    -0.271 OA
HETATM   52  N1  UNL     1       2.330  -6.107   0.968  1.00  0.00    -0.346 N 
HETATM   53  N2  UNL     1      -0.225  -5.855  -1.630  1.00  0.00    -0.342 N 
HETATM   54  N3  UNL     1      -3.492  -4.255  -1.135  1.00  0.00    -0.346 N 
HETATM   55  N4  UNL     1      -6.627  -2.832   0.155  1.00  0.00    -0.346 N 
HETATM   56  N5  UNL     1      -5.727   0.092  -0.499  1.00  0.00    -0.341 N 
HETATM   57  N6  UNL     1      -4.030   2.776   1.405  1.00  0.00    -0.343 N 
HETATM   58  N7  UNL     1      -5.208   5.314   0.484  1.00  0.00    -0.345 N 
HETATM   59  N8  UNL     1       4.584   4.221  -1.601  1.00  0.00    -0.347 N 
HETATM   60  N9  UNL     1       6.393   1.988  -0.949  1.00  0.00    -0.346 N 
HETATM   61  N10 UNL     1       7.568  -1.287   0.348  1.00  0.00    -0.337 N 
HETATM   62  N11 UNL     1       5.560  -4.381   0.835  1.00  0.00    -0.346 N 
HETATM   63  S1  UNL     1      -3.773   7.733  -2.551  1.00  0.00    -0.162 SA
HETATM   64  S2  UNL     1       1.216   5.206  -2.991  1.00  0.00    -0.164 SA
HETATM   65  H89 UNL     1       1.929  -5.559   1.722  1.00  0.00     0.163 HD
HETATM   66  H90 UNL     1      -0.311  -6.837  -1.860  1.00  0.00     0.163 HD
HETATM   67  H91 UNL     1      -3.438  -3.464  -1.770  1.00  0.00     0.163 HD
HETATM   68  H92 UNL     1      -6.659  -3.247   1.077  1.00  0.00     0.163 HD
HETATM   69  H93 UNL     1      -5.623  -0.511  -1.316  1.00  0.00     0.163 HD
HETATM   70  H94 UNL     1      -3.072   2.447   1.356  1.00  0.00     0.163 HD
HETATM   71  H95 UNL     1      -5.713   4.450   0.269  1.00  0.00     0.163 HD
HETATM   72  H96 UNL     1       4.638   4.862  -0.821  1.00  0.00     0.163 HD
HETATM   73  H97 UNL     1       5.513   1.606  -1.304  1.00  0.00     0.163 HD
HETATM   74  H98 UNL     1       5.714  -4.759  -0.097  1.00  0.00     0.163 HD
ENDROOT
BRANCH   3  75
HETATM   75  C67 UNL     1       0.485  -7.760   0.764  1.00  0.00     0.075 C 
BRANCH  75  76
HETATM   76  C68 UNL     1       1.271  -8.926   1.286  1.00  0.00    -0.026 A 
HETATM   77  C69 UNL     1       1.550  -9.196   2.616  1.00  0.00     0.097 A 
HETATM   78  N13 UNL     1       2.291 -10.347   2.676  1.00  0.00    -0.351 N 
HETATM   79  C70 UNL     1       2.497 -10.834   1.417  1.00  0.00     0.115 A 
HETATM   80  HA1 UNL     1       2.644 -10.794   3.510  1.00  0.00     0.166 HD
HETATM   81  C71 UNL     1       1.872  -9.975   0.518  1.00  0.00     0.016 A 
HETATM   82  N14 UNL     1       3.189 -11.954   1.141  1.00  0.00    -0.352 N 
HETATM   83  C72 UNL     1       1.966 -10.302  -0.846  1.00  0.00     0.017 A 
HETATM   84  C73 UNL     1       2.675 -11.453  -1.191  1.00  0.00     0.018 A 
HETATM   85  C74 UNL     1       3.250 -12.219  -0.184  1.00  0.00     0.089 A 
ATOM     86  H14 UNL     1       3.621 -12.541   1.855  1.00  0.00     0.166 HD
ENDBRANCH  75  76
ENDBRANCH   3  75
BRANCH   1  87
HETATM   87  C2  UNL     1       4.860  -5.923   2.651  1.00  0.00     0.030 C 
HETATM   88  C1  UNL     1       5.601  -5.252   3.798  1.00  0.00     0.007 C 
ENDBRANCH   1  87
BRANCH   9  89
HETATM   89  C57 UNL     1      -8.737  -1.645   0.750  1.00  0.00     0.073 C 
BRANCH  89  90
HETATM   90  C58 UNL     1      -9.706  -2.679   0.222  1.00  0.00    -0.056 A 
HETATM   91  C59 UNL     1     -10.398  -2.457  -0.978  1.00  0.00     0.010 A 
HETATM   92  C60 UNL     1     -11.282  -3.418  -1.476  1.00  0.00     0.037 A 
HETATM   93  C61 UNL     1     -11.474  -4.601  -0.771  1.00  0.00     0.065 A 
HETATM   94  C62 UNL     1     -10.800  -4.837   0.420  1.00  0.00     0.037 A 
HETATM   95  C63 UNL     1      -9.917  -3.877   0.918  1.00  0.00     0.010 A 
BRANCH  93  96
HETATM   96  O18 UNL     1     -12.326  -5.566  -1.220  1.00  0.00    -0.361 OA
HETATM   97  H88 UNL     1     -12.728  -5.261  -2.050  1.00  0.00     0.217 HD
ENDBRANCH  93  96
ENDBRANCH  89  90
ENDBRANCH   9  89
BRANCH  30  98
HETATM   98  C39 UNL     1       7.061   1.659   1.447  1.00  0.00     0.073 C 
BRANCH  98  99
HETATM   99  C40 UNL     1       5.678   2.018   1.950  1.00  0.00    -0.056 A 
HETATM  100  C41 UNL     1       4.743   1.019   2.245  1.00  0.00     0.010 A 
HETATM  101  C42 UNL     1       3.484   1.354   2.744  1.00  0.00     0.037 A 
HETATM  102  C43 UNL     1       3.159   2.688   2.955  1.00  0.00     0.065 A 
HETATM  103  C44 UNL     1       4.066   3.699   2.664  1.00  0.00     0.037 A 
HETATM  104  C45 UNL     1       5.325   3.361   2.160  1.00  0.00     0.010 A 
BRANCH 102 105
HETATM  105  O12 UNL     1       1.911   2.961   3.436  1.00  0.00    -0.361 OA
HETATM  106  H85 UNL     1       1.832   3.926   3.603  1.00  0.00     0.217 HD
ENDBRANCH 102 105
ENDBRANCH  98  99
ENDBRANCH  30  98
BRANCH  11 107
HETATM  107  C54 UNL     1      -3.917   1.389  -1.563  1.00  0.00     0.015 C 
HETATM  108  C55 UNL     1      -4.918   2.145  -2.454  1.00  0.00     0.012 C 
HETATM  109  C56 UNL     1      -2.640   2.233  -1.452  1.00  0.00     0.012 C 
ENDBRANCH  11 107
BRANCH  28 110
HETATM  110  C46 UNL     1       6.394   5.232  -3.011  1.00  0.00    -0.022 C 
HETATM  111  C47 UNL     1       7.700   4.909  -3.765  1.00  0.00     0.017 C 
HETATM  112  C48 UNL     1       6.648   6.395  -2.033  1.00  0.00     0.017 C 
HETATM  113  C49 UNL     1       5.368   5.718  -4.063  1.00  0.00     0.017 C 
ENDBRANCH  28 110
BRANCH  13 114
HETATM  114  C51 UNL     1      -3.165   3.968   3.396  1.00  0.00     0.161 C 
HETATM  115  C52 UNL     1      -3.679   3.266   4.651  1.00  0.00     0.042 C 
BRANCH 114 116
HETATM  116  O14 UNL     1      -2.003   3.245   2.985  1.00  0.00    -0.289 OA
BRANCH 116 117
HETATM  117  P1  UNL     1      -0.810   3.977   2.218  1.00  0.00     0.391 P 
HETATM  118  O15 UNL     1       0.047   4.910   3.008  1.00  0.00    -0.632 OA
BRANCH 117 119
HETATM  119  O16 UNL     1       0.001   2.748   1.603  1.00  0.00    -0.307 OA
HETATM  120  H86 UNL     1       0.700   2.451   2.227  1.00  0.00     0.222 HD
ENDBRANCH 117 119
BRANCH 117 121
HETATM  121  O17 UNL     1      -1.458   4.599   0.908  1.00  0.00    -0.307 OA
HETATM  122  H87 UNL     1      -1.728   5.538   1.028  1.00  0.00     0.222 HD
ENDBRANCH 117 121
ENDBRANCH 116 117
ENDBRANCH 114 116
ENDBRANCH  13 114
BRANCH  15 123
HETATM  123  C50 UNL     1      -6.680   6.419  -1.103  1.00  0.00     0.239 C 
HETATM  124  O13 UNL     1      -6.961   6.712  -2.259  1.00  0.00    -0.271 OA
HETATM  125  N12 UNL     1      -7.688   6.211  -0.196  1.00  0.00    -0.368 N 
HETATM  126  H99 UNL     1      -8.625   6.140  -0.572  1.00  0.00     0.159 HD
HETATM  127  HA0 UNL     1      -7.491   5.747   0.681  1.00  0.00     0.159 HD
ENDBRANCH  15 123
TORSDOF 17
