REMARK  18 active torsions:
REMARK  status: ('A' for Active; 'I' for Inactive)
REMARK    1  A    between atoms: C3_3  and  N5_46 
REMARK    2  A    between atoms: C6_6  and  C7_7 
REMARK    3  A    between atoms: C7_7  and  C8_8 
REMARK       I    between atoms: C8_8  and  N1_42 
REMARK    4  A    between atoms: C9_9  and  N1_42 
REMARK    5  A    between atoms: C12_12  and  C15_15 
REMARK    6  A    between atoms: C15_15  and  C16_16 
REMARK       I    between atoms: C16_16  and  N2_43 
REMARK    7  A    between atoms: C17_17  and  C18_18 
REMARK    8  A    between atoms: C17_17  and  N2_43 
REMARK    9  A    between atoms: C18_18  and  N3_44 
REMARK   10  A    between atoms: C19_19  and  N3_44 
REMARK   11  A    between atoms: C19_19  and  N4_45 
REMARK   12  A    between atoms: C20_20  and  N4_45 
REMARK   13  A    between atoms: C26_26  and  N5_46 
REMARK   14  A    between atoms: C31_31  and  N9_53 
REMARK   15  A    between atoms: C32_32  and  O6_41 
REMARK   16  A    between atoms: C33_33  and  O5_40 
REMARK   17  A    between atoms: C34_34  and  C35_35 
REMARK   18  A    between atoms: C35_35  and  O4_39 
ROOT
HETATM    1  C8  UNL     1      -1.229   2.220   2.576  1.00  0.00     0.226 C 
HETATM    2  O1  UNL     1      -1.910   3.224   2.771  1.00  0.00    -0.273 OA
HETATM    3  N1  UNL     1      -1.340   1.355   1.501  1.00  0.00    -0.327 N 
HETATM    4  H28 UNL     1      -0.661   0.604   1.453  1.00  0.00     0.169 HD
ENDROOT
BRANCH   1   5
HETATM    5  C7  UNL     1      -0.195   1.792   3.613  1.00  0.00     0.141 C 
BRANCH   5   6
HETATM    6  C6  UNL     1       1.107   1.275   3.046  1.00  0.00    -0.049 A 
HETATM    7  C1  UNL     1       1.918   2.100   2.261  1.00  0.00     0.010 A 
HETATM    8  C2  UNL     1       3.115   1.615   1.719  1.00  0.00     0.030 A 
HETATM    9  C3  UNL     1       3.541   0.306   1.952  1.00  0.00     0.033 A 
HETATM   10  C4  UNL     1       2.722  -0.510   2.748  1.00  0.00     0.030 A 
HETATM   11  C5  UNL     1       1.522  -0.036   3.292  1.00  0.00     0.010 A 
BRANCH   9  12
HETATM   12  N5  UNL     1       4.720  -0.240   1.427  1.00  0.00    -0.341 N 
HETATM   13  H32 UNL     1       4.936  -1.187   1.722  1.00  0.00     0.167 HD
BRANCH  12  14
HETATM   14  C26 UNL     1       5.717   0.264   0.580  1.00  0.00     0.137 A 
HETATM   15  C29 UNL     1       6.827  -0.541   0.255  1.00  0.00     0.122 A 
HETATM   16  C28 UNL     1       7.780   0.001  -0.588  1.00  0.00     0.142 A 
HETATM   17  N8  UNL     1       7.179  -1.824   0.627  1.00  0.00    -0.346 N 
HETATM   18  N7  UNL     1       7.785   1.224  -1.142  1.00  0.00    -0.336 N 
HETATM   19  N9  UNL     1       8.728  -0.977  -0.726  1.00  0.00    -0.297 N 
HETATM   20  C27 UNL     1       6.682   1.910  -0.776  1.00  0.00     0.183 A 
ATOM     21  H7  UNL     1       8.518   1.584  -1.753  1.00  0.00     0.168 HD
HETATM   22  N6  UNL     1       5.678   1.510   0.032  1.00  0.00    -0.337 N 
ATOM     23  H6  UNL     1       4.897   2.135   0.230  1.00  0.00     0.168 HD
HETATM   24  C30 UNL     1       8.320  -2.055   0.010  1.00  0.00     0.188 A 
ATOM     25  H8  UNL     1       6.667  -2.455   1.244  1.00  0.00     0.167 HD
BRANCH  19  26
HETATM   26  C31 UNL     1       9.927  -0.840  -1.531  1.00  0.00     0.262 C 
HETATM   27  C32 UNL     1      10.933   0.164  -0.944  1.00  0.00     0.198 C 
HETATM   28  C33 UNL     1      11.939  -0.749  -0.263  1.00  0.00     0.182 C 
HETATM   29  C34 UNL     1      11.961  -1.936  -1.212  1.00  0.00     0.179 C 
HETATM   30  O3  UNL     1      10.590  -2.125  -1.630  1.00  0.00    -0.353 OA
BRANCH  27  31
HETATM   31  O6  UNL     1      11.616   0.895  -1.981  1.00  0.00    -0.388 OA
HETATM   32  H27 UNL     1      10.979   1.545  -2.338  1.00  0.00     0.210 HD
ENDBRANCH  27  31
BRANCH  28  33
HETATM   33  O5  UNL     1      13.208  -0.132  -0.114  1.00  0.00    -0.390 OA
HETATM   34  H26 UNL     1      13.310   0.459  -0.890  1.00  0.00     0.210 HD
ENDBRANCH  28  33
BRANCH  29  35
HETATM   35  C35 UNL     1      12.474  -3.217  -0.561  1.00  0.00     0.198 C 
BRANCH  35  36
HETATM   36  O4  UNL     1      12.435  -4.286  -1.506  1.00  0.00    -0.398 OA
HETATM   37  H25 UNL     1      11.558  -4.247  -1.931  1.00  0.00     0.209 HD
ENDBRANCH  35  36
ENDBRANCH  29  35
ENDBRANCH  19  26
ENDBRANCH  12  14
ENDBRANCH   9  12
ENDBRANCH   5   6
ENDBRANCH   1   5
BRANCH   3  38
HETATM   38  C9  UNL     1      -2.234   1.435   0.414  1.00  0.00     0.034 A 
HETATM   39  C10 UNL     1      -3.240   2.392   0.297  1.00  0.00     0.030 A 
HETATM   40  C11 UNL     1      -4.091   2.398  -0.816  1.00  0.00     0.010 A 
HETATM   41  C12 UNL     1      -3.953   1.443  -1.829  1.00  0.00    -0.049 A 
HETATM   42  C13 UNL     1      -2.939   0.487  -1.712  1.00  0.00     0.010 A 
HETATM   43  C14 UNL     1      -2.091   0.481  -0.600  1.00  0.00     0.030 A 
BRANCH  41  44
HETATM   44  C15 UNL     1      -4.864   1.461  -3.032  1.00  0.00     0.141 C 
BRANCH  44  45
HETATM   45  C16 UNL     1      -5.698   0.198  -3.180  1.00  0.00     0.221 C 
HETATM   46  O2  UNL     1      -5.220  -0.871  -3.554  1.00  0.00    -0.273 OA
HETATM   47  N2  UNL     1      -7.038   0.357  -2.883  1.00  0.00    -0.359 N 
HETATM   48  H29 UNL     1      -7.290   1.136  -2.284  1.00  0.00     0.162 HD
BRANCH  47  49
HETATM   49  C17 UNL     1      -7.934  -0.786  -2.876  1.00  0.00     0.142 C 
BRANCH  49  50
HETATM   50  C18 UNL     1      -8.009  -1.476  -1.507  1.00  0.00     0.141 C 
BRANCH  50  51
HETATM   51  N3  UNL     1      -9.052  -0.905  -0.644  1.00  0.00    -0.365 N 
HETATM   52  H30 UNL     1      -9.940  -1.375  -0.720  1.00  0.00     0.161 HD
BRANCH  51  53
HETATM   53  C19 UNL     1      -8.988   0.164   0.179  1.00  0.00     0.172 C 
HETATM   54  S1  UNL     1      -7.631   1.116   0.412  1.00  0.00    -0.041 SA
BRANCH  53  55
HETATM   55  N4  UNL     1     -10.080   0.515   0.909  1.00  0.00    -0.328 N 
HETATM   56  H31 UNL     1      -9.847   1.285   1.539  1.00  0.00     0.168 HD
BRANCH  55  57
HETATM   57  C20 UNL     1     -11.422   0.078   1.027  1.00  0.00     0.119 A 
HETATM   58  C21 UNL     1     -12.173   0.717   2.031  1.00  0.00     0.188 A 
HETATM   59  C22 UNL     1     -13.507   0.399   2.271  1.00  0.00     0.199 A 
HETATM   60  F5  UNL     1     -11.584   1.664   2.781  1.00  0.00    -0.200 F 
HETATM   61  C23 UNL     1     -14.130  -0.570   1.507  1.00  0.00     0.199 A 
HETATM   62  F4  UNL     1     -14.183   1.031   3.240  1.00  0.00    -0.199 F 
HETATM   63  C24 UNL     1     -13.419  -1.210   0.504  1.00  0.00     0.199 A 
HETATM   64  F3  UNL     1     -15.413  -0.884   1.729  1.00  0.00    -0.199 F 
HETATM   65  C25 UNL     1     -12.081  -0.889   0.263  1.00  0.00     0.188 A 
HETATM   66  F2  UNL     1     -14.021  -2.143  -0.248  1.00  0.00    -0.199 F 
HETATM   67  F1  UNL     1     -11.470  -1.532  -0.741  1.00  0.00    -0.200 F 
ENDBRANCH  55  57
ENDBRANCH  53  55
ENDBRANCH  51  53
ENDBRANCH  50  51
ENDBRANCH  49  50
ENDBRANCH  47  49
ENDBRANCH  44  45
ENDBRANCH  41  44
ENDBRANCH   3  38
TORSDOF 18
