REMARK  0 active torsions:
REMARK  status: ('A' for Active; 'I' for Inactive)
REMARK       I    between atoms: C2_2  and  C3_3 
REMARK       I    between atoms: C3_3  and  C4_4 
REMARK       I    between atoms: C3_3  and  N2_85 
REMARK       I    between atoms: C4_4  and  N1_84 
REMARK       I    between atoms: C6_6  and  C8_8 
REMARK       I    between atoms: C6_6  and  N1_84 
REMARK       I    between atoms: C10_10  and  C11_11 
REMARK       I    between atoms: C10_10  and  N2_85 
REMARK       I    between atoms: C11_11  and  C12_12 
REMARK       I    between atoms: C11_11  and  N3_86 
REMARK       I    between atoms: C12_12  and  C13_13 
REMARK       I    between atoms: C12_12  and  O4_73 
REMARK       I    between atoms: C13_13  and  C15_15 
REMARK       I    between atoms: C15_15  and  C16_16 
REMARK       I    between atoms: C20_20  and  C21_21 
REMARK       I    between atoms: C20_20  and  N3_86 
REMARK       I    between atoms: C21_21  and  C22_22 
REMARK       I    between atoms: C21_21  and  N4_87 
REMARK       I    between atoms: C26_26  and  C27_27 
REMARK       I    between atoms: C26_26  and  N4_87 
REMARK       I    between atoms: C27_27  and  C28_28 
REMARK       I    between atoms: C27_27  and  N5_88 
REMARK       I    between atoms: C28_28  and  C29_29 
REMARK       I    between atoms: C33_33  and  C34_34 
REMARK       I    between atoms: C33_33  and  N5_88 
REMARK       I    between atoms: C34_34  and  C35_35 
REMARK       I    between atoms: C34_34  and  N6_89 
REMARK       I    between atoms: C35_35  and  C36_36 
REMARK       I    between atoms: C40_40  and  C41_41 
REMARK       I    between atoms: C40_40  and  N6_89 
REMARK       I    between atoms: C41_41  and  N7_90 
REMARK       I    between atoms: C43_43  and  C44_44 
REMARK       I    between atoms: C43_43  and  N7_90 
REMARK       I    between atoms: C44_44  and  N8_91 
REMARK       I    between atoms: C46_46  and  C47_47 
REMARK       I    between atoms: C46_46  and  N8_91 
REMARK       I    between atoms: C47_47  and  C48_48 
REMARK       I    between atoms: C47_47  and  N9_92 
REMARK       I    between atoms: C48_48  and  C49_49 
REMARK       I    between atoms: C53_53  and  C54_54 
REMARK       I    between atoms: C53_53  and  N9_92 
REMARK       I    between atoms: C54_54  and  C55_55 
REMARK       I    between atoms: C54_54  and  N10_93 
REMARK       I    between atoms: C58_58  and  C59_59 
REMARK       I    between atoms: C58_58  and  N10_93 
REMARK       I    between atoms: C59_59  and  C60_60 
REMARK       I    between atoms: C59_59  and  N13_96 
REMARK       I    between atoms: C60_60  and  C62_62 
REMARK       I    between atoms: C62_62  and  O13_82 
REMARK       I    between atoms: C63_63  and  C64_64 
REMARK       I    between atoms: C63_63  and  O13_82 
REMARK       I    between atoms: C64_64  and  N11_94 
ROOT
HETATM    1  C1  UNL     1      -7.813   2.712   0.452  1.00  0.00     0.007 C 
HETATM    2  C2  UNL     1      -9.272   2.700   0.028  1.00  0.00     0.030 C 
HETATM    3  C3  UNL     1      -9.957   1.341   0.241  1.00  0.00     0.176 C 
HETATM    4  C4  UNL     1     -11.457   1.492  -0.133  1.00  0.00     0.242 C 
HETATM    5  C5  UNL     1     -11.968   2.546   2.112  1.00  0.00     0.153 C 
HETATM    6  C6  UNL     1     -13.729   2.297   0.375  1.00  0.00     0.151 C 
HETATM    7  C7  UNL     1     -14.486   1.004   0.078  1.00  0.00     0.040 C 
HETATM    8  C8  UNL     1     -13.756   3.377  -0.727  1.00  0.00     0.145 C 
HETATM    9  C9  UNL     1     -14.661   3.175  -1.914  1.00  0.00     0.093 C 
HETATM   10  C10 UNL     1      -9.710  -1.018  -0.428  1.00  0.00     0.243 C 
HETATM   11  C11 UNL     1      -9.288  -2.013  -1.551  1.00  0.00     0.207 C 
HETATM   12  C12 UNL     1     -10.002  -1.843  -2.930  1.00  0.00     0.154 C 
HETATM   13  C13 UNL     1      -9.857  -0.489  -3.668  1.00  0.00     0.016 C 
HETATM   14  C14 UNL     1     -10.702  -0.498  -4.956  1.00  0.00     0.013 C 
HETATM   15  C15 UNL     1      -8.388  -0.143  -4.008  1.00  0.00     0.033 C 
HETATM   16  C16 UNL     1      -8.058   1.299  -4.312  1.00  0.00    -0.031 C 
HETATM   17  C17 UNL     1      -8.842   2.379  -4.163  1.00  0.00    -0.035 C 
HETATM   18  C18 UNL     1      -8.406   3.772  -4.491  1.00  0.00     0.036 C 
HETATM   19  C19 UNL     1     -10.819  -3.922  -0.868  1.00  0.00     0.153 C 
HETATM   20  C20 UNL     1      -8.463  -4.421  -1.159  1.00  0.00     0.243 C 
HETATM   21  C21 UNL     1      -6.977  -3.970  -1.218  1.00  0.00     0.182 C 
HETATM   22  C22 UNL     1      -5.946  -5.061  -1.637  1.00  0.00     0.009 C 
HETATM   23  C23 UNL     1      -5.747  -6.207  -0.643  1.00  0.00     0.012 C 
HETATM   24  C24 UNL     1      -6.255  -5.619  -3.031  1.00  0.00     0.012 C 
HETATM   25  C25 UNL     1      -7.108  -3.832   1.299  1.00  0.00     0.153 C 
HETATM   26  C26 UNL     1      -5.714  -2.203  -0.041  1.00  0.00     0.243 C 
HETATM   27  C27 UNL     1      -5.273  -1.473   1.270  1.00  0.00     0.179 C 
HETATM   28  C28 UNL     1      -6.418  -0.604   1.835  1.00  0.00     0.039 C 
HETATM   29  C29 UNL     1      -6.351  -0.247   3.337  1.00  0.00    -0.020 C 
HETATM   30  C30 UNL     1      -5.122   0.575   3.716  1.00  0.00     0.009 C 
HETATM   31  C31 UNL     1      -6.467  -1.477   4.238  1.00  0.00     0.009 C 
HETATM   32  C32 UNL     1      -4.098   0.496   0.223  1.00  0.00     0.153 C 
HETATM   33  C33 UNL     1      -2.825  -1.417   1.263  1.00  0.00     0.243 C 
HETATM   34  C34 UNL     1      -1.412  -0.763   1.120  1.00  0.00     0.179 C 
HETATM   35  C35 UNL     1      -1.295   0.765   1.303  1.00  0.00     0.039 C 
HETATM   36  C36 UNL     1       0.093   1.256   1.770  1.00  0.00    -0.020 C 
HETATM   37  C37 UNL     1       0.236   2.757   1.498  1.00  0.00     0.009 C 
HETATM   38  C38 UNL     1       0.323   0.996   3.261  1.00  0.00     0.009 C 
HETATM   39  C39 UNL     1      -1.272  -1.014  -1.380  1.00  0.00     0.153 C 
HETATM   40  C40 UNL     1       0.517  -1.987  -0.047  1.00  0.00     0.242 C 
HETATM   41  C41 UNL     1       1.130  -2.447   1.299  1.00  0.00     0.172 C 
HETATM   42  C42 UNL     1       0.481  -3.742   1.764  1.00  0.00     0.042 C 
HETATM   43  C43 UNL     1       3.464  -1.647   1.241  1.00  0.00     0.240 C 
HETATM   44  C44 UNL     1       4.883  -1.917   0.684  1.00  0.00     0.172 C 
HETATM   45  C45 UNL     1       5.426  -3.308   0.991  1.00  0.00     0.042 C 
HETATM   46  C46 UNL     1       6.273  -0.717   2.379  1.00  0.00     0.241 C 
HETATM   47  C47 UNL     1       6.752   0.710   2.768  1.00  0.00     0.179 C 
HETATM   48  C48 UNL     1       5.686   1.407   3.646  1.00  0.00     0.039 C 
HETATM   49  C49 UNL     1       5.425   0.775   5.032  1.00  0.00    -0.020 C 
HETATM   50  C50 UNL     1       4.331   1.567   5.756  1.00  0.00     0.009 C 
HETATM   51  C51 UNL     1       6.679   0.719   5.903  1.00  0.00     0.009 C 
HETATM   52  C52 UNL     1       6.299   2.605   1.116  1.00  0.00     0.153 C 
HETATM   53  C53 UNL     1       8.409   1.232   1.034  1.00  0.00     0.243 C 
HETATM   54  C54 UNL     1       8.939   2.018  -0.192  1.00  0.00     0.180 C 
HETATM   55  C55 UNL     1       8.753   1.267  -1.535  1.00  0.00     0.009 C 
HETATM   56  C56 UNL     1       9.266  -0.177  -1.519  1.00  0.00     0.012 C 
HETATM   57  C57 UNL     1       7.304   1.290  -2.022  1.00  0.00     0.012 C 
HETATM   58  C58 UNL     1      10.833   3.403   0.613  1.00  0.00     0.252 C 
HETATM   59  C59 UNL     1      12.340   3.434   0.986  1.00  0.00     0.316 C 
HETATM   60  C60 UNL     1      13.261   2.611   0.044  1.00  0.00     0.048 C 
HETATM   61  C61 UNL     1      14.731   2.676   0.486  1.00  0.00     0.015 C 
HETATM   62  C62 UNL     1      13.141   3.129  -1.407  1.00  0.00     0.175 C 
HETATM   63  C63 UNL     1      13.310   1.072  -2.602  1.00  0.00     0.270 C 
HETATM   64  C64 UNL     1      13.767   0.490  -3.946  1.00  0.00     0.243 C 
HETATM   65  C65 UNL     1      15.525  -0.586  -5.288  1.00  0.00     0.155 C 
HETATM   66  C66 UNL     1      16.589  -1.668  -5.028  1.00  0.00     0.289 C 
HETATM   67  C67 UNL     1      17.517   0.018  -3.516  1.00  0.00     0.289 C 
HETATM   68  C68 UNL     1      16.081   0.169  -2.985  1.00  0.00     0.155 C 
HETATM   69  C69 UNL     1      12.104   1.820   2.860  1.00  0.00     0.307 C 
HETATM   70  O1  UNL     1     -11.847   1.167  -1.262  1.00  0.00    -0.271 OA
HETATM   71  O2  UNL     1     -13.079   4.406  -0.629  1.00  0.00    -0.296 OA
HETATM   72  O3  UNL     1     -10.285  -1.370   0.603  1.00  0.00    -0.271 OA
HETATM   73  O4  UNL     1      -9.511  -2.864  -3.823  1.00  0.00    -0.393 OA
HETATM   74  O5  UNL     1      -8.771  -5.615  -1.124  1.00  0.00    -0.271 OA
HETATM   75  O6  UNL     1      -5.350  -1.783  -1.147  1.00  0.00    -0.271 OA
HETATM   76  O7  UNL     1      -2.867  -2.613   1.588  1.00  0.00    -0.271 OA
HETATM   77  O8  UNL     1       1.101  -2.300  -1.095  1.00  0.00    -0.271 OA
HETATM   78  O9  UNL     1       3.144  -0.559   1.724  1.00  0.00    -0.271 OA
HETATM   79  O10 UNL     1       6.248  -1.639   3.191  1.00  0.00    -0.271 OA
HETATM   80  O11 UNL     1       9.135   0.362   1.535  1.00  0.00    -0.271 OA
HETATM   81  O12 UNL     1      10.096   4.363   0.834  1.00  0.00    -0.271 OA
HETATM   82  O13 UNL     1      13.889   2.344  -2.338  1.00  0.00    -0.382 OA
HETATM   83  O14 UNL     1      12.968   0.394  -4.881  1.00  0.00    -0.271 OA
HETATM   84  N1  UNL     1     -12.332   2.061   0.788  1.00  0.00    -0.344 N 
HETATM   85  N2  UNL     1      -9.362   0.308  -0.616  1.00  0.00    -0.346 N 
HETATM   86  N3  UNL     1      -9.458  -3.437  -1.090  1.00  0.00    -0.339 N 
HETATM   87  N4  UNL     1      -6.577  -3.293   0.046  1.00  0.00    -0.341 N 
HETATM   88  N5  UNL     1      -4.009  -0.724   1.020  1.00  0.00    -0.341 N 
HETATM   89  N6  UNL     1      -0.685  -1.281  -0.071  1.00  0.00    -0.341 N 
HETATM   90  N7  UNL     1       2.560  -2.675   1.069  1.00  0.00    -0.346 N 
HETATM   91  N8  UNL     1       5.757  -0.822   1.101  1.00  0.00    -0.346 N 
HETATM   92  N9  UNL     1       7.133   1.482   1.538  1.00  0.00    -0.341 N 
HETATM   93  N10 UNL     1      10.372   2.226   0.063  1.00  0.00    -0.346 N 
HETATM   94  N11 UNL     1      15.077   0.047  -4.048  1.00  0.00    -0.347 N 
HETATM   95  N12 UNL     1      17.761  -1.234  -4.249  1.00  0.00     0.086 N 
HETATM   96  N13 UNL     1      12.509   3.150   2.430  1.00  0.00     0.093 N 
HETATM   97  HB9 UNL     1      -9.727  -3.725  -3.422  1.00  0.00     0.210 HD
HETATM   98  HC0 UNL     1      -9.045   0.616  -1.524  1.00  0.00     0.163 HD
HETATM   99  HC1 UNL     1       2.755  -3.312   0.304  1.00  0.00     0.163 HD
HETATM  100  HC2 UNL     1       5.574   0.068   0.661  1.00  0.00     0.163 HD
HETATM  101  HC3 UNL     1      10.856   1.386   0.363  1.00  0.00     0.163 HD
HETATM  102  HC4 UNL     1      18.560  -1.103  -4.869  1.00  0.00     0.316 HD
HETATM  103  HC5 UNL     1      11.964   3.841   2.952  1.00  0.00     0.316 HD
ENDROOT
TORSDOF 41
