REMARK  24 active torsions:
REMARK  status: ('A' for Active; 'I' for Inactive)
REMARK    1  A    between atoms: O1_1  and  C1_17 
REMARK    2  A    between atoms: O1_1  and  C75_91 
REMARK    3  A    between atoms: O2_2  and  C16_32 
REMARK    4  A    between atoms: O2_2  and  C17_33 
REMARK    5  A    between atoms: O3_3  and  C20_36 
REMARK    6  A    between atoms: O4_4  and  C23_39 
REMARK    7  A    between atoms: O4_4  and  C24_40 
REMARK    8  A    between atoms: O5_5  and  C27_43 
REMARK    9  A    between atoms: O6_6  and  C34_50 
REMARK   10  A    between atoms: O6_6  and  C35_51 
REMARK   11  A    between atoms: O7_7  and  C38_54 
REMARK   12  A    between atoms: O8_8  and  C41_57 
REMARK   13  A    between atoms: O8_8  and  C42_58 
REMARK   14  A    between atoms: O9_9  and  C45_61 
REMARK   15  A    between atoms: O10_10  and  C52_68 
REMARK   16  A    between atoms: O10_10  and  C53_69 
REMARK   17  A    between atoms: O11_11  and  C56_72 
REMARK   18  A    between atoms: O12_12  and  C59_75 
REMARK   19  A    between atoms: O12_12  and  C60_76 
REMARK   20  A    between atoms: O13_13  and  C63_79 
REMARK   21  A    between atoms: O14_14  and  C68_84 
REMARK   22  A    between atoms: O14_14  and  C69_85 
REMARK   23  A    between atoms: O15_15  and  C72_88 
REMARK   24  A    between atoms: O16_16  and  C78_94 
ROOT
HETATM    1  C1  UNL     1      -6.563   1.337   1.166  1.00  0.00     0.111 C 
HETATM    2  C2  UNL     1      -5.448   2.158   0.883  1.00  0.00     0.056 C 
HETATM    3  C3  UNL     1      -4.376   1.381   0.444  1.00  0.00     0.025 A 
HETATM    4  C4  UNL     1      -4.447  -0.029   0.141  1.00  0.00     0.025 A 
HETATM    5  C5  UNL     1      -3.180  -0.498  -0.133  1.00  0.00     0.119 A 
HETATM    6  C6  UNL     1      -1.546  -2.229  -0.475  1.00  0.00     0.119 A 
HETATM    7  C7  UNL     1       0.688  -2.363  -0.355  1.00  0.00     0.119 A 
HETATM    8  C8  UNL     1       2.473  -0.837   0.169  1.00  0.00     0.119 A 
HETATM    9  C9  UNL     1       2.581   1.456   0.686  1.00  0.00     0.119 A 
HETATM   10  C10 UNL     1       0.958   3.224   0.881  1.00  0.00     0.119 A 
HETATM   11  C11 UNL     1      -1.275   3.361   0.739  1.00  0.00     0.119 A 
HETATM   12  C12 UNL     1      -3.065   1.798   0.362  1.00  0.00     0.119 A 
HETATM   13  C13 UNL     1      -0.762   4.723   0.631  1.00  0.00     0.025 A 
HETATM   14  C14 UNL     1       0.631   4.637   0.721  1.00  0.00     0.025 A 
HETATM   15  C15 UNL     1       1.440   5.739   0.506  1.00  0.00     0.056 A 
HETATM   16  C16 UNL     1       0.821   6.905   0.051  1.00  0.00     0.111 A 
HETATM   17  C23 UNL     1      -0.587   6.992  -0.039  1.00  0.00     0.111 A 
HETATM   18  C30 UNL     1      -1.397   5.912   0.323  1.00  0.00     0.056 A 
HETATM   19  C31 UNL     1       3.847   0.913   0.762  1.00  0.00     0.025 A 
HETATM   20  C32 UNL     1       3.781  -0.492   0.435  1.00  0.00     0.025 A 
HETATM   21  C33 UNL     1       4.871  -1.363   0.439  1.00  0.00     0.056 A 
HETATM   22  C34 UNL     1       6.039  -0.697   0.871  1.00  0.00     0.111 A 
HETATM   23  C41 UNL     1       6.119   0.724   1.145  1.00  0.00     0.111 A 
HETATM   24  C48 UNL     1       5.012   1.596   1.115  1.00  0.00     0.056 A 
HETATM   25  C49 UNL     1       0.214  -3.661  -0.826  1.00  0.00     0.025 A 
HETATM   26  C50 UNL     1      -1.182  -3.578  -0.894  1.00  0.00     0.025 A 
HETATM   27  C51 UNL     1      -1.947  -4.633  -1.358  1.00  0.00     0.056 A 
HETATM   28  C52 UNL     1      -1.271  -5.769  -1.804  1.00  0.00     0.111 A 
HETATM   29  C59 UNL     1       0.136  -5.878  -1.683  1.00  0.00     0.111 A 
HETATM   30  C66 UNL     1       0.891  -4.807  -1.208  1.00  0.00     0.056 A 
HETATM   31  C67 UNL     1      -5.596  -0.812   0.246  1.00  0.00     0.056 C 
HETATM   32  C68 UNL     1      -6.634  -0.076   0.863  1.00  0.00     0.111 C 
HETATM   33  N1  UNL     1      -2.842  -1.798  -0.445  1.00  0.00    -0.327 N 
ATOM     34  H1  UNL     1      -3.586  -2.461  -0.661  1.00  0.00     0.169 HD
HETATM   35  N2  UNL     1      -0.398  -1.547  -0.160  1.00  0.00    -0.327 N 
ATOM     36  H2  UNL     1      -0.358  -0.582   0.168  1.00  0.00     0.169 HD
HETATM   37  N3  UNL     1       2.016  -2.088  -0.188  1.00  0.00    -0.327 N 
ATOM     38  H3  UNL     1       2.694  -2.836  -0.333  1.00  0.00     0.169 HD
HETATM   39  N4  UNL     1       1.747   0.364   0.353  1.00  0.00    -0.327 N 
HETATM   40  N5  UNL     1       2.250   2.781   0.869  1.00  0.00    -0.327 N 
ATOM     41  H5  UNL     1       3.001   3.459   1.001  1.00  0.00     0.169 HD
HETATM   42  N6  UNL     1      -0.212   2.503   0.894  1.00  0.00    -0.327 N 
ATOM     43  H6  UNL     1      -0.281   1.491   1.002  1.00  0.00     0.169 HD
HETATM   44  N7  UNL     1      -2.601   3.077   0.576  1.00  0.00    -0.327 N 
ATOM     45  H7  UNL     1      -3.274   3.842   0.614  1.00  0.00     0.169 HD
HETATM   46  N8  UNL     1      -2.340   0.626   0.045  1.00  0.00    -0.327 N 
HETATM   47  H49 UNL     1       0.734   0.429   0.266  1.00  0.00     0.169 HD
HETATM   48  H50 UNL     1      -1.323   0.579   0.017  1.00  0.00     0.169 HD
ENDROOT
BRANCH   1  49
HETATM   49  O1  UNL     1      -7.636   1.904   1.845  1.00  0.00    -0.308 OA
BRANCH  49  50
HETATM   50  C75 UNL     1      -7.471   2.128   3.201  1.00  0.00     0.076 A 
HETATM   51  C76 UNL     1      -8.600   2.616   3.870  1.00  0.00     0.040 A 
HETATM   52  C77 UNL     1      -8.550   2.895   5.239  1.00  0.00     0.039 A 
HETATM   53  C78 UNL     1      -7.364   2.690   5.935  1.00  0.00     0.065 A 
HETATM   54  C79 UNL     1      -6.235   2.198   5.288  1.00  0.00     0.039 A 
HETATM   55  C80 UNL     1      -6.292   1.912   3.923  1.00  0.00     0.040 A 
BRANCH  53  56
HETATM   56  O16 UNL     1      -7.324   2.996   7.267  1.00  0.00    -0.361 OA
HETATM   57  H8  UNL     1      -6.389   2.893   7.521  1.00  0.00     0.217 HD
ENDBRANCH  53  56
ENDBRANCH  49  50
ENDBRANCH   1  49
BRANCH  32  58
HETATM   58  O14 UNL     1      -7.770  -0.765   1.272  1.00  0.00    -0.308 OA
BRANCH  58  59
HETATM   59  C69 UNL     1      -7.656  -1.540   2.413  1.00  0.00     0.076 A 
HETATM   60  C70 UNL     1      -8.839  -2.153   2.842  1.00  0.00     0.040 A 
HETATM   61  C71 UNL     1      -8.845  -2.971   3.976  1.00  0.00     0.039 A 
HETATM   62  C72 UNL     1      -7.661  -3.179   4.675  1.00  0.00     0.065 A 
HETATM   63  C73 UNL     1      -6.479  -2.571   4.267  1.00  0.00     0.039 A 
HETATM   64  C74 UNL     1      -6.479  -1.748   3.141  1.00  0.00     0.040 A 
BRANCH  62  65
HETATM   65  O15 UNL     1      -7.680  -4.006   5.764  1.00  0.00    -0.361 OA
HETATM   66  H7  UNL     1      -6.745  -4.101   6.023  1.00  0.00     0.217 HD
ENDBRANCH  62  65
ENDBRANCH  58  59
ENDBRANCH  32  58
BRANCH  17  67
HETATM   67  O4  UNL     1      -1.157   8.130  -0.574  1.00  0.00    -0.308 OA
BRANCH  67  68
HETATM   68  C24 UNL     1      -1.628   8.047  -1.873  1.00  0.00     0.076 A 
HETATM   69  C25 UNL     1      -2.152   9.235  -2.398  1.00  0.00     0.040 A 
HETATM   70  C26 UNL     1      -2.673   9.271  -3.695  1.00  0.00     0.039 A 
HETATM   71  C27 UNL     1      -2.676   8.111  -4.461  1.00  0.00     0.065 A 
HETATM   72  C28 UNL     1      -2.151   6.925  -3.960  1.00  0.00     0.039 A 
HETATM   73  C29 UNL     1      -1.621   6.896  -2.670  1.00  0.00     0.040 A 
BRANCH  71  74
HETATM   74  O5  UNL     1      -3.221   8.156  -5.715  1.00  0.00    -0.361 OA
HETATM   75  H2  UNL     1      -3.244   7.228  -6.012  1.00  0.00     0.217 HD
ENDBRANCH  71  74
ENDBRANCH  67  68
ENDBRANCH  17  67
BRANCH  28  76
HETATM   76  O10 UNL     1      -1.997  -6.775  -2.411  1.00  0.00    -0.308 OA
BRANCH  76  77
HETATM   77  C53 UNL     1      -2.127  -6.693  -3.784  1.00  0.00     0.076 A 
HETATM   78  C54 UNL     1      -1.890  -5.543  -4.545  1.00  0.00     0.040 A 
HETATM   79  C55 UNL     1      -2.067  -5.565  -5.929  1.00  0.00     0.039 A 
HETATM   80  C56 UNL     1      -2.484  -6.739  -6.550  1.00  0.00     0.065 A 
HETATM   81  C57 UNL     1      -2.727  -7.890  -5.809  1.00  0.00     0.039 A 
HETATM   82  C58 UNL     1      -2.552  -7.863  -4.423  1.00  0.00     0.040 A 
BRANCH  80  83
HETATM   83  O11 UNL     1      -2.670  -6.783  -7.904  1.00  0.00    -0.361 OA
HETATM   84  H5  UNL     1      -2.498  -5.877  -8.218  1.00  0.00     0.217 HD
ENDBRANCH  80  83
ENDBRANCH  76  77
ENDBRANCH  28  76
BRANCH  16  85
HETATM   85  O2  UNL     1       1.588   7.962  -0.399  1.00  0.00    -0.308 OA
BRANCH  85  86
HETATM   86  C17 UNL     1       2.221   7.806  -1.620  1.00  0.00     0.076 A 
HETATM   87  C18 UNL     1       2.179   6.657  -2.418  1.00  0.00     0.040 A 
HETATM   88  C19 UNL     1       2.882   6.605  -3.622  1.00  0.00     0.039 A 
HETATM   89  C20 UNL     1       3.618   7.710  -4.037  1.00  0.00     0.065 A 
HETATM   90  C21 UNL     1       3.654   8.869  -3.270  1.00  0.00     0.039 A 
HETATM   91  C22 UNL     1       2.957   8.913  -2.059  1.00  0.00     0.040 A 
BRANCH  89  92
HETATM   92  O3  UNL     1       4.334   7.671  -5.201  1.00  0.00    -0.361 OA
HETATM   93  H1  UNL     1       4.288   6.743  -5.494  1.00  0.00     0.217 HD
ENDBRANCH  89  92
ENDBRANCH  85  86
ENDBRANCH  16  85
BRANCH  29  94
HETATM   94  O12 UNL     1       0.818  -6.998  -2.114  1.00  0.00    -0.308 OA
BRANCH  94  95
HETATM   95  C60 UNL     1       0.569  -8.171  -1.437  1.00  0.00     0.076 A 
HETATM   96  C61 UNL     1       0.381  -8.248  -0.055  1.00  0.00     0.040 A 
HETATM   97  C62 UNL     1       0.165  -9.489   0.550  1.00  0.00     0.039 A 
HETATM   98  C63 UNL     1       0.145 -10.640  -0.230  1.00  0.00     0.065 A 
HETATM   99  C64 UNL     1       0.349 -10.576  -1.607  1.00  0.00     0.039 A 
HETATM  100  C65 UNL     1       0.569  -9.336  -2.208  1.00  0.00     0.040 A 
BRANCH  98 101
HETATM  101  O13 UNL     1      -0.083 -11.839   0.386  1.00  0.00    -0.361 OA
HETATM  102  H6  UNL     1      -0.228 -12.490  -0.316  1.00  0.00     0.217 HD
ENDBRANCH  98 101
ENDBRANCH  94  95
ENDBRANCH  29  94
BRANCH  23 103
HETATM  103  O8  UNL     1       7.326   1.282   1.546  1.00  0.00    -0.308 OA
BRANCH 103 104
HETATM  104  C42 UNL     1       8.324   1.343   0.599  1.00  0.00     0.076 A 
HETATM  105  C43 UNL     1       9.629   1.218   1.082  1.00  0.00     0.040 A 
HETATM  106  C44 UNL     1      10.713   1.286   0.206  1.00  0.00     0.039 A 
HETATM  107  C45 UNL     1      10.480   1.493  -1.153  1.00  0.00     0.065 A 
HETATM  108  C46 UNL     1       9.187   1.638  -1.642  1.00  0.00     0.039 A 
HETATM  109  C47 UNL     1       8.102   1.565  -0.763  1.00  0.00     0.040 A 
BRANCH 107 110
HETATM  110  O9  UNL     1      11.521   1.556  -2.037  1.00  0.00    -0.361 OA
HETATM  111  H4  UNL     1      12.317   1.296  -1.551  1.00  0.00     0.217 HD
ENDBRANCH 107 110
ENDBRANCH 103 104
ENDBRANCH  23 103
BRANCH  22 112
HETATM  112  O6  UNL     1       7.168  -1.479   1.081  1.00  0.00    -0.308 OA
BRANCH 112 113
HETATM  113  C35 UNL     1       7.337  -1.976   2.359  1.00  0.00     0.076 A 
HETATM  114  C36 UNL     1       6.342  -2.019   3.341  1.00  0.00     0.040 A 
HETATM  115  C37 UNL     1       6.616  -2.557   4.599  1.00  0.00     0.039 A 
HETATM  116  C38 UNL     1       7.887  -3.054   4.872  1.00  0.00     0.065 A 
HETATM  117  C39 UNL     1       8.888  -3.021   3.907  1.00  0.00     0.039 A 
HETATM  118  C40 UNL     1       8.609  -2.485   2.647  1.00  0.00     0.040 A 
BRANCH 116 119
HETATM  119  O7  UNL     1       8.178  -3.591   6.096  1.00  0.00    -0.361 OA
HETATM  120  H3  UNL     1       7.342  -3.563   6.595  1.00  0.00     0.217 HD
ENDBRANCH 116 119
ENDBRANCH 112 113
ENDBRANCH  22 112
TORSDOF 24
