REMARK  0 active torsions:
REMARK  status: ('A' for Active; 'I' for Inactive)
REMARK       I    between atoms: C2_2  and  C3_3 
REMARK       I    between atoms: C2_2  and  N7_102 
REMARK       I    between atoms: C3_3  and  N1_95 
REMARK       I    between atoms: C4_4  and  N1_95 
REMARK       I    between atoms: C7_7  and  C10_10 
REMARK       I    between atoms: C10_10  and  O2_79 
REMARK       I    between atoms: C11_11  and  O2_79 
REMARK       I    between atoms: C11_11  and  N2_96 
REMARK       I    between atoms: C24_24  and  O12_89 
REMARK       I    between atoms: C25_25  and  O5_82 
REMARK       I    between atoms: C28_28  and  C29_29 
REMARK       I    between atoms: C28_28  and  O5_82 
REMARK       I    between atoms: C31_31  and  N6_101 
REMARK       I    between atoms: C33_33  and  C35_35 
REMARK       I    between atoms: C35_35  and  O6_83 
REMARK       I    between atoms: C36_36  and  O6_83 
REMARK       I    between atoms: C37_37  and  O8_85 
REMARK       I    between atoms: C53_53  and  C54_54 
REMARK       I    between atoms: C53_53  and  N6_101 
REMARK       I    between atoms: C54_54  and  O9_86 
REMARK       I    between atoms: C55_55  and  C56_56 
REMARK       I    between atoms: C55_55  and  O9_86 
REMARK       I    between atoms: C56_56  and  O10_87 
REMARK       I    between atoms: C57_57  and  C58_58 
REMARK       I    between atoms: C57_57  and  O10_87 
REMARK       I    between atoms: C58_58  and  O11_88 
REMARK       I    between atoms: C61_61  and  C62_62 
REMARK       I    between atoms: C61_61  and  N7_102 
REMARK       I    between atoms: C62_62  and  C63_63 
REMARK       I    between atoms: C62_62  and  N8_103 
REMARK       I    between atoms: C66_66  and  C67_67 
REMARK       I    between atoms: C66_66  and  N8_103 
REMARK       I    between atoms: C67_67  and  C68_68 
REMARK       I    between atoms: C68_68  and  C69_69 
REMARK       I    between atoms: C69_69  and  C70_70 
REMARK       I    between atoms: C70_70  and  C71_71 
REMARK       I    between atoms: C71_71  and  N9_104 
REMARK       I    between atoms: C72_72  and  C73_73 
REMARK       I    between atoms: C72_72  and  N9_104 
REMARK       I    between atoms: C73_73  and  N10_105 
ROOT
HETATM    1  C1  UNL     1       9.120  -0.150   1.034  1.00  0.00     0.042 C 
HETATM    2  C2  UNL     1       8.300   0.070   2.300  1.00  0.00     0.172 C 
HETATM    3  C3  UNL     1       6.794   0.152   1.967  1.00  0.00     0.244 C 
HETATM    4  C4  UNL     1       5.184   1.666   0.780  1.00  0.00     0.034 A 
HETATM    5  C5  UNL     1       4.046   0.866   0.880  1.00  0.00     0.030 A 
HETATM    6  C6  UNL     1       2.822   1.301   0.359  1.00  0.00     0.011 A 
HETATM    7  C7  UNL     1       2.713   2.551  -0.262  1.00  0.00    -0.034 A 
HETATM    8  C8  UNL     1       3.856   3.348  -0.373  1.00  0.00     0.011 A 
HETATM    9  C9  UNL     1       5.079   2.910   0.145  1.00  0.00     0.030 A 
HETATM   10  C10 UNL     1       1.401   3.005  -0.845  1.00  0.00     0.219 C 
HETATM   11  C11 UNL     1       1.588   3.285  -3.194  1.00  0.00     0.367 C 
HETATM   12  C12 UNL     1       2.026   3.458  -5.565  1.00  0.00     0.160 C 
HETATM   13  C13 UNL     1       2.001   2.827  -6.959  1.00  0.00     0.116 C 
HETATM   14  C14 UNL     1       2.560   3.796  -8.025  1.00  0.00     0.068 C 
HETATM   15  C15 UNL     1       3.876   3.168  -8.358  1.00  0.00    -0.029 A 
HETATM   16  C16 UNL     1       4.867   3.674  -9.186  1.00  0.00     0.009 A 
HETATM   17  C17 UNL     1       6.007   2.898  -9.403  1.00  0.00     0.001 A 
HETATM   18  C18 UNL     1       6.134   1.637  -8.802  1.00  0.00     0.002 A 
HETATM   19  C19 UNL     1       5.126   1.135  -7.974  1.00  0.00     0.030 A 
HETATM   20  C20 UNL     1       4.003   1.914  -7.759  1.00  0.00     0.044 A 
HETATM   21  C21 UNL     1       2.631   0.489  -6.256  1.00  0.00     0.261 C 
HETATM   22  C22 UNL     1       1.343   0.411  -5.521  1.00  0.00     0.062 A 
HETATM   23  C23 UNL     1       0.654  -0.809  -5.651  1.00  0.00     0.059 A 
HETATM   24  C24 UNL     1      -0.539  -1.031  -4.965  1.00  0.00     0.102 A 
HETATM   25  C25 UNL     1      -1.089  -0.019  -4.183  1.00  0.00     0.104 A 
HETATM   26  C26 UNL     1      -0.381   1.178  -4.022  1.00  0.00     0.070 A 
HETATM   27  C27 UNL     1       0.845   1.419  -4.674  1.00  0.00     0.058 A 
HETATM   28  C28 UNL     1      -3.338  -0.759  -4.147  1.00  0.00     0.214 C 
HETATM   29  C29 UNL     1      -4.646  -0.214  -3.618  1.00  0.00    -0.031 A 
HETATM   30  C30 UNL     1      -5.640   0.236  -4.503  1.00  0.00     0.038 A 
HETATM   31  C31 UNL     1      -6.876   0.712  -4.043  1.00  0.00     0.029 A 
HETATM   32  C32 UNL     1      -7.060   0.801  -2.659  1.00  0.00     0.038 A 
HETATM   33  C33 UNL     1      -6.104   0.327  -1.745  1.00  0.00    -0.031 A 
HETATM   34  C34 UNL     1      -4.898  -0.180  -2.240  1.00  0.00     0.018 A 
HETATM   35  C35 UNL     1      -6.340   0.368  -0.249  1.00  0.00     0.214 C 
HETATM   36  C36 UNL     1      -8.449  -0.200   0.715  1.00  0.00     0.104 A 
HETATM   37  C37 UNL     1      -8.583  -1.539   0.320  1.00  0.00     0.102 A 
HETATM   38  C38 UNL     1      -9.441  -2.367   1.048  1.00  0.00     0.059 A 
HETATM   39  C39 UNL     1     -10.205  -1.864   2.121  1.00  0.00     0.062 A 
HETATM   40  C40 UNL     1     -10.107  -0.513   2.488  1.00  0.00     0.050 A 
HETATM   41  C41 UNL     1      -9.213   0.296   1.777  1.00  0.00     0.070 A 
HETATM   42  C42 UNL     1     -12.060  -0.122   3.726  1.00  0.00     0.087 C 
HETATM   43  C43 UNL     1     -12.893  -1.076   2.899  1.00  0.00     0.136 C 
HETATM   44  C44 UNL     1     -14.370  -1.090   3.321  1.00  0.00     0.072 C 
HETATM   45  C45 UNL     1     -14.478  -2.402   4.036  1.00  0.00    -0.029 A 
HETATM   46  C46 UNL     1     -15.584  -2.912   4.699  1.00  0.00     0.009 A 
HETATM   47  C47 UNL     1     -15.488  -4.185   5.262  1.00  0.00     0.001 A 
HETATM   48  C48 UNL     1     -14.302  -4.927   5.149  1.00  0.00     0.002 A 
HETATM   49  C49 UNL     1     -13.195  -4.405   4.473  1.00  0.00     0.030 A 
HETATM   50  C50 UNL     1     -13.297  -3.139   3.923  1.00  0.00     0.044 A 
HETATM   51  C51 UNL     1     -11.087  -2.841   2.818  1.00  0.00     0.261 C 
HETATM   52  C52 UNL     1      -8.094  -3.264  -1.263  1.00  0.00     0.210 C 
HETATM   53  C53 UNL     1      -9.219   1.316  -4.600  1.00  0.00     0.146 C 
HETATM   54  C54 UNL     1      -9.911  -0.035  -4.360  1.00  0.00     0.187 C 
HETATM   55  C55 UNL     1     -11.098   0.207  -2.318  1.00  0.00     0.193 C 
HETATM   56  C56 UNL     1     -12.499   0.300  -1.716  1.00  0.00     0.193 C 
HETATM   57  C57 UNL     1     -12.359   1.774   0.164  1.00  0.00     0.193 C 
HETATM   58  C58 UNL     1     -13.755   2.339   0.433  1.00  0.00     0.193 C 
HETATM   59  C59 UNL     1     -15.622   2.203   1.865  1.00  0.00     0.201 C 
HETATM   60  C60 UNL     1      -0.583  -3.193  -4.207  1.00  0.00     0.210 C 
HETATM   61  C61 UNL     1       9.606  -1.094   4.059  1.00  0.00     0.241 C 
HETATM   62  C62 UNL     1       9.608  -2.298   5.034  1.00  0.00     0.180 C 
HETATM   63  C63 UNL     1       9.998  -3.639   4.365  1.00  0.00     0.009 C 
HETATM   64  C64 UNL     1      11.295  -3.569   3.555  1.00  0.00     0.012 C 
HETATM   65  C65 UNL     1       8.874  -4.202   3.491  1.00  0.00     0.012 C 
HETATM   66  C66 UNL     1      10.023  -1.265   7.227  1.00  0.00     0.218 C 
HETATM   67  C67 UNL     1      11.072  -0.926   8.265  1.00  0.00     0.103 C 
HETATM   68  C68 UNL     1      11.413   0.562   8.265  1.00  0.00     0.010 C 
HETATM   69  C69 UNL     1      12.259   1.036   7.076  1.00  0.00     0.010 C 
HETATM   70  C70 UNL     1      13.684   0.478   7.073  1.00  0.00     0.103 C 
HETATM   71  C71 UNL     1      13.880  -0.547   5.973  1.00  0.00     0.217 C 
HETATM   72  C72 UNL     1      14.941  -0.942   3.785  1.00  0.00     0.143 C 
HETATM   73  C73 UNL     1      13.787  -0.789   2.788  1.00  0.00     0.155 C 
HETATM   74  C74 UNL     1      13.271   0.544   0.779  1.00  0.00     0.250 A 
HETATM   75  C75 UNL     1      13.230   1.961   0.410  1.00  0.00     0.080 A 
HETATM   76  C76 UNL     1      13.621   2.664   1.471  1.00  0.00     0.080 A 
HETATM   77  C77 UNL     1      13.928   1.714   2.546  1.00  0.00     0.250 A 
HETATM   78  O1  UNL     1       6.027  -0.746   2.314  1.00  0.00    -0.271 OA
HETATM   79  O2  UNL     1       1.256   2.464  -2.162  1.00  0.00    -0.299 OA
HETATM   80  O3  UNL     1       1.971   4.442  -3.044  1.00  0.00    -0.238 OA
HETATM   81  O4  UNL     1       3.359  -0.501  -6.229  1.00  0.00    -0.267 OA
HETATM   82  O5  UNL     1      -2.264  -0.085  -3.485  1.00  0.00    -0.344 OA
HETATM   83  O6  UNL     1      -7.682   0.748   0.088  1.00  0.00    -0.344 OA
HETATM   84  O7  UNL     1     -10.662  -3.986   2.960  1.00  0.00    -0.267 OA
HETATM   85  O8  UNL     1      -7.882  -1.944  -0.781  1.00  0.00    -0.353 OA
HETATM   86  O9  UNL     1     -11.193   0.126  -3.742  1.00  0.00    -0.387 OA
HETATM   87  O10 UNL     1     -12.437   0.419  -0.295  1.00  0.00    -0.387 OA
HETATM   88  O11 UNL     1     -14.313   1.713   1.598  1.00  0.00    -0.394 OA
HETATM   89  O12 UNL     1      -1.154  -2.244  -5.114  1.00  0.00    -0.353 OA
HETATM   90  O13 UNL     1      10.532  -0.288   3.972  1.00  0.00    -0.271 OA
HETATM   91  O14 UNL     1       8.854  -0.905   7.341  1.00  0.00    -0.274 OA
HETATM   92  O15 UNL     1      13.293  -1.626   5.965  1.00  0.00    -0.274 OA
HETATM   93  O16 UNL     1      12.896  -0.349   0.040  1.00  0.00    -0.268 OA
HETATM   94  O17 UNL     1      14.270   2.071   3.661  1.00  0.00    -0.268 OA
HETATM   95  N1  UNL     1       6.455   1.300   1.270  1.00  0.00    -0.325 N 
HETATM   96  N2  UNL     1       1.507   2.667  -4.451  1.00  0.00    -0.291 N 
HETATM   97  N3  UNL     1       2.871   1.641  -6.972  1.00  0.00    -0.307 N 
HETATM   98  N4  UNL     1     -10.795   0.116   3.545  1.00  0.00    -0.367 N 
ATOM     99  H4  UNL     1     -10.301   0.757   4.167  1.00  0.00     0.165 HD
HETATM  100  N5  UNL     1     -12.334  -2.400   3.218  1.00  0.00    -0.303 N 
HETATM  101  N6  UNL     1      -7.810   1.174  -4.976  1.00  0.00    -0.388 N 
HETATM  102  N7  UNL     1       8.499  -1.019   3.246  1.00  0.00    -0.346 N 
HETATM  103  N8  UNL     1      10.487  -2.006   6.165  1.00  0.00    -0.347 N 
HETATM  104  N9  UNL     1      14.762  -0.156   4.992  1.00  0.00    -0.359 N 
HETATM  105  N10 UNL     1      13.765   0.464   2.043  1.00  0.00    -0.280 N 
HETATM  106  H82 UNL     1       7.193   1.975   1.114  1.00  0.00     0.169 HD
HETATM  107  H83 UNL     1      -7.685   0.749  -5.892  1.00  0.00     0.159 HD
HETATM  108  H84 UNL     1       7.673  -1.572   3.468  1.00  0.00     0.163 HD
HETATM  109  H85 UNL     1      11.491  -1.950   5.976  1.00  0.00     0.163 HD
HETATM  110  H86 UNL     1      14.876   0.852   4.873  1.00  0.00     0.162 HD
ENDROOT
TORSDOF 35
