REMARK  12 active torsions:
REMARK  status: ('A' for Active; 'I' for Inactive)
REMARK    1  A    between atoms: C2_2  and  O1_37 
REMARK    2  A    between atoms: C5_5  and  O1_37 
REMARK       I    between atoms: C5_5  and  N1_44 
REMARK    3  A    between atoms: C8_8  and  N2_45 
REMARK       I    between atoms: C10_10  and  N2_45 
REMARK       I    between atoms: C10_10  and  N3_46 
REMARK    4  A    between atoms: C15_15  and  N4_47 
REMARK    5  A    between atoms: C16_16  and  C17_17 
REMARK       I    between atoms: C16_16  and  N4_47 
REMARK    6  A    between atoms: C20_20  and  N5_48 
REMARK    7  A    between atoms: C23_23  and  C24_24 
REMARK       I    between atoms: C23_23  and  N5_48 
REMARK    8  A    between atoms: C26_26  and  C28_28 
REMARK    9  A    between atoms: C30_30  and  C31_31 
REMARK   10  A    between atoms: C32_32  and  N8_52 
REMARK   11  A    between atoms: C34_34  and  N11_57 
REMARK   12  A    between atoms: O6_42  and  N11_57 
ROOT
HETATM    1  C17 UNL     1      -0.885   0.365  -0.232  1.00  0.00     0.053 A 
HETATM    2  C18 UNL     1      -1.357  -0.420   0.827  1.00  0.00     0.051 A 
HETATM    3  C19 UNL     1      -2.737  -0.547   1.049  1.00  0.00     0.054 A 
HETATM    4  C20 UNL     1      -3.666   0.094   0.222  1.00  0.00     0.036 A 
HETATM    5  C21 UNL     1      -3.199   0.862  -0.842  1.00  0.00     0.030 A 
HETATM    6  C22 UNL     1      -1.823   0.992  -1.069  1.00  0.00     0.021 A 
HETATM    7 CL1  UNL     1      -0.325  -1.304   1.900  1.00  0.00    -0.083 Cl
ENDROOT
BRANCH   4   8
HETATM    8  N5  UNL     1      -5.025  -0.086   0.525  1.00  0.00    -0.320 N 
HETATM    9  C23 UNL     1      -6.137   0.427  -0.121  1.00  0.00     0.290 C 
HETATM   10  O5  UNL     1      -6.110   1.147  -1.112  1.00  0.00    -0.264 OA
HETATM   11  H37 UNL     1      -5.269  -0.676   1.319  1.00  0.00     0.169 HD
BRANCH   9  12
HETATM   12  C24 UNL     1      -7.368  -0.014   0.533  1.00  0.00     0.177 A 
HETATM   13  N6  UNL     1      -7.337  -0.847   1.564  1.00  0.00    -0.345 N 
HETATM   14  C25 UNL     1      -8.646  -1.103   1.873  1.00  0.00     0.120 A 
ATOM     15  H6  UNL     1      -6.510  -1.220   2.030  1.00  0.00     0.167 HD
HETATM   16  C26 UNL     1      -9.505  -0.428   1.032  1.00  0.00     0.065 A 
HETATM   17  N7  UNL     1      -8.671   0.325   0.227  1.00  0.00    -0.331 N 
HETATM   18  C27 UNL     1      -9.070   1.339  -0.721  1.00  0.00     0.158 C 
BRANCH  16  19
HETATM   19  C28 UNL     1     -11.068  -0.525   1.017  1.00  0.00     0.043 A 
HETATM   20  C29 UNL     1     -11.885   0.067   0.086  1.00  0.00     0.134 A 
HETATM   21  N8  UNL     1     -13.189  -0.250   0.405  1.00  0.00    -0.250 N 
HETATM   22  N9  UNL     1     -13.245  -1.047   1.504  1.00  0.00    -0.288 N 
HETATM   23  C30 UNL     1     -11.962  -1.224   1.883  1.00  0.00     0.146 A 
ATOM     24  H9  UNL     1     -14.079  -1.430   1.948  1.00  0.00     0.187 HD
BRANCH  21  25
HETATM   25  C32 UNL     1     -14.347   0.185  -0.305  1.00  0.00     0.126 A 
HETATM   26  C36 UNL     1     -15.606  -0.216   0.136  1.00  0.00     0.053 A 
HETATM   27  C35 UNL     1     -16.727   0.223  -0.570  1.00  0.00     0.036 A 
HETATM   28  C34 UNL     1     -16.586   1.023  -1.705  1.00  0.00     0.069 A 
HETATM   29  C33 UNL     1     -15.282   1.392  -2.039  1.00  0.00     0.121 A 
HETATM   30  N10 UNL     1     -14.156   0.989  -1.382  1.00  0.00    -0.349 N 
ATOM     31  H10 UNL     1     -13.224   1.275  -1.683  1.00  0.00     0.167 HD
BRANCH  28  32
HETATM   32  N11 UNL     1     -17.734   1.519  -2.352  1.00  0.00    -0.268 N 
HETATM   33  H38 UNL     1     -18.534   0.896  -2.271  1.00  0.00     0.194 HD
BRANCH  32  34
HETATM   34  O6  UNL     1     -17.641   2.070  -3.665  1.00  0.00    -0.289 OA
ATOM     35  H6  UNL     1     -18.416   2.405  -4.102  1.00  0.00     0.244 HD
ENDBRANCH  32  34
ENDBRANCH  28  32
ENDBRANCH  21  25
BRANCH  23  36
HETATM   36  C31 UNL     1     -11.623  -2.059   3.084  1.00  0.00     0.434 C 
HETATM   37  F1  UNL     1     -10.873  -3.147   2.753  1.00  0.00    -0.165 F 
HETATM   38  F2  UNL     1     -12.712  -2.537   3.747  1.00  0.00    -0.165 F 
HETATM   39  F3  UNL     1     -10.898  -1.361   4.003  1.00  0.00    -0.165 F 
ENDBRANCH  23  36
ENDBRANCH  16  19
ENDBRANCH   9  12
ENDBRANCH   4   8
BRANCH   1  40
HETATM   40  C16 UNL     1       0.550   0.592  -0.569  1.00  0.00     0.253 C 
HETATM   41  O4  UNL     1       0.872   0.804  -1.735  1.00  0.00    -0.268 OA
HETATM   42  N4  UNL     1       1.453   0.599   0.474  1.00  0.00    -0.351 N 
HETATM   43  H36 UNL     1       1.127   0.374   1.408  1.00  0.00     0.163 HD
BRANCH  42  44
HETATM   44  C15 UNL     1       2.853   0.809   0.273  1.00  0.00     0.097 A 
HETATM   45  C12 UNL     1       3.482   2.127   0.642  1.00  0.00     0.035 A 
HETATM   46  C11 UNL     1       4.744   2.592  -0.007  1.00  0.00     0.134 A 
HETATM   47  C13 UNL     1       3.786   0.916   1.454  1.00  0.00     0.035 A 
HETATM   48  N3  UNL     1       5.741   1.595   0.363  1.00  0.00    -0.333 N 
HETATM   49  C10 UNL     1       7.047   1.778  -0.017  1.00  0.00     0.318 C 
HETATM   50  C14 UNL     1       5.241   0.610   1.315  1.00  0.00     0.134 A 
HETATM   51  O3  UNL     1       7.423   2.751  -0.666  1.00  0.00    -0.247 OA
HETATM   52  N2  UNL     1       7.909   0.795   0.400  1.00  0.00    -0.337 N 
HETATM   53  H35 UNL     1       7.496  -0.123   0.456  1.00  0.00     0.164 HD
BRANCH  52  54
HETATM   54  C8  UNL     1       9.307   0.846   0.014  1.00  0.00     0.105 C 
HETATM   55  C7  UNL     1       9.545   0.421  -1.439  1.00  0.00     0.047 C 
HETATM   56  C6  UNL     1      11.020   0.053  -1.449  1.00  0.00     0.130 C 
HETATM   57  N1  UNL     1      11.267  -0.463  -0.116  1.00  0.00    -0.326 N 
HETATM   58  C5  UNL     1      12.393  -1.128   0.291  1.00  0.00     0.363 C 
HETATM   59  C9  UNL     1      10.195  -0.125   0.799  1.00  0.00     0.153 C 
HETATM   60  O2  UNL     1      12.560  -1.529   1.435  1.00  0.00    -0.238 OA
BRANCH  58  61
HETATM   61  O1  UNL     1      13.278  -1.276  -0.726  1.00  0.00    -0.294 OA
BRANCH  61  62
HETATM   62  C2  UNL     1      14.545  -1.951  -0.521  1.00  0.00     0.061 C 
HETATM   63  C1  UNL     1      15.419  -1.202   0.491  1.00  0.00     0.046 C 
HETATM   64  C3  UNL     1      15.236  -1.905  -1.893  1.00  0.00     0.046 C 
HETATM   65  C4  UNL     1      14.339  -3.417  -0.127  1.00  0.00     0.046 C 
ENDBRANCH  61  62
ENDBRANCH  58  61
ENDBRANCH  52  54
ENDBRANCH  42  44
ENDBRANCH   1  40
TORSDOF 12
