REMARK  29 active torsions:
REMARK  status: ('A' for Active; 'I' for Inactive)
REMARK    1  A    between atoms: C1_1  and  C14_14 
REMARK    2  A    between atoms: C8_8  and  O2_69 
REMARK    3  A    between atoms: C15_15  and  C16_16 
REMARK    4  A    between atoms: C16_16  and  O5_72 
REMARK    5  A    between atoms: C18_18  and  N1_80 
REMARK    6  A    between atoms: C19_19  and  N1_80 
REMARK    7  A    between atoms: C19_19  and  N2_81 
REMARK    8  A    between atoms: C20_20  and  C21_21 
REMARK    9  A    between atoms: C20_20  and  N2_81 
REMARK   10  A    between atoms: C21_21  and  C22_22 
REMARK       I    between atoms: C22_22  and  N3_82 
REMARK   11  A    between atoms: C23_23  and  N3_82 
REMARK   12  A    between atoms: C25_25  and  C28_28 
REMARK       I    between atoms: C28_28  and  N5_84 
REMARK   13  A    between atoms: C29_29  and  N5_84 
REMARK   14  A    between atoms: C31_31  and  C34_34 
REMARK       I    between atoms: C34_34  and  N7_86 
REMARK   15  A    between atoms: C35_35  and  N7_86 
REMARK   16  A    between atoms: C37_37  and  N9_88 
REMARK   17  A    between atoms: C40_40  and  C41_41 
REMARK   18  A    between atoms: C40_40  and  N9_88 
REMARK   19  A    between atoms: C41_41  and  C42_42 
REMARK       I    between atoms: C42_42  and  N10_89 
REMARK   20  A    between atoms: C43_43  and  N10_89 
REMARK   21  A    between atoms: C45_45  and  C48_48 
REMARK       I    between atoms: C48_48  and  N12_91 
REMARK   22  A    between atoms: C49_49  and  N12_91 
REMARK   23  A    between atoms: C51_51  and  C54_54 
REMARK       I    between atoms: C54_54  and  N14_93 
REMARK   24  A    between atoms: C55_55  and  N14_93 
REMARK   25  A    between atoms: C57_57  and  C60_60 
REMARK       I    between atoms: C60_60  and  N16_95 
REMARK   26  A    between atoms: C61_61  and  C62_62 
REMARK   27  A    between atoms: C61_61  and  N16_95 
REMARK   28  A    between atoms: C62_62  and  C63_63 
REMARK   29  A    between atoms: C63_63  and  N17_96 
ROOT
HETATM    1  C29 UNL     1      -5.519  -1.623   0.849  1.00  0.00     0.053 A 
HETATM    2  C30 UNL     1      -4.361  -1.664   1.659  1.00  0.00     0.066 A 
HETATM    3  C31 UNL     1      -3.474  -0.677   1.237  1.00  0.00     0.105 A 
HETATM    4  C32 UNL     1      -5.335  -0.604  -0.054  1.00  0.00     0.120 A 
HETATM    5  C33 UNL     1      -3.571   1.070  -0.584  1.00  0.00     0.156 C 
HETATM    6  N6  UNL     1      -4.107  -0.036   0.184  1.00  0.00    -0.354 N 
ENDROOT
BRANCH   3   7
HETATM    7  C34 UNL     1      -2.150  -0.320   1.748  1.00  0.00     0.273 C 
HETATM    8  O8  UNL     1      -1.552   0.678   1.353  1.00  0.00    -0.266 OA
HETATM    9  N7  UNL     1      -1.647  -1.203   2.686  1.00  0.00    -0.320 N 
HETATM   10  H66 UNL     1      -2.192  -2.017   2.925  1.00  0.00     0.169 HD
BRANCH   9  11
HETATM   11  C35 UNL     1      -0.426  -1.086   3.323  1.00  0.00     0.054 A 
HETATM   12  C36 UNL     1       0.575  -0.091   3.218  1.00  0.00     0.079 A 
HETATM   13  C37 UNL     1       1.614  -0.426   4.066  1.00  0.00     0.104 A 
HETATM   14  N8  UNL     1       1.262  -1.609   4.680  1.00  0.00    -0.346 N 
HETATM   15  C38 UNL     1       0.026  -2.012   4.236  1.00  0.00     0.121 A 
HETATM   16  C39 UNL     1       2.061  -2.345   5.634  1.00  0.00     0.157 C 
BRANCH  13  17
HETATM   17  N9  UNL     1       2.801   0.180   4.329  1.00  0.00    -0.376 N 
HETATM   18  H67 UNL     1       3.275  -0.031   5.208  1.00  0.00     0.161 HD
BRANCH  17  19
HETATM   19  C40 UNL     1       3.078   1.547   3.869  1.00  0.00     0.130 C 
BRANCH  19  20
HETATM   20  C41 UNL     1       3.512   1.594   2.409  1.00  0.00     0.122 C 
BRANCH  20  21
HETATM   21  C42 UNL     1       4.867   0.948   2.201  1.00  0.00     0.223 C 
HETATM   22  O9  UNL     1       5.830   1.605   1.811  1.00  0.00    -0.273 OA
HETATM   23  N10 UNL     1       4.855  -0.405   2.472  1.00  0.00    -0.326 N 
HETATM   24  H68 UNL     1       3.992  -0.786   2.858  1.00  0.00     0.169 HD
BRANCH  23  25
HETATM   25  C43 UNL     1       5.931  -1.257   2.354  1.00  0.00     0.052 A 
HETATM   26  C44 UNL     1       7.250  -1.001   1.917  1.00  0.00     0.066 A 
HETATM   27  C45 UNL     1       7.981  -2.185   1.963  1.00  0.00     0.105 A 
HETATM   28  N11 UNL     1       7.102  -3.146   2.438  1.00  0.00    -0.354 N 
HETATM   29  C46 UNL     1       5.868  -2.592   2.670  1.00  0.00     0.120 A 
HETATM   30  C47 UNL     1       7.408  -4.547   2.649  1.00  0.00     0.156 C 
BRANCH  27  31
HETATM   31  C48 UNL     1       9.380  -2.440   1.617  1.00  0.00     0.273 C 
HETATM   32  O10 UNL     1       9.932  -3.500   1.903  1.00  0.00    -0.266 OA
HETATM   33  N12 UNL     1       9.990  -1.396   0.944  1.00  0.00    -0.320 N 
HETATM   34  H69 UNL     1       9.432  -0.588   0.717  1.00  0.00     0.169 HD
BRANCH  33  35
HETATM   35  C49 UNL     1      11.303  -1.361   0.510  1.00  0.00     0.053 A 
HETATM   36  C50 UNL     1      11.894  -0.283  -0.196  1.00  0.00     0.066 A 
HETATM   37  C51 UNL     1      13.225  -0.591  -0.465  1.00  0.00     0.105 A 
HETATM   38  N13 UNL     1      13.426  -1.857   0.061  1.00  0.00    -0.354 N 
HETATM   39  C52 UNL     1      12.278  -2.314   0.657  1.00  0.00     0.120 A 
HETATM   40  C53 UNL     1      14.663  -2.611   0.022  1.00  0.00     0.156 C 
BRANCH  37  41
HETATM   41  C54 UNL     1      14.250   0.183  -1.164  1.00  0.00     0.273 C 
HETATM   42  O11 UNL     1      15.310  -0.320  -1.528  1.00  0.00    -0.266 OA
HETATM   43  N14 UNL     1      13.920   1.514  -1.352  1.00  0.00    -0.320 N 
HETATM   44  H70 UNL     1      13.060   1.859  -0.956  1.00  0.00     0.169 HD
BRANCH  43  45
HETATM   45  C55 UNL     1      14.702   2.449  -2.002  1.00  0.00     0.053 A 
HETATM   46  C56 UNL     1      15.950   2.311  -2.653  1.00  0.00     0.066 A 
HETATM   47  C57 UNL     1      16.339   3.549  -3.157  1.00  0.00     0.104 A 
HETATM   48  N15 UNL     1      15.322   4.426  -2.816  1.00  0.00    -0.354 N 
HETATM   49  C58 UNL     1      14.337   3.768  -2.121  1.00  0.00     0.120 A 
HETATM   50  C59 UNL     1      15.277   5.838  -3.136  1.00  0.00     0.156 C 
BRANCH  47  51
HETATM   51  C60 UNL     1      17.538   3.926  -3.894  1.00  0.00     0.268 C 
HETATM   52  O12 UNL     1      17.761   5.071  -4.279  1.00  0.00    -0.266 OA
HETATM   53  N16 UNL     1      18.430   2.903  -4.124  1.00  0.00    -0.356 N 
HETATM   54  H71 UNL     1      18.269   1.998  -3.708  1.00  0.00     0.162 HD
BRANCH  53  55
HETATM   55  C61 UNL     1      19.719   3.118  -4.748  1.00  0.00     0.125 C 
BRANCH  55  56
HETATM   56  C62 UNL     1      20.770   3.649  -3.773  1.00  0.00     0.050 C 
BRANCH  56  57
HETATM   57  C63 UNL     1      21.037   2.724  -2.575  1.00  0.00     0.273 C 
BRANCH  57  58
HETATM   58  N17 UNL     1      21.415   1.348  -2.942  1.00  0.00     0.080 N 
HETATM   59  C64 UNL     1      21.386   0.488  -1.755  1.00  0.00     0.309 C 
HETATM   60  C65 UNL     1      22.743   1.292  -3.558  1.00  0.00     0.309 C 
ENDBRANCH  57  58
ENDBRANCH  56  57
ENDBRANCH  55  56
ENDBRANCH  53  55
ENDBRANCH  47  51
ENDBRANCH  43  45
ENDBRANCH  37  41
ENDBRANCH  33  35
ENDBRANCH  27  31
ENDBRANCH  23  25
ENDBRANCH  20  21
ENDBRANCH  19  20
ENDBRANCH  17  19
ENDBRANCH  13  17
ENDBRANCH   9  11
ENDBRANCH   3   7
BRANCH   1  61
HETATM   61  N5  UNL     1      -6.663  -2.397   0.879  1.00  0.00    -0.320 N 
HETATM   62  C28 UNL     1      -6.886  -3.464   1.731  1.00  0.00     0.273 C 
HETATM   63  O7  UNL     1      -6.064  -3.878   2.545  1.00  0.00    -0.266 OA
HETATM   64  H65 UNL     1      -7.360  -2.179   0.184  1.00  0.00     0.169 HD
BRANCH  62  65
HETATM   65  C25 UNL     1      -8.197  -4.088   1.568  1.00  0.00     0.105 A 
HETATM   66  C24 UNL     1      -9.344  -3.609   0.942  1.00  0.00     0.066 A 
HETATM   67  C23 UNL     1     -10.367  -4.584   1.045  1.00  0.00     0.052 A 
HETATM   68  C26 UNL     1      -9.835  -5.640   1.739  1.00  0.00     0.120 A 
HETATM   69  N4  UNL     1      -8.538  -5.336   2.065  1.00  0.00    -0.354 N 
HETATM   70  C27 UNL     1      -7.666  -6.225   2.807  1.00  0.00     0.156 C 
BRANCH  67  71
HETATM   71  N3  UNL     1     -11.640  -4.451   0.529  1.00  0.00    -0.326 N 
HETATM   72  C22 UNL     1     -12.636  -5.408   0.572  1.00  0.00     0.223 C 
HETATM   73  O6  UNL     1     -12.569  -6.523   1.080  1.00  0.00    -0.273 OA
HETATM   74  H64 UNL     1     -11.832  -3.581   0.046  1.00  0.00     0.169 HD
BRANCH  72  75
HETATM   75  C21 UNL     1     -13.900  -4.961  -0.135  1.00  0.00     0.122 C 
BRANCH  75  76
HETATM   76  C20 UNL     1     -13.750  -5.068  -1.647  1.00  0.00     0.131 C 
BRANCH  76  77
HETATM   77  N2  UNL     1     -12.838  -4.072  -2.207  1.00  0.00    -0.367 N 
HETATM   78  H63 UNL     1     -11.883  -4.382  -2.367  1.00  0.00     0.161 HD
BRANCH  77  79
HETATM   79  C19 UNL     1     -12.997  -2.713  -2.296  1.00  0.00     0.172 C 
HETATM   80  S1  UNL     1     -11.612  -1.834  -2.598  1.00  0.00    -0.041 SA
BRANCH  79  81
HETATM   81  N1  UNL     1     -14.283  -2.271  -2.123  1.00  0.00    -0.333 N 
HETATM   82  H62 UNL     1     -14.976  -2.941  -2.430  1.00  0.00     0.168 HD
BRANCH  81  83
HETATM   83  C18 UNL     1     -14.796  -0.981  -1.862  1.00  0.00     0.035 A 
HETATM   84  C17 UNL     1     -16.148  -0.764  -2.157  1.00  0.00     0.048 A 
HETATM   85  C15 UNL     1     -16.760   0.481  -1.913  1.00  0.00     0.051 A 
HETATM   86  C14 UNL     1     -16.010   1.528  -1.351  1.00  0.00    -0.007 A 
HETATM   87  C67 UNL     1     -14.664   1.294  -1.028  1.00  0.00     0.015 A 
HETATM   88  C66 UNL     1     -14.067   0.052  -1.277  1.00  0.00     0.030 A 
BRANCH  85  89
HETATM   89  C16 UNL     1     -18.189   0.659  -2.274  1.00  0.00     0.177 C 
HETATM   90  O4  UNL     1     -18.741   1.677  -2.639  1.00  0.00    -0.646 OA
BRANCH  89  91
HETATM   91  O5  UNL     1     -18.877  -0.492  -2.140  1.00  0.00    -0.773 OA
HETATM   92  H61 UNL     1     -19.795  -0.235  -2.377  1.00  0.00     0.167 HD
ENDBRANCH  89  91
ENDBRANCH  85  89
BRANCH  86  93
HETATM   93  C1  UNL     1     -16.575   2.865  -1.022  1.00  0.00     0.001 A 
HETATM   94  C2  UNL     1     -16.475   3.893  -1.910  1.00  0.00     0.010 A 
HETATM   95  C3  UNL     1     -17.033   5.217  -1.588  1.00  0.00     0.091 A 
HETATM   96  C13 UNL     1     -15.825   3.735  -3.220  1.00  0.00     0.019 A 
HETATM   97  C10 UNL     1     -16.943   6.240  -2.448  1.00  0.00     0.092 A 
HETATM   98  O1  UNL     1     -17.669   5.435  -0.375  1.00  0.00    -0.309 OA
HETATM   99  C11 UNL     1     -16.280   6.081  -3.756  1.00  0.00     0.174 A 
HETATM  100  C12 UNL     1     -15.730   4.751  -4.088  1.00  0.00     0.056 A 
HETATM  101  O3  UNL     1     -16.183   7.019  -4.539  1.00  0.00    -0.288 OA
HETATM  102  C4  UNL     1     -17.769   4.409   0.525  1.00  0.00     0.089 A 
HETATM  103  C5  UNL     1     -17.255   3.137   0.271  1.00  0.00     0.010 A 
HETATM  104  C9  UNL     1     -18.416   4.703   1.728  1.00  0.00     0.074 A 
HETATM  105  C6  UNL     1     -17.401   2.153   1.265  1.00  0.00     0.018 A 
HETATM  106  C7  UNL     1     -18.048   2.440   2.473  1.00  0.00     0.037 A 
HETATM  107  C8  UNL     1     -18.550   3.716   2.693  1.00  0.00     0.068 A 
BRANCH 107 108
HETATM  108  O2  UNL     1     -19.186   4.040   3.853  1.00  0.00    -0.361 OA
HETATM  109  H60 UNL     1     -19.210   3.259   4.430  1.00  0.00     0.217 HD
ENDBRANCH 107 108
ENDBRANCH  86  93
ENDBRANCH  81  83
ENDBRANCH  79  81
ENDBRANCH  77  79
ENDBRANCH  76  77
ENDBRANCH  75  76
ENDBRANCH  72  75
ENDBRANCH  67  71
ENDBRANCH  62  65
ENDBRANCH   1  61
TORSDOF 29
