REMARK  0 active torsions:
REMARK  status: ('A' for Active; 'I' for Inactive)
REMARK       I    between atoms: C2_2  and  O1_57 
REMARK       I    between atoms: C5_5  and  N5_73 
REMARK       I    between atoms: C7_7  and  C8_8 
REMARK       I    between atoms: C8_8  and  N1_69 
REMARK       I    between atoms: C9_9  and  C10_10 
REMARK       I    between atoms: C9_9  and  C14_14 
REMARK       I    between atoms: C9_9  and  N1_69 
REMARK       I    between atoms: C10_10  and  C11_11 
REMARK       I    between atoms: C11_11  and  C12_12 
REMARK       I    between atoms: C12_12  and  C13_13 
REMARK       I    between atoms: C13_13  and  N2_70 
REMARK       I    between atoms: C14_14  and  N3_71 
REMARK       I    between atoms: C15_15  and  N3_71 
REMARK       I    between atoms: C17_17  and  C22_22 
REMARK       I    between atoms: C18_18  and  O4_60 
REMARK       I    between atoms: C22_22  and  N4_72 
REMARK       I    between atoms: C23_23  and  C24_24 
REMARK       I    between atoms: C23_23  and  N5_73 
REMARK       I    between atoms: C24_24  and  C25_25 
REMARK       I    between atoms: C24_24  and  N9_78 
REMARK       I    between atoms: C25_25  and  C26_26 
REMARK       I    between atoms: C26_26  and  C27_27 
REMARK       I    between atoms: C27_27  and  N6_74 
REMARK       I    between atoms: C28_28  and  N7_76 
REMARK       I    between atoms: C28_28  and  N8_77 
REMARK       I    between atoms: C29_29  and  C30_30 
REMARK       I    between atoms: C29_29  and  N9_78 
REMARK       I    between atoms: C31_31  and  O12_68 
REMARK       I    between atoms: C34_34  and  N10_79 
REMARK       I    between atoms: C36_36  and  C37_37 
REMARK       I    between atoms: C36_36  and  N10_79 
REMARK       I    between atoms: C37_37  and  C38_38 
REMARK       I    between atoms: C37_37  and  N12_81 
REMARK       I    between atoms: C38_38  and  C39_39 
REMARK       I    between atoms: C39_39  and  C40_40 
REMARK       I    between atoms: C40_40  and  C41_41 
REMARK       I    between atoms: C41_41  and  N11_80 
REMARK       I    between atoms: C42_42  and  C43_43 
REMARK       I    between atoms: C42_42  and  N12_81 
REMARK       I    between atoms: C44_44  and  O11_67 
REMARK       I    between atoms: C47_47  and  N13_82 
REMARK       I    between atoms: C49_49  and  C50_50 
REMARK       I    between atoms: C49_49  and  N13_82 
REMARK       I    between atoms: C50_50  and  C51_51 
REMARK       I    between atoms: C50_50  and  N15_84 
REMARK       I    between atoms: C51_51  and  C52_52 
REMARK       I    between atoms: C52_52  and  C53_53 
REMARK       I    between atoms: C53_53  and  C54_54 
REMARK       I    between atoms: C54_54  and  N14_83 
ROOT
HETATM    1  C1  UNL     1     -10.923   2.622   1.719  1.00  0.00     0.202 C 
HETATM    2  C2  UNL     1      -8.577   2.793   2.049  1.00  0.00     0.163 C 
HETATM    3  C3  UNL     1      -8.155   4.281   1.947  1.00  0.00     0.066 C 
HETATM    4  C4  UNL     1      -7.047   4.556   0.955  1.00  0.00     0.006 C 
HETATM    5  C5  UNL     1      -6.232   3.589   0.501  1.00  0.00     0.031 C 
HETATM    6  C6  UNL     1      -6.354   2.254   1.044  1.00  0.00     0.044 C 
HETATM    7  C7  UNL     1      -7.453   1.859   1.708  1.00  0.00     0.041 C 
HETATM    8  C8  UNL     1      -7.577   0.463   2.185  1.00  0.00     0.251 C 
HETATM    9  C9  UNL     1      -7.241  -1.918   1.504  1.00  0.00     0.177 C 
HETATM   10  C10 UNL     1      -6.442  -2.328   2.754  1.00  0.00     0.035 C 
HETATM   11  C11 UNL     1      -5.745  -3.691   2.616  1.00  0.00     0.004 C 
HETATM   12  C12 UNL     1      -4.249  -3.591   2.285  1.00  0.00     0.030 C 
HETATM   13  C13 UNL     1      -3.901  -2.939   0.946  1.00  0.00     0.267 C 
HETATM   14  C14 UNL     1      -8.686  -2.493   1.516  1.00  0.00     0.245 C 
HETATM   15  C15 UNL     1     -10.977  -1.864   0.692  1.00  0.00     0.035 A 
HETATM   16  C16 UNL     1     -11.671  -2.992   1.136  1.00  0.00     0.049 A 
HETATM   17  C17 UNL     1     -13.048  -3.129   0.887  1.00  0.00     0.067 A 
HETATM   18  C18 UNL     1     -13.732  -2.111   0.212  1.00  0.00     0.084 A 
HETATM   19  C19 UNL     1     -13.041  -0.986  -0.241  1.00  0.00     0.040 A 
HETATM   20  C20 UNL     1     -11.673  -0.861   0.006  1.00  0.00     0.032 A 
HETATM   21  C21 UNL     1     -15.869  -1.507   0.802  1.00  0.00     0.210 C 
HETATM   22  C22 UNL     1     -13.759  -4.339   1.374  1.00  0.00     0.252 C 
HETATM   23  C23 UNL     1      -4.515   2.995  -1.195  1.00  0.00     0.245 C 
HETATM   24  C24 UNL     1      -3.550   3.702  -2.172  1.00  0.00     0.177 C 
HETATM   25  C25 UNL     1      -4.329   4.254  -3.369  1.00  0.00     0.036 C 
HETATM   26  C26 UNL     1      -3.485   4.986  -4.420  1.00  0.00     0.022 C 
HETATM   27  C27 UNL     1      -2.458   5.977  -3.872  1.00  0.00     0.121 C 
HETATM   28  C28 UNL     1      -2.518   7.143  -1.809  1.00  0.00     0.121 C 
HETATM   29  C29 UNL     1      -1.245   2.810  -2.086  1.00  0.00     0.255 C 
HETATM   30  C30 UNL     1      -0.379   1.600  -2.252  1.00  0.00     0.067 A 
HETATM   31  C31 UNL     1      -0.855   0.323  -2.590  1.00  0.00     0.084 A 
HETATM   32  C32 UNL     1       0.051  -0.733  -2.732  1.00  0.00     0.040 A 
HETATM   33  C33 UNL     1       1.417  -0.540  -2.500  1.00  0.00     0.032 A 
HETATM   34  C34 UNL     1       1.902   0.713  -2.132  1.00  0.00     0.035 A 
HETATM   35  C35 UNL     1       0.998   1.776  -2.015  1.00  0.00     0.049 A 
HETATM   36  C36 UNL     1       4.326   0.106  -1.900  1.00  0.00     0.245 C 
HETATM   37  C37 UNL     1       5.682   0.794  -1.618  1.00  0.00     0.177 C 
HETATM   38  C38 UNL     1       6.108   1.742  -2.755  1.00  0.00     0.035 C 
HETATM   39  C39 UNL     1       6.026   1.193  -4.189  1.00  0.00     0.004 C 
HETATM   40  C40 UNL     1       6.882  -0.034  -4.511  1.00  0.00     0.030 C 
HETATM   41  C41 UNL     1       8.384   0.216  -4.377  1.00  0.00     0.267 C 
HETATM   42  C42 UNL     1       7.821   0.042  -0.604  1.00  0.00     0.255 C 
HETATM   43  C43 UNL     1       8.777  -1.094  -0.370  1.00  0.00     0.067 A 
HETATM   44  C44 UNL     1       8.672  -2.361  -0.981  1.00  0.00     0.084 A 
HETATM   45  C45 UNL     1       9.636  -3.333  -0.694  1.00  0.00     0.040 A 
HETATM   46  C46 UNL     1      10.681  -3.063   0.196  1.00  0.00     0.032 A 
HETATM   47  C47 UNL     1      10.790  -1.817   0.816  1.00  0.00     0.035 A 
HETATM   48  C48 UNL     1       9.838  -0.840   0.526  1.00  0.00     0.049 A 
HETATM   49  C49 UNL     1      12.191  -0.509   2.439  1.00  0.00     0.255 C 
HETATM   50  C50 UNL     1      13.469  -0.698   3.299  1.00  0.00     0.309 C 
HETATM   51  C51 UNL     1      13.157  -1.588   4.512  1.00  0.00     0.045 C 
HETATM   52  C52 UNL     1      14.361  -1.907   5.407  1.00  0.00     0.004 C 
HETATM   53  C53 UNL     1      15.400  -2.796   4.721  1.00  0.00     0.030 C 
HETATM   54  C54 UNL     1      16.553  -3.130   5.667  1.00  0.00     0.267 C 
HETATM   55  C55 UNL     1       7.330  -3.920  -2.207  1.00  0.00     0.210 C 
HETATM   56  C56 UNL     1      -2.749  -1.005  -2.184  1.00  0.00     0.210 C 
HETATM   57  O1  UNL     1      -9.638   2.520   1.116  1.00  0.00    -0.386 OA
HETATM   58  O2  UNL     1      -8.057   0.197   3.277  1.00  0.00    -0.268 OA
HETATM   59  O3  UNL     1      -8.917  -3.630   1.921  1.00  0.00    -0.271 OA
HETATM   60  O4  UNL     1     -15.054  -2.232  -0.121  1.00  0.00    -0.355 OA
HETATM   61  O5  UNL     1     -14.883  -4.299   1.857  1.00  0.00    -0.268 OA
HETATM   62  O6  UNL     1      -4.598   1.766  -1.149  1.00  0.00    -0.271 OA
HETATM   63  O7  UNL     1      -0.802   3.817  -1.535  1.00  0.00    -0.268 OA
HETATM   64  O8  UNL     1       4.261  -1.100  -2.134  1.00  0.00    -0.271 OA
HETATM   65  O9  UNL     1       8.052   1.161  -0.156  1.00  0.00    -0.268 OA
HETATM   66  O10 UNL     1      11.566   0.549   2.458  1.00  0.00    -0.271 OA
HETATM   67  O11 UNL     1       7.646  -2.574  -1.866  1.00  0.00    -0.355 OA
HETATM   68  O12 UNL     1      -2.192   0.141  -2.834  1.00  0.00    -0.355 OA
HETATM   69  N1  UNL     1      -7.203  -0.476   1.253  1.00  0.00    -0.344 N 
HETATM   70  N2  UNL     1      -4.313  -3.739  -0.203  1.00  0.00     0.078 N 
HETATM   71  N3  UNL     1      -9.601  -1.660   0.892  1.00  0.00    -0.325 N 
HETATM   72  N4  UNL     1     -13.086  -5.525   1.265  1.00  0.00    -0.366 N 
HETATM   73  N5  UNL     1      -5.283   3.886  -0.450  1.00  0.00    -0.326 N 
HETATM   74  N6  UNL     1      -3.094   6.881  -2.919  1.00  0.00    -0.372 N 
ATOM     75  H6  UNL     1      -3.996   7.303  -3.139  1.00  0.00     0.161 HD
HETATM   76  N7  UNL     1      -3.097   8.030  -0.968  1.00  0.00    -0.279 NA
HETATM   77  N8  UNL     1      -1.371   6.682  -1.263  1.00  0.00    -0.279 NA
HETATM   78  N9  UNL     1      -2.527   2.749  -2.583  1.00  0.00    -0.344 N 
HETATM   79  N10 UNL     1       3.260   0.993  -1.878  1.00  0.00    -0.325 N 
HETATM   80  N11 UNL     1       9.134  -1.008  -4.652  1.00  0.00     0.078 N 
HETATM   81  N12 UNL     1       6.683  -0.218  -1.325  1.00  0.00    -0.344 N 
HETATM   82  N13 UNL     1      11.875  -1.638   1.699  1.00  0.00    -0.325 N 
HETATM   83  N14 UNL     1      17.506  -4.014   5.006  1.00  0.00     0.078 N 
HETATM   84  N15 UNL     1      13.976   0.620   3.732  1.00  0.00     0.092 N 
HETATM   85  H61 UNL     1      -6.816  -0.165   0.368  1.00  0.00     0.163 HD
HETATM   86  H62 UNL     1      -5.298  -3.986  -0.128  1.00  0.00     0.312 HD
HETATM   87  H63 UNL     1      -3.817  -4.632  -0.180  1.00  0.00     0.312 HD
HETATM   88  H64 UNL     1      -9.228  -0.762   0.601  1.00  0.00     0.169 HD
HETATM   89  H65 UNL     1     -12.216  -5.621   0.760  1.00  0.00     0.159 HD
HETATM   90  H66 UNL     1     -13.585  -6.364   1.530  1.00  0.00     0.159 HD
HETATM   91  H67 UNL     1      -5.191   4.867  -0.699  1.00  0.00     0.169 HD
HETATM   92  H68 UNL     1      -2.421   8.696  -0.610  1.00  0.00     0.126 HD
HETATM   93  H69 UNL     1      -3.835   8.523  -1.462  1.00  0.00     0.126 HD
HETATM   94  H70 UNL     1      -1.412   6.620  -0.253  1.00  0.00     0.126 HD
HETATM   95  H71 UNL     1      -1.048   5.779  -1.620  1.00  0.00     0.126 HD
HETATM   96  H72 UNL     1      -2.865   1.826  -2.851  1.00  0.00     0.163 HD
HETATM   97  H73 UNL     1       3.473   1.950  -1.618  1.00  0.00     0.169 HD
HETATM   98  H74 UNL     1       8.852  -1.385  -5.556  1.00  0.00     0.312 HD
HETATM   99  H75 UNL     1       8.873  -1.711  -3.959  1.00  0.00     0.312 HD
HETATM  100  H76 UNL     1       6.506  -1.165  -1.651  1.00  0.00     0.163 HD
HETATM  101  H77 UNL     1      12.503  -2.426   1.794  1.00  0.00     0.169 HD
HETATM  102  H78 UNL     1      17.062  -4.909   4.805  1.00  0.00     0.312 HD
HETATM  103  H79 UNL     1      18.274  -4.216   5.645  1.00  0.00     0.312 HD
HETATM  104  H80 UNL     1      13.203   1.103   4.200  1.00  0.00     0.313 HD
HETATM  105  H81 UNL     1      14.125   1.190   2.895  1.00  0.00     0.313 HD
ENDROOT
TORSDOF 39
