REMARK  19 active torsions:
REMARK  status: ('A' for Active; 'I' for Inactive)
REMARK    1  A    between atoms: C3_3  and  O14_67 
REMARK    2  A    between atoms: C4_4  and  N1_68 
REMARK    3  A    between atoms: C6_6  and  O2_55 
REMARK    4  A    between atoms: C7_7  and  O2_55 
REMARK    5  A    between atoms: C9_9  and  C26_26 
REMARK    6  A    between atoms: C9_9  and  O9_62 
REMARK    7  A    between atoms: C12_12  and  O7_60 
REMARK    8  A    between atoms: C15_15  and  O3_56 
REMARK    9  A    between atoms: C24_24  and  O6_59 
REMARK   10  A    between atoms: C28_28  and  C29_29 
REMARK   11  A    between atoms: C28_28  and  N1_68 
REMARK   12  A    between atoms: C32_32  and  N2_69 
REMARK   13  A    between atoms: C35_35  and  C36_36 
REMARK       I    between atoms: C35_35  and  N2_69 
REMARK   14  A    between atoms: C38_38  and  N4_71 
REMARK   15  A    between atoms: C41_41  and  C42_42 
REMARK       I    between atoms: C41_41  and  N4_71 
REMARK   16  A    between atoms: C44_44  and  N6_73 
REMARK   17  A    between atoms: C47_47  and  C48_48 
REMARK       I    between atoms: C47_47  and  N6_73 
REMARK   18  A    between atoms: C50_50  and  N8_75 
REMARK   19  A    between atoms: C53_53  and  N8_75 
ROOT
HETATM    1  N1  UNL     1      -3.208  -2.483  -0.932  1.00  0.00     0.095 N 
HETATM    2  H50 UNL     1      -2.753  -2.091  -0.108  1.00  0.00     0.316 HD
ENDROOT
BRANCH   1   3
HETATM    3  C4  UNL     1      -3.504  -1.422  -1.916  1.00  0.00     0.256 C 
HETATM    4  C3  UNL     1      -2.551  -0.194  -1.811  1.00  0.00     0.180 C 
HETATM    5  C2  UNL     1      -3.235   1.013  -1.140  1.00  0.00     0.151 C 
HETATM    6  C1  UNL     1      -2.206   2.027  -0.649  1.00  0.00     0.042 C 
HETATM    7  O1  UNL     1      -3.989   0.569  -0.012  1.00  0.00    -0.354 OA
HETATM    8  C6  UNL     1      -5.139  -0.197  -0.390  1.00  0.00     0.263 C 
HETATM    9  C5  UNL     1      -4.950  -0.965  -1.702  1.00  0.00     0.099 C 
BRANCH   4  10
HETATM   10  O14 UNL     1      -2.084   0.183  -3.110  1.00  0.00    -0.391 OA
HETATM   11  H49 UNL     1      -1.455  -0.507  -3.391  1.00  0.00     0.210 HD
ENDBRANCH   4  10
BRANCH   8  12
HETATM   12  O2  UNL     1      -6.283   0.644  -0.542  1.00  0.00    -0.351 OA
BRANCH  12  13
HETATM   13  C7  UNL     1      -6.685   1.261   0.686  1.00  0.00     0.164 C 
HETATM   14  C8  UNL     1      -6.273   2.733   0.564  1.00  0.00     0.083 C 
HETATM   15  C9  UNL     1      -6.956   3.611   1.600  1.00  0.00     0.124 C 
HETATM   16  C10 UNL     1      -8.472   3.555   1.362  1.00  0.00     0.088 C 
HETATM   17  C11 UNL     1      -9.026   2.158   1.176  1.00  0.00    -0.009 A 
HETATM   18  C12 UNL     1     -10.412   1.953   1.290  1.00  0.00     0.088 A 
HETATM   19  C16 UNL     1      -8.183   1.065   0.885  1.00  0.00     0.014 A 
HETATM   20  C13 UNL     1     -10.969   0.668   1.193  1.00  0.00     0.066 A 
HETATM   21  C14 UNL     1     -10.138  -0.427   0.986  1.00  0.00     0.066 A 
HETATM   22  C20 UNL     1     -12.425   0.472   1.326  1.00  0.00     0.197 A 
HETATM   23  C15 UNL     1      -8.751  -0.225   0.844  1.00  0.00     0.090 A 
HETATM   24  C17 UNL     1     -10.715  -1.789   0.907  1.00  0.00     0.200 A 
HETATM   25  C18 UNL     1     -12.166  -1.998   1.128  1.00  0.00     0.062 A 
HETATM   26  O4  UNL     1      -9.961  -2.719   0.634  1.00  0.00    -0.286 OA
HETATM   27  C19 UNL     1     -12.990  -0.888   1.316  1.00  0.00     0.032 A 
HETATM   28  C24 UNL     1     -12.748  -3.276   1.143  1.00  0.00     0.083 A 
HETATM   29  C21 UNL     1     -14.371  -1.045   1.515  1.00  0.00     0.017 A 
HETATM   30  C22 UNL     1     -14.935  -2.319   1.540  1.00  0.00     0.004 A 
HETATM   31  C23 UNL     1     -14.122  -3.434   1.366  1.00  0.00     0.038 A 
HETATM   32  O5  UNL     1     -13.159   1.449   1.454  1.00  0.00    -0.286 OA
BRANCH  15  33
HETATM   33  C26 UNL     1      -6.559   3.218   3.041  1.00  0.00     0.157 C 
HETATM   34  C27 UNL     1      -5.088   3.216   3.383  1.00  0.00     0.094 C 
HETATM   35  O8  UNL     1      -7.393   2.916   3.897  1.00  0.00    -0.295 OA
ENDBRANCH  15  33
BRANCH  15  36
HETATM   36  O9  UNL     1      -6.514   4.963   1.395  1.00  0.00    -0.382 OA
HETATM   37  H48 UNL     1      -7.085   5.543   1.933  1.00  0.00     0.211 HD
ENDBRANCH  15  36
BRANCH  18  38
HETATM   38  O7  UNL     1     -11.188   3.066   1.500  1.00  0.00    -0.359 OA
HETATM   39  H47 UNL     1     -12.132   2.789   1.548  1.00  0.00     0.217 HD
ENDBRANCH  18  38
BRANCH  23  40
HETATM   40  O3  UNL     1      -7.892  -1.287   0.693  1.00  0.00    -0.359 OA
HETATM   41  H46 UNL     1      -8.421  -2.113   0.612  1.00  0.00     0.217 HD
ENDBRANCH  23  40
BRANCH  28  42
HETATM   42  O6  UNL     1     -12.001  -4.419   1.043  1.00  0.00    -0.355 OA
HETATM   43  C25 UNL     1     -12.005  -4.908  -0.299  1.00  0.00     0.210 C 
ENDBRANCH  28  42
ENDBRANCH  12  13
ENDBRANCH   8  12
ENDBRANCH   1   3
BRANCH   1  44
HETATM   44  C28 UNL     1      -2.413  -3.590  -1.464  1.00  0.00     0.308 C 
BRANCH  44  45
HETATM   45  C29 UNL     1      -0.998  -3.214  -1.829  1.00  0.00    -0.030 A 
HETATM   46  C30 UNL     1      -0.607  -3.129  -3.171  1.00  0.00     0.011 A 
HETATM   47  C31 UNL     1       0.697  -2.754  -3.516  1.00  0.00     0.030 A 
HETATM   48  C32 UNL     1       1.636  -2.464  -2.527  1.00  0.00     0.035 A 
HETATM   49  C33 UNL     1       1.249  -2.557  -1.184  1.00  0.00     0.030 A 
HETATM   50  C34 UNL     1      -0.053  -2.931  -0.837  1.00  0.00     0.011 A 
BRANCH  48  51
HETATM   51  N2  UNL     1       2.966  -2.071  -2.783  1.00  0.00    -0.322 N 
HETATM   52  C35 UNL     1       3.594  -1.926  -4.008  1.00  0.00     0.273 C 
HETATM   53  O10 UNL     1       3.065  -2.160  -5.089  1.00  0.00    -0.266 OA
HETATM   54  H51 UNL     1       3.534  -1.903  -1.965  1.00  0.00     0.169 HD
BRANCH  52  55
HETATM   55  C36 UNL     1       4.983  -1.474  -3.916  1.00  0.00     0.105 A 
HETATM   56  C37 UNL     1       5.684  -0.952  -2.832  1.00  0.00     0.066 A 
HETATM   57  C38 UNL     1       7.009  -0.664  -3.234  1.00  0.00     0.053 A 
HETATM   58  C39 UNL     1       7.100  -0.995  -4.564  1.00  0.00     0.120 A 
HETATM   59  N3  UNL     1       5.881  -1.478  -4.972  1.00  0.00    -0.354 N 
HETATM   60  C40 UNL     1       5.606  -1.935  -6.319  1.00  0.00     0.156 C 
BRANCH  57  61
HETATM   61  N4  UNL     1       8.064  -0.139  -2.516  1.00  0.00    -0.320 N 
HETATM   62  C41 UNL     1       8.046   0.135  -1.162  1.00  0.00     0.273 C 
HETATM   63  O11 UNL     1       7.124  -0.137  -0.399  1.00  0.00    -0.266 OA
HETATM   64  H52 UNL     1       8.938  -0.035  -3.011  1.00  0.00     0.169 HD
BRANCH  62  65
HETATM   65  C42 UNL     1       9.280   0.735  -0.685  1.00  0.00     0.105 A 
HETATM   66  C43 UNL     1       9.968   0.397   0.473  1.00  0.00     0.066 A 
HETATM   67  C44 UNL     1      11.132   1.197   0.560  1.00  0.00     0.053 A 
HETATM   68  C45 UNL     1      11.113   2.036  -0.528  1.00  0.00     0.120 A 
HETATM   69  N5  UNL     1       9.971   1.789  -1.248  1.00  0.00    -0.354 N 
HETATM   70  C46 UNL     1       9.543   2.601  -2.368  1.00  0.00     0.156 C 
BRANCH  67  71
HETATM   71  N6  UNL     1      12.074   1.116   1.568  1.00  0.00    -0.320 N 
HETATM   72  C47 UNL     1      13.205   1.904   1.693  1.00  0.00     0.273 C 
HETATM   73  O12 UNL     1      13.508   2.809   0.921  1.00  0.00    -0.266 OA
HETATM   74  H53 UNL     1      11.877   0.446   2.294  1.00  0.00     0.169 HD
BRANCH  72  75
HETATM   75  C48 UNL     1      14.028   1.576   2.857  1.00  0.00     0.105 A 
HETATM   76  C49 UNL     1      14.030   0.441   3.665  1.00  0.00     0.066 A 
HETATM   77  C50 UNL     1      15.021   0.591   4.668  1.00  0.00     0.052 A 
HETATM   78  C51 UNL     1      15.613   1.810   4.456  1.00  0.00     0.120 A 
HETATM   79  N7  UNL     1      15.025   2.395   3.363  1.00  0.00    -0.354 N 
HETATM   80  C52 UNL     1      15.403   3.696   2.850  1.00  0.00     0.156 C 
BRANCH  77  81
HETATM   81  N8  UNL     1      15.311  -0.336   5.650  1.00  0.00    -0.333 N 
HETATM   82  H54 UNL     1      14.770  -1.189   5.645  1.00  0.00     0.168 HD
BRANCH  81  83
HETATM   83  C53 UNL     1      16.273  -0.191   6.623  1.00  0.00     0.353 C 
HETATM   84  O13 UNL     1      17.038   0.741   6.824  1.00  0.00    -0.283 OA
ENDBRANCH  81  83
ENDBRANCH  77  81
ENDBRANCH  72  75
ENDBRANCH  67  71
ENDBRANCH  62  65
ENDBRANCH  57  61
ENDBRANCH  52  55
ENDBRANCH  48  51
ENDBRANCH  44  45
ENDBRANCH   1  44
TORSDOF 19
