REMARK  0 active torsions:
REMARK  status: ('A' for Active; 'I' for Inactive)
REMARK       I    between atoms: C2_2  and  C4_4 
REMARK       I    between atoms: C4_4  and  C5_5 
REMARK       I    between atoms: C5_5  and  C6_6 
REMARK       I    between atoms: C5_5  and  N15_84 
REMARK       I    between atoms: C6_6  and  N1_68 
REMARK       I    between atoms: C7_7  and  C8_8 
REMARK       I    between atoms: C7_7  and  C11_11 
REMARK       I    between atoms: C7_7  and  N1_68 
REMARK       I    between atoms: C8_8  and  C9_9 
REMARK       I    between atoms: C9_9  and  C10_10 
REMARK       I    between atoms: C10_10  and  N2_69 
REMARK       I    between atoms: C11_11  and  N3_70 
REMARK       I    between atoms: C12_12  and  C13_13 
REMARK       I    between atoms: C12_12  and  C14_14 
REMARK       I    between atoms: C12_12  and  N3_70 
REMARK       I    between atoms: C13_13  and  O4_57 
REMARK       I    between atoms: C14_14  and  N4_71 
REMARK       I    between atoms: C15_15  and  C16_16 
REMARK       I    between atoms: C15_15  and  C20_20 
REMARK       I    between atoms: C15_15  and  N4_71 
REMARK       I    between atoms: C16_16  and  C17_17 
REMARK       I    between atoms: C17_17  and  C18_18 
REMARK       I    between atoms: C18_18  and  N5_72 
REMARK       I    between atoms: C19_19  and  N6_74 
REMARK       I    between atoms: C19_19  and  N7_75 
REMARK       I    between atoms: C20_20  and  N8_76 
REMARK       I    between atoms: C21_21  and  C22_22 
REMARK       I    between atoms: C21_21  and  C25_25 
REMARK       I    between atoms: C21_21  and  N8_76 
REMARK       I    between atoms: C25_25  and  N9_77 
REMARK       I    between atoms: C26_26  and  C27_27 
REMARK       I    between atoms: C26_26  and  N9_77 
REMARK       I    between atoms: C27_27  and  N10_78 
REMARK       I    between atoms: C28_28  and  C29_29 
REMARK       I    between atoms: C28_28  and  C36_36 
REMARK       I    between atoms: C28_28  and  N10_78 
REMARK       I    between atoms: C29_29  and  C30_30 
REMARK       I    between atoms: C33_33  and  O9_62 
REMARK       I    between atoms: C36_36  and  N11_79 
REMARK       I    between atoms: C37_37  and  C38_38 
REMARK       I    between atoms: C37_37  and  C41_41 
REMARK       I    between atoms: C37_37  and  N11_79 
REMARK       I    between atoms: C38_38  and  C39_39 
REMARK       I    between atoms: C39_39  and  S1_87 
REMARK       I    between atoms: C41_41  and  N12_80 
REMARK       I    between atoms: C42_42  and  C43_43 
REMARK       I    between atoms: C42_42  and  C47_47 
REMARK       I    between atoms: C42_42  and  N12_80 
REMARK       I    between atoms: C43_43  and  C44_44 
REMARK       I    between atoms: C47_47  and  O13_66 
REMARK       I    between atoms: C48_48  and  C49_49 
REMARK       I    between atoms: C48_48  and  N15_84 
REMARK       I    between atoms: C49_49  and  C50_50 
REMARK       I    between atoms: C49_49  and  N17_86 
REMARK       I    between atoms: C50_50  and  C51_51 
REMARK       I    between atoms: C51_51  and  C52_52 
REMARK       I    between atoms: C52_52  and  C53_53 
REMARK       I    between atoms: C53_53  and  N16_85 
ROOT
HETATM    1  C1  UNL     1       7.544  -3.499   0.570  1.00  0.00     0.009 C 
HETATM    2  C2  UNL     1       6.401  -4.122   1.371  1.00  0.00    -0.020 C 
HETATM    3  C3  UNL     1       6.747  -4.154   2.859  1.00  0.00     0.009 C 
HETATM    4  C4  UNL     1       5.038  -3.461   1.069  1.00  0.00     0.038 C 
HETATM    5  C5  UNL     1       4.922  -1.952   1.334  1.00  0.00     0.177 C 
HETATM    6  C6  UNL     1       3.613  -1.381   0.728  1.00  0.00     0.241 C 
HETATM    7  C7  UNL     1       2.350   0.700   0.289  1.00  0.00     0.177 C 
HETATM    8  C8  UNL     1       2.053   2.003   1.039  1.00  0.00     0.044 C 
HETATM    9  C9  UNL     1       0.818   2.743   0.511  1.00  0.00     0.105 C 
HETATM   10  C10 UNL     1      -0.456   1.976   0.786  1.00  0.00     0.215 C 
HETATM   11  C11 UNL     1       2.684   0.969  -1.193  1.00  0.00     0.241 C 
HETATM   12  C12 UNL     1       2.248   0.104  -3.457  1.00  0.00     0.200 C 
HETATM   13  C13 UNL     1       2.184  -1.251  -4.177  1.00  0.00     0.199 C 
HETATM   14  C14 UNL     1       0.930   0.868  -3.704  1.00  0.00     0.243 C 
HETATM   15  C15 UNL     1      -0.445   1.820  -5.495  1.00  0.00     0.176 C 
HETATM   16  C16 UNL     1      -0.409   3.021  -6.446  1.00  0.00     0.036 C 
HETATM   17  C17 UNL     1       0.330   2.844  -7.779  1.00  0.00     0.022 C 
HETATM   18  C18 UNL     1       1.854   2.928  -7.687  1.00  0.00     0.121 C 
HETATM   19  C19 UNL     1       3.656   1.475  -7.293  1.00  0.00     0.121 C 
HETATM   20  C20 UNL     1      -0.993   0.518  -6.134  1.00  0.00     0.241 C 
HETATM   21  C21 UNL     1      -3.010  -0.541  -7.181  1.00  0.00     0.180 C 
HETATM   22  C22 UNL     1      -2.622  -0.902  -8.634  1.00  0.00     0.009 C 
HETATM   23  C23 UNL     1      -1.205  -1.444  -8.815  1.00  0.00     0.012 C 
HETATM   24  C24 UNL     1      -2.845   0.286  -9.577  1.00  0.00     0.012 C 
HETATM   25  C25 UNL     1      -3.124  -1.759  -6.223  1.00  0.00     0.241 C 
HETATM   26  C26 UNL     1      -3.399  -2.338  -3.815  1.00  0.00     0.225 C 
HETATM   27  C27 UNL     1      -4.388  -1.757  -2.799  1.00  0.00     0.236 C 
HETATM   28  C28 UNL     1      -5.175  -1.879  -0.463  1.00  0.00     0.180 C 
HETATM   29  C29 UNL     1      -5.550  -3.019   0.501  1.00  0.00     0.073 C 
HETATM   30  C30 UNL     1      -6.784  -2.750   1.331  1.00  0.00    -0.056 A 
HETATM   31  C31 UNL     1      -8.035  -2.577   0.719  1.00  0.00     0.010 A 
HETATM   32  C32 UNL     1      -9.172  -2.309   1.485  1.00  0.00     0.037 A 
HETATM   33  C33 UNL     1      -9.059  -2.222   2.868  1.00  0.00     0.065 A 
HETATM   34  C34 UNL     1      -7.833  -2.405   3.494  1.00  0.00     0.037 A 
HETATM   35  C35 UNL     1      -6.698  -2.676   2.728  1.00  0.00     0.010 A 
HETATM   36  C36 UNL     1      -4.323  -0.790   0.236  1.00  0.00     0.241 C 
HETATM   37  C37 UNL     1      -4.270   0.951   1.974  1.00  0.00     0.177 C 
HETATM   38  C38 UNL     1      -5.189   2.068   2.483  1.00  0.00     0.045 C 
HETATM   39  C39 UNL     1      -5.641   2.976   1.342  1.00  0.00     0.076 C 
HETATM   40  C40 UNL     1      -5.635   5.324   2.831  1.00  0.00     0.089 C 
HETATM   41  C41 UNL     1      -3.636   0.214   3.175  1.00  0.00     0.241 C 
HETATM   42  C42 UNL     1      -1.814   0.253   4.835  1.00  0.00     0.188 C 
HETATM   43  C43 UNL     1      -0.592   1.113   5.192  1.00  0.00     0.094 C 
HETATM   44  C44 UNL     1       0.374   0.436   6.103  1.00  0.00     0.028 A 
HETATM   45  C45 UNL     1       1.345  -0.511   5.870  1.00  0.00     0.114 A 
HETATM   46  C46 UNL     1       1.459  -0.083   7.957  1.00  0.00     0.180 A 
HETATM   47  C47 UNL     1      -2.689   0.118   6.085  1.00  0.00     0.163 C 
HETATM   48  C48 UNL     1       5.321  -0.451   3.285  1.00  0.00     0.251 C 
HETATM   49  C49 UNL     1       4.970  -0.292   4.784  1.00  0.00     0.308 C 
HETATM   50  C50 UNL     1       6.152   0.312   5.552  1.00  0.00     0.045 C 
HETATM   51  C51 UNL     1       5.876   0.625   7.028  1.00  0.00     0.004 C 
HETATM   52  C52 UNL     1       4.864   1.760   7.219  1.00  0.00     0.030 C 
HETATM   53  C53 UNL     1       4.546   2.049   8.688  1.00  0.00     0.267 C 
HETATM   54  O1  UNL     1       2.790  -2.056   0.110  1.00  0.00    -0.271 OA
HETATM   55  O2  UNL     1      -1.057   2.056   1.856  1.00  0.00    -0.274 OA
HETATM   56  O3  UNL     1       3.178   2.015  -1.602  1.00  0.00    -0.271 OA
HETATM   57  O4  UNL     1       2.290  -1.124  -5.592  1.00  0.00    -0.398 OA
HETATM   58  O5  UNL     1      -0.003   0.867  -2.895  1.00  0.00    -0.271 OA
HETATM   59  O6  UNL     1      -0.343  -0.529  -6.147  1.00  0.00    -0.271 OA
HETATM   60  O7  UNL     1      -3.280  -2.914  -6.607  1.00  0.00    -0.271 OA
HETATM   61  O8  UNL     1      -5.128  -0.806  -3.046  1.00  0.00    -0.272 OA
HETATM   62  O9  UNL     1     -10.141  -1.958   3.654  1.00  0.00    -0.361 OA
HETATM   63  O10 UNL     1      -3.126  -0.622  -0.012  1.00  0.00    -0.271 OA
HETATM   64  O11 UNL     1      -4.061  -0.857   3.602  1.00  0.00    -0.271 OA
HETATM   65  O12 UNL     1      -3.362   0.997   6.604  1.00  0.00    -0.648 OA
HETATM   66  O13 UNL     1      -2.641  -1.113   6.636  1.00  0.00    -0.775 OA
HETATM   67  O14 UNL     1       5.821   0.440   2.603  1.00  0.00    -0.271 OA
HETATM   68  N1  UNL     1       3.467  -0.014   0.889  1.00  0.00    -0.346 N 
HETATM   69  N2  UNL     1      -0.863   1.136  -0.203  1.00  0.00    -0.370 N 
HETATM   70  N3  UNL     1       2.386  -0.093  -2.019  1.00  0.00    -0.344 N 
HETATM   71  N4  UNL     1       0.855   1.513  -4.924  1.00  0.00    -0.346 N 
HETATM   72  N5  UNL     1       2.385   1.640  -7.253  1.00  0.00    -0.372 N 
ATOM     73  H5  UNL     1       1.766   0.897  -6.929  1.00  0.00     0.161 HD
HETATM   74  N6  UNL     1       4.632   2.340  -7.646  1.00  0.00    -0.279 NA
HETATM   75  N7  UNL     1       4.206   0.293  -6.946  1.00  0.00    -0.279 NA
HETATM   76  N8  UNL     1      -2.295   0.594  -6.583  1.00  0.00    -0.346 N 
HETATM   77  N9  UNL     1      -3.205  -1.398  -4.896  1.00  0.00    -0.351 N 
HETATM   78  N10 UNL     1      -4.391  -2.415  -1.583  1.00  0.00    -0.346 N 
HETATM   79  N11 UNL     1      -4.998  -0.008   1.151  1.00  0.00    -0.346 N 
HETATM   80  N12 UNL     1      -2.592   0.896   3.770  1.00  0.00    -0.344 N 
HETATM   81  N13 UNL     1       2.035  -0.802   7.021  1.00  0.00    -0.360 N 
ATOM     82  H13 UNL     1       2.825  -1.439   7.126  1.00  0.00     0.166 HD
HETATM   83  N14 UNL     1       0.453   0.692   7.450  1.00  0.00    -0.354 N 
HETATM   84  N15 UNL     1       4.921  -1.656   2.758  1.00  0.00    -0.346 N 
HETATM   85  N16 UNL     1       5.682   2.582   9.429  1.00  0.00     0.078 N 
HETATM   86  N17 UNL     1       4.529  -1.596   5.336  1.00  0.00     0.092 N 
HETATM   87  S1  UNL     1      -6.788   4.278   1.906  1.00  0.00    -0.173 SA
HETATM   88  H65 UNL     1       1.367  -1.034  -5.936  1.00  0.00     0.209 HD
HETATM   89  H66 UNL     1     -10.920  -1.850   3.085  1.00  0.00     0.217 HD
HETATM   90  H67 UNL     1      -3.313  -1.087   7.347  1.00  0.00     0.167 HD
HETATM   91  H68 UNL     1       4.299   0.512   1.158  1.00  0.00     0.163 HD
HETATM   92  H69 UNL     1      -1.714   0.584  -0.086  1.00  0.00     0.159 HD
HETATM   93  H70 UNL     1      -0.512   1.175  -1.162  1.00  0.00     0.159 HD
HETATM   94  H71 UNL     1       1.919  -0.890  -1.589  1.00  0.00     0.163 HD
HETATM   95  H72 UNL     1       1.581   1.296  -5.614  1.00  0.00     0.163 HD
HETATM   96  H73 UNL     1       4.323   3.156  -8.156  1.00  0.00     0.126 HD
HETATM   97  H74 UNL     1       5.393   1.875  -8.130  1.00  0.00     0.126 HD
HETATM   98  H75 UNL     1       3.505  -0.344  -6.549  1.00  0.00     0.126 HD
HETATM   99  H76 UNL     1       4.981   0.389  -6.302  1.00  0.00     0.126 HD
HETATM  100  H77 UNL     1      -2.743   1.499  -6.640  1.00  0.00     0.163 HD
HETATM  101  H78 UNL     1      -3.132  -0.416  -4.659  1.00  0.00     0.163 HD
HETATM  102  H79 UNL     1      -3.521  -2.870  -1.328  1.00  0.00     0.163 HD
HETATM  103  H80 UNL     1      -5.839  -0.397   1.565  1.00  0.00     0.163 HD
HETATM  104  H81 UNL     1      -2.059   1.484   3.122  1.00  0.00     0.163 HD
HETATM  105  H82 UNL     1      -0.123   1.334   7.980  1.00  0.00     0.166 HD
HETATM  106  H83 UNL     1       4.352  -2.211   3.399  1.00  0.00     0.163 HD
HETATM  107  H84 UNL     1       6.069   3.385   8.933  1.00  0.00     0.312 HD
HETATM  108  H85 UNL     1       6.429   1.889   9.466  1.00  0.00     0.312 HD
HETATM  109  H86 UNL     1       3.900  -1.411   6.132  1.00  0.00     0.313 HD
HETATM  110  H87 UNL     1       5.332  -2.080   5.738  1.00  0.00     0.313 HD
ENDROOT
TORSDOF 46
