REMARK  22 active torsions:
REMARK  status: ('A' for Active; 'I' for Inactive)
REMARK    1  A    between atoms: C3_3  and  N2_52 
REMARK    2  A    between atoms: C4_4  and  C5_5 
REMARK       I    between atoms: C4_4  and  N2_52 
REMARK    3  A    between atoms: C7_7  and  N3_53 
REMARK    4  A    between atoms: C8_8  and  C9_9 
REMARK       I    between atoms: C8_8  and  N3_53 
REMARK    5  A    between atoms: C11_11  and  N4_54 
REMARK    6  A    between atoms: C12_12  and  C13_13 
REMARK       I    between atoms: C12_12  and  N4_54 
REMARK    7  A    between atoms: C17_17  and  C18_18 
REMARK       I    between atoms: C18_18  and  N5_55 
REMARK    8  A    between atoms: C19_19  and  N5_55 
REMARK    9  A    between atoms: C21_21  and  C22_22 
REMARK       I    between atoms: C22_22  and  N6_56 
REMARK   10  A    between atoms: C23_23  and  N6_56 
REMARK   11  A    between atoms: C25_25  and  C26_26 
REMARK       I    between atoms: C26_26  and  N7_57 
REMARK   12  A    between atoms: C27_27  and  N7_57 
REMARK   13  A    between atoms: C29_29  and  C30_30 
REMARK       I    between atoms: C30_30  and  N8_58 
REMARK   14  A    between atoms: C31_31  and  C32_32 
REMARK   15  A    between atoms: C31_31  and  N8_58 
REMARK   16  A    between atoms: C32_32  and  C33_33 
REMARK   17  A    between atoms: C33_33  and  N10_61 
REMARK   18  A    between atoms: C46_46  and  C47_47 
REMARK       I    between atoms: C47_47  and  N16_67 
REMARK   19  A    between atoms: C48_48  and  C49_49 
REMARK   20  A    between atoms: C48_48  and  N16_67 
REMARK   21  A    between atoms: C49_49  and  C50_50 
REMARK   22  A    between atoms: C50_50  and  N17_68 
ROOT
HETATM    1  C13 UNL     1      -1.849  -0.827   3.468  1.00  0.00     0.033 A 
HETATM    2  C14 UNL     1      -2.616  -1.122   4.603  1.00  0.00     0.017 A 
HETATM    3  C15 UNL     1      -2.106  -0.858   5.875  1.00  0.00     0.002 A 
HETATM    4  C16 UNL     1      -0.825  -0.320   6.016  1.00  0.00     0.017 A 
HETATM    5  C17 UNL     1      -0.038  -0.057   4.886  1.00  0.00     0.033 A 
HETATM    6  C40 UNL     1      -0.558  -0.300   3.610  1.00  0.00     0.034 A 
ENDROOT
BRANCH   1   7
HETATM    7  C12 UNL     1      -2.347  -1.093   2.090  1.00  0.00     0.256 C 
HETATM    8  N4  UNL     1      -3.700  -0.880   1.907  1.00  0.00    -0.322 N 
HETATM    9  H45 UNL     1      -4.243  -0.481   2.661  1.00  0.00     0.169 HD
HETATM   10  O3  UNL     1      -1.529  -1.440   1.245  1.00  0.00    -0.267 OA
BRANCH   8  11
HETATM   11  C11 UNL     1      -4.391  -1.097   0.730  1.00  0.00     0.053 A 
HETATM   12  C10 UNL     1      -5.766  -0.826   0.532  1.00  0.00     0.066 A 
HETATM   13  C9  UNL     1      -6.098  -1.145  -0.777  1.00  0.00     0.105 A 
HETATM   14  N14 UNL     1      -4.960  -1.686  -1.342  1.00  0.00    -0.354 N 
HETATM   15  C41 UNL     1      -3.919  -1.617  -0.451  1.00  0.00     0.120 A 
HETATM   16  C42 UNL     1      -4.862  -2.326  -2.638  1.00  0.00     0.156 C 
BRANCH  13  17
HETATM   17  C8  UNL     1      -7.403  -0.997  -1.398  1.00  0.00     0.273 C 
HETATM   18  N3  UNL     1      -7.342  -0.433  -2.657  1.00  0.00    -0.320 N 
HETATM   19  H44 UNL     1      -6.456  -0.061  -2.969  1.00  0.00     0.169 HD
HETATM   20  O2  UNL     1      -8.434  -1.305  -0.810  1.00  0.00    -0.266 OA
BRANCH  18  21
HETATM   21  C7  UNL     1      -8.422  -0.228  -3.491  1.00  0.00     0.053 A 
HETATM   22  C6  UNL     1      -9.779  -0.595  -3.337  1.00  0.00     0.066 A 
HETATM   23  C5  UNL     1     -10.494  -0.169  -4.453  1.00  0.00     0.105 A 
HETATM   24  N15 UNL     1      -9.564   0.440  -5.281  1.00  0.00    -0.354 N 
HETATM   25  C43 UNL     1      -8.317   0.407  -4.704  1.00  0.00     0.120 A 
HETATM   26  C44 UNL     1      -9.839   1.045  -6.569  1.00  0.00     0.156 C 
BRANCH  23  27
HETATM   27  C4  UNL     1     -11.917  -0.308  -4.770  1.00  0.00     0.273 C 
HETATM   28  N2  UNL     1     -12.689  -0.755  -3.713  1.00  0.00    -0.320 N 
HETATM   29  H43 UNL     1     -12.241  -0.911  -2.823  1.00  0.00     0.169 HD
HETATM   30  O1  UNL     1     -12.356  -0.032  -5.883  1.00  0.00    -0.266 OA
BRANCH  28  31
HETATM   31  C3  UNL     1     -14.052  -0.987  -3.740  1.00  0.00     0.053 A 
HETATM   32  C2  UNL     1     -14.923  -0.856  -4.792  1.00  0.00     0.120 A 
HETATM   33  N1  UNL     1     -16.179  -1.200  -4.362  1.00  0.00    -0.354 N 
HETATM   34  C1  UNL     1     -17.354  -1.183  -5.209  1.00  0.00     0.156 C 
HETATM   35  C46 UNL     1     -16.151  -1.550  -3.023  1.00  0.00     0.104 A 
HETATM   36  C45 UNL     1     -14.820  -1.426  -2.632  1.00  0.00     0.066 A 
BRANCH  35  37
HETATM   37  C47 UNL     1     -17.313  -1.967  -2.252  1.00  0.00     0.268 C 
HETATM   38  N16 UNL     1     -17.087  -2.130  -0.905  1.00  0.00    -0.355 N 
HETATM   39  H53 UNL     1     -16.250  -1.714  -0.504  1.00  0.00     0.162 HD
HETATM   40  O8  UNL     1     -18.424  -2.151  -2.743  1.00  0.00    -0.266 OA
BRANCH  38  41
HETATM   41  C48 UNL     1     -18.170  -2.342   0.032  1.00  0.00     0.130 C 
BRANCH  41  42
HETATM   42  C49 UNL     1     -17.657  -2.784   1.398  1.00  0.00     0.095 C 
BRANCH  42  43
HETATM   43  C50 UNL     1     -16.871  -1.676   2.075  1.00  0.00     0.069 C 
HETATM   44  N18 UNL     1     -17.311  -1.173   3.261  1.00  0.00    -0.389 N 
HETATM   45  H55 UNL     1     -16.629  -0.699   3.841  1.00  0.00     0.157 HD
HETATM   46  H56 UNL     1     -17.956  -1.744   3.797  1.00  0.00     0.157 HD
BRANCH  43  47
HETATM   47  N17 UNL     1     -15.791  -1.240   1.516  1.00  0.00    -0.389 N 
HETATM   48  H54 UNL     1     -15.396  -0.486   2.084  1.00  0.00     0.157 HD
ATOM     49  H17 UNL     1     -15.394  -1.592   0.645  1.00  0.00     0.157 HD
ENDBRANCH  43  47
ENDBRANCH  42  43
ENDBRANCH  41  42
ENDBRANCH  38  41
ENDBRANCH  35  37
ENDBRANCH  28  31
ENDBRANCH  23  27
ENDBRANCH  18  21
ENDBRANCH  13  17
ENDBRANCH   8  11
ENDBRANCH   1   7
BRANCH   5  50
HETATM   50  C18 UNL     1       1.329   0.503   5.086  1.00  0.00     0.256 C 
HETATM   51  N5  UNL     1       2.267   0.099   4.153  1.00  0.00    -0.322 N 
HETATM   52  H46 UNL     1       2.007  -0.592   3.462  1.00  0.00     0.169 HD
HETATM   53  O4  UNL     1       1.516   1.233   6.052  1.00  0.00    -0.267 OA
BRANCH  51  54
HETATM   54  C19 UNL     1       3.587   0.511   4.116  1.00  0.00     0.053 A 
HETATM   55  C20 UNL     1       4.555   0.062   3.184  1.00  0.00     0.066 A 
HETATM   56  C21 UNL     1       5.768   0.694   3.449  1.00  0.00     0.105 A 
HETATM   57  N13 UNL     1       5.522   1.534   4.523  1.00  0.00    -0.354 N 
HETATM   58  C38 UNL     1       6.486   2.408   5.161  1.00  0.00     0.156 C 
HETATM   59  C39 UNL     1       4.217   1.417   4.929  1.00  0.00     0.120 A 
BRANCH  56  60
HETATM   60  C22 UNL     1       7.059   0.576   2.774  1.00  0.00     0.273 C 
HETATM   61  N6  UNL     1       7.164  -0.533   1.952  1.00  0.00    -0.320 N 
HETATM   62  H47 UNL     1       6.401  -1.191   1.929  1.00  0.00     0.169 HD
HETATM   63  O5  UNL     1       7.962   1.389   2.948  1.00  0.00    -0.266 OA
BRANCH  61  64
HETATM   64  C23 UNL     1       8.268  -0.860   1.189  1.00  0.00     0.053 A 
HETATM   65  C24 UNL     1       9.492  -0.176   1.004  1.00  0.00     0.066 A 
HETATM   66  C25 UNL     1      10.298  -0.910   0.138  1.00  0.00     0.105 A 
HETATM   67  N12 UNL     1       9.550  -2.023  -0.211  1.00  0.00    -0.354 N 
HETATM   68  C36 UNL     1       9.973  -3.086  -1.101  1.00  0.00     0.156 C 
HETATM   69  C37 UNL     1       8.332  -1.999   0.423  1.00  0.00     0.120 A 
BRANCH  66  70
HETATM   70  C26 UNL     1      11.645  -0.628  -0.361  1.00  0.00     0.273 C 
HETATM   71  N7  UNL     1      12.284   0.407   0.297  1.00  0.00    -0.320 N 
HETATM   72  H48 UNL     1      11.809   0.851   1.069  1.00  0.00     0.169 HD
HETATM   73  O6  UNL     1      12.141  -1.278  -1.277  1.00  0.00    -0.266 OA
BRANCH  71  74
HETATM   74  C27 UNL     1      13.552   0.886   0.026  1.00  0.00     0.053 A 
HETATM   75  C28 UNL     1      14.189   1.935   0.733  1.00  0.00     0.066 A 
HETATM   76  C29 UNL     1      15.435   2.166   0.166  1.00  0.00     0.104 A 
HETATM   77  N11 UNL     1      15.588   1.212  -0.822  1.00  0.00    -0.354 N 
HETATM   78  C34 UNL     1      16.794   0.932  -1.573  1.00  0.00     0.156 C 
HETATM   79  C35 UNL     1      14.438   0.470  -0.937  1.00  0.00     0.120 A 
BRANCH  76  80
HETATM   80  C30 UNL     1      16.387   3.175   0.581  1.00  0.00     0.268 C 
HETATM   81  N8  UNL     1      17.036   3.809  -0.453  1.00  0.00    -0.355 N 
HETATM   82  H49 UNL     1      16.689   3.663  -1.391  1.00  0.00     0.162 HD
HETATM   83  O7  UNL     1      16.570   3.484   1.754  1.00  0.00    -0.266 OA
BRANCH  81  84
HETATM   84  C31 UNL     1      17.933   4.927  -0.231  1.00  0.00     0.130 C 
BRANCH  84  85
HETATM   85  C32 UNL     1      19.298   4.513   0.309  1.00  0.00     0.089 C 
BRANCH  85  86
HETATM   86  C33 UNL     1      20.074   3.738  -0.732  1.00  0.00     0.049 C 
HETATM   87  N9  UNL     1      20.101   2.445  -0.737  1.00  0.00    -0.393 N 
HETATM   88  H50 UNL     1      19.548   2.085   0.050  1.00  0.00     0.157 HD
ATOM     89  H9  UNL     1      20.596   1.870  -1.419  1.00  0.00     0.157 HD
BRANCH  86  90
HETATM   90  N10 UNL     1      20.760   4.403  -1.701  1.00  0.00    -0.293 NA
HETATM   91  H51 UNL     1      21.180   5.286  -1.435  1.00  0.00     0.125 HD
HETATM   92  H52 UNL     1      21.411   3.788  -2.180  1.00  0.00     0.125 HD
ENDBRANCH  86  90
ENDBRANCH  85  86
ENDBRANCH  84  85
ENDBRANCH  81  84
ENDBRANCH  76  80
ENDBRANCH  71  74
ENDBRANCH  66  70
ENDBRANCH  61  64
ENDBRANCH  56  60
ENDBRANCH  51  54
ENDBRANCH   5  50
TORSDOF 22
