REMARK  19 active torsions:
REMARK  status: ('A' for Active; 'I' for Inactive)
REMARK    1  A    between atoms: C3_3  and  N10_48 
REMARK    2  A    between atoms: C5_5  and  C6_6 
REMARK       I    between atoms: C6_6  and  N2_38 
REMARK    3  A    between atoms: C7_7  and  N2_38 
REMARK    4  A    between atoms: C9_9  and  C11_11 
REMARK       I    between atoms: C11_11  and  N4_40 
REMARK    5  A    between atoms: C12_12  and  N4_40 
REMARK    6  A    between atoms: C13_13  and  C15_15 
REMARK       I    between atoms: C15_15  and  N7_44 
REMARK    7  A    between atoms: C16_16  and  C17_17 
REMARK    8  A    between atoms: C16_16  and  N7_44 
REMARK    9  A    between atoms: C17_17  and  C18_18 
REMARK   10  A    between atoms: C18_18  and  N8_45 
REMARK   11  A    between atoms: C18_18  and  N9_47 
REMARK   12  A    between atoms: C21_21  and  C22_22 
REMARK       I    between atoms: C21_21  and  N10_48 
REMARK   13  A    between atoms: C24_24  and  N13_52 
REMARK   14  A    between atoms: C26_26  and  C27_27 
REMARK       I    between atoms: C26_26  and  N13_52 
REMARK   15  A    between atoms: C30_30  and  N14_53 
REMARK   16  A    between atoms: C33_33  and  C34_34 
REMARK   17  A    between atoms: C33_33  and  N14_53 
REMARK   18  A    between atoms: C35_35  and  C36_36 
REMARK   19  A    between atoms: C35_35  and  N14_53 
ROOT
HETATM    1  C1  UNL     1      -1.769  -2.180   3.182  1.00  0.00     0.156 C 
HETATM    2  C2  UNL     1       0.573  -1.936   2.372  1.00  0.00     0.120 A 
HETATM    3  C3  UNL     1       1.204  -1.536   1.219  1.00  0.00     0.053 A 
HETATM    4  C4  UNL     1       0.189  -1.201   0.294  1.00  0.00     0.066 A 
HETATM    5  C5  UNL     1      -1.053  -1.385   0.895  1.00  0.00     0.105 A 
HETATM    6  N1  UNL     1      -0.783  -1.847   2.173  1.00  0.00    -0.354 N 
ENDROOT
BRANCH   5   7
HETATM    7  C6  UNL     1      -2.397  -1.175   0.357  1.00  0.00     0.273 C 
HETATM    8  N2  UNL     1      -2.425  -0.494  -0.847  1.00  0.00    -0.320 N 
HETATM    9  H35 UNL     1      -1.556  -0.155  -1.233  1.00  0.00     0.169 HD
HETATM   10  O1  UNL     1      -3.400  -1.566   0.948  1.00  0.00    -0.266 OA
BRANCH   8  11
HETATM   11  C7  UNL     1      -3.563  -0.191  -1.568  1.00  0.00     0.053 A 
HETATM   12  C8  UNL     1      -3.531   0.519  -2.744  1.00  0.00     0.120 A 
HETATM   13  N3  UNL     1      -4.818   0.643  -3.208  1.00  0.00    -0.354 N 
HETATM   14  C9  UNL     1      -5.705   0.026  -2.340  1.00  0.00     0.105 A 
HETATM   15  C20 UNL     1      -5.168   1.338  -4.431  1.00  0.00     0.156 C 
HETATM   16  C10 UNL     1      -4.919  -0.506  -1.320  1.00  0.00     0.066 A 
BRANCH  14  17
HETATM   17  C11 UNL     1      -7.158  -0.024  -2.538  1.00  0.00     0.274 C 
HETATM   18  N4  UNL     1      -7.847  -0.509  -1.446  1.00  0.00    -0.306 N 
HETATM   19  H36 UNL     1      -7.332  -0.751  -0.617  1.00  0.00     0.170 HD
HETATM   20  O2  UNL     1      -7.667   0.355  -3.588  1.00  0.00    -0.266 OA
BRANCH  18  21
HETATM   21  C12 UNL     1      -9.212  -0.673  -1.363  1.00  0.00     0.125 A 
HETATM   22  C14 UNL     1      -9.868  -1.154  -0.209  1.00  0.00     0.086 A 
HETATM   23  C13 UNL     1     -11.223  -1.155  -0.498  1.00  0.00     0.121 A 
HETATM   24  N6  UNL     1     -11.286  -0.752  -1.808  1.00  0.00    -0.290 N 
HETATM   25  C19 UNL     1     -12.437  -0.719  -2.681  1.00  0.00     0.178 C 
HETATM   26  N5  UNL     1     -10.092  -0.414  -2.326  1.00  0.00    -0.283 N 
ATOM     27  H5  UNL     1      -9.902  -0.040  -3.256  1.00  0.00     0.189 HD
BRANCH  23  28
HETATM   28  C15 UNL     1     -12.298  -1.552   0.378  1.00  0.00     0.269 C 
HETATM   29  N7  UNL     1     -13.505  -0.931   0.151  1.00  0.00    -0.355 N 
HETATM   30  H37 UNL     1     -13.472  -0.019  -0.300  1.00  0.00     0.162 HD
HETATM   31  O3  UNL     1     -12.138  -2.347   1.300  1.00  0.00    -0.266 OA
BRANCH  29  32
HETATM   32  C16 UNL     1     -14.605  -1.044   1.091  1.00  0.00     0.130 C 
BRANCH  32  33
HETATM   33  C17 UNL     1     -14.514   0.006   2.196  1.00  0.00     0.095 C 
BRANCH  33  34
HETATM   34  C18 UNL     1     -14.731   1.420   1.679  1.00  0.00     0.069 C 
BRANCH  34  35
HETATM   35  N8  UNL     1     -14.344   1.742   0.487  1.00  0.00    -0.389 N 
HETATM   36  H38 UNL     1     -14.521   2.739   0.336  1.00  0.00     0.157 HD
ATOM     37  H8  UNL     1     -13.929   1.105  -0.193  1.00  0.00     0.157 HD
ENDBRANCH  34  35
BRANCH  34  38
HETATM   38  N9  UNL     1     -15.299   2.339   2.505  1.00  0.00    -0.389 N 
HETATM   39  H39 UNL     1     -15.704   3.169   2.089  1.00  0.00     0.157 HD
HETATM   40  H40 UNL     1     -15.803   2.003   3.319  1.00  0.00     0.157 HD
ENDBRANCH  34  38
ENDBRANCH  33  34
ENDBRANCH  32  33
ENDBRANCH  29  32
ENDBRANCH  23  28
ENDBRANCH  18  21
ENDBRANCH  14  17
ENDBRANCH   8  11
ENDBRANCH   5   7
BRANCH   3  41
HETATM   41  N10 UNL     1       2.577  -1.514   1.084  1.00  0.00    -0.320 N 
HETATM   42  C21 UNL     1       3.258  -1.054  -0.027  1.00  0.00     0.274 C 
HETATM   43  O4  UNL     1       2.742  -0.537  -1.011  1.00  0.00    -0.266 OA
HETATM   44  H41 UNL     1       3.111  -1.775   1.902  1.00  0.00     0.169 HD
BRANCH  42  45
HETATM   45  C22 UNL     1       4.687  -1.214   0.089  1.00  0.00     0.122 A 
HETATM   46  C23 UNL     1       5.678  -0.267  -0.089  1.00  0.00     0.086 A 
HETATM   47  C24 UNL     1       6.893  -0.932   0.165  1.00  0.00     0.125 A 
HETATM   48  N11 UNL     1       6.693  -2.221   0.448  1.00  0.00    -0.283 N 
HETATM   49  N12 UNL     1       5.361  -2.380   0.338  1.00  0.00    -0.290 N 
ATOM     50  H11 UNL     1       7.390  -2.925   0.692  1.00  0.00     0.189 HD
HETATM   51  C25 UNL     1       4.808  -3.711   0.450  1.00  0.00     0.178 C 
BRANCH  47  52
HETATM   52  N13 UNL     1       8.179  -0.453   0.156  1.00  0.00    -0.308 N 
HETATM   53  C26 UNL     1       8.539   0.858  -0.051  1.00  0.00     0.257 C 
HETATM   54  O5  UNL     1       7.771   1.803  -0.199  1.00  0.00    -0.267 OA
HETATM   55  H42 UNL     1       8.864  -1.156   0.390  1.00  0.00     0.170 HD
BRANCH  53  56
HETATM   56  C27 UNL     1      10.005   1.120  -0.049  1.00  0.00     0.032 A 
HETATM   57  C28 UNL     1      10.466   2.356   0.397  1.00  0.00     0.019 A 
HETATM   58  C29 UNL     1      11.841   2.635   0.417  1.00  0.00     0.030 A 
HETATM   59  C30 UNL     1      12.812   1.711  -0.015  1.00  0.00     0.030 A 
HETATM   60  C31 UNL     1      12.305   0.485  -0.481  1.00  0.00     0.030 A 
HETATM   61  C32 UNL     1      10.932   0.186  -0.503  1.00  0.00     0.019 A 
BRANCH  59  62
HETATM   62  N14 UNL     1      14.173   2.000   0.009  1.00  0.00    -0.379 N 
BRANCH  62  63
HETATM   63  C33 UNL     1      14.673   3.342   0.376  1.00  0.00     0.138 C 
BRANCH  63  64
HETATM   64  C34 UNL     1      14.566   4.319  -0.795  1.00  0.00     0.134 C 
HETATM   65 CL1  UNL     1      15.260   5.900  -0.356  1.00  0.00    -0.129 Cl
ENDBRANCH  63  64
ENDBRANCH  62  63
BRANCH  62  66
HETATM   66  C35 UNL     1      15.215   1.003  -0.317  1.00  0.00     0.138 C 
BRANCH  66  67
HETATM   67  C36 UNL     1      15.783   0.306   0.925  1.00  0.00     0.134 C 
HETATM   68 CL2  UNL     1      14.711  -0.962   1.568  1.00  0.00    -0.129 Cl
ENDBRANCH  66  67
ENDBRANCH  62  66
ENDBRANCH  59  62
ENDBRANCH  53  56
ENDBRANCH  47  52
ENDBRANCH  42  45
ENDBRANCH   3  41
TORSDOF 19
