REMARK  26 active torsions:
REMARK  status: ('A' for Active; 'I' for Inactive)
REMARK    1  A    between atoms: C2_2  and  N1_52 
REMARK    2  A    between atoms: C3_3  and  C4_4 
REMARK       I    between atoms: C3_3  and  N1_52 
REMARK    3  A    between atoms: C5_5  and  O8_93 
REMARK    4  A    between atoms: C6_6  and  O7_92 
REMARK    5  A    between atoms: C7_7  and  N2_53 
REMARK    6  A    between atoms: C11_11  and  N21_82 
REMARK    7  A    between atoms: C12_12  and  N6_60 
REMARK    8  A    between atoms: C13_13  and  N6_60 
REMARK    9  A    between atoms: C16_16  and  N7_61 
REMARK   10  A    between atoms: C19_19  and  N7_61 
REMARK   11  A    between atoms: C20_20  and  N11_68 
REMARK   12  A    between atoms: C22_22  and  N11_68 
REMARK   13  A    between atoms: C25_25  and  N12_69 
REMARK   14  A    between atoms: C28_28  and  N12_69 
REMARK   15  A    between atoms: C29_29  and  N18_78 
REMARK   16  A    between atoms: C33_33  and  N16_76 
REMARK   17  A    between atoms: C34_34  and  O6_91 
REMARK   18  A    between atoms: C35_35  and  O5_90 
REMARK   19  A    between atoms: C36_36  and  C37_37 
REMARK       I    between atoms: C37_37  and  N17_77 
REMARK   20  A    between atoms: C38_38  and  N17_77 
REMARK   21  A    between atoms: C40_40  and  C41_41 
REMARK   22  A    between atoms: C40_40  and  N18_78 
REMARK   23  A    between atoms: C41_41  and  C42_42 
REMARK   24  A    between atoms: C46_46  and  C47_47 
REMARK   25  A    between atoms: C46_46  and  N21_82 
REMARK   26  A    between atoms: C47_47  and  C48_48 
ROOT
HETATM    1  C19 UNL     1       0.476   0.232  -0.695  1.00  0.00     0.162 A 
HETATM    2  C20 UNL     1      -1.552   0.602   0.250  1.00  0.00     0.162 A 
HETATM    3  C21 UNL     1      -0.666   2.063  -1.148  1.00  0.00     0.183 A 
HETATM    4  N8  UNL     1      -0.489  -0.187   0.114  1.00  0.00    -0.309 N 
ATOM      5  H8  UNL     1      -0.419  -1.075   0.610  1.00  0.00     0.171 HD
HETATM    6  N9  UNL     1      -1.691   1.755  -0.374  1.00  0.00    -0.309 N 
ATOM      7  H9  UNL     1      -2.511   2.352  -0.269  1.00  0.00     0.171 HD
HETATM    8  N10 UNL     1       0.438   1.368  -1.365  1.00  0.00    -0.309 N 
ATOM      9  H10 UNL     1       1.184   1.679  -1.987  1.00  0.00     0.171 HD
HETATM   10 CL1  UNL     1      -0.784   3.548  -1.990  1.00  0.00    -0.045 Cl
ENDROOT
BRANCH   1  11
HETATM   11  N7  UNL     1       1.562  -0.630  -0.813  1.00  0.00    -0.259 NA
HETATM   12  H61 UNL     1       1.486  -1.250  -0.011  1.00  0.00     0.131 HD
BRANCH  11  13
HETATM   13  C16 UNL     1       2.872   0.002  -0.992  1.00  0.00     0.063 C 
HETATM   14  C15 UNL     1       3.955  -0.915  -0.387  1.00  0.00     0.022 C 
HETATM   15  C14 UNL     1       4.489  -1.955  -1.368  1.00  0.00     0.026 C 
HETATM   16  C13 UNL     1       5.003  -1.338  -2.678  1.00  0.00     0.083 C 
HETATM   17  C18 UNL     1       4.549   0.107  -2.912  1.00  0.00     0.026 C 
HETATM   18  C17 UNL     1       3.098   0.288  -2.490  1.00  0.00     0.022 C 
BRANCH  16  19
HETATM   19  N6  UNL     1       6.440  -1.500  -2.866  1.00  0.00    -0.369 N 
HETATM   20  H60 UNL     1       6.738  -2.397  -3.245  1.00  0.00     0.161 HD
BRANCH  19  21
HETATM   21  C12 UNL     1       7.394  -0.993  -1.994  1.00  0.00     0.148 A 
HETATM   22  C9  UNL     1       8.701  -1.512  -1.979  1.00  0.00     0.123 A 
HETATM   23  C10 UNL     1       9.596  -0.913  -1.115  1.00  0.00     0.157 A 
HETATM   24  N3  UNL     1       9.305  -2.541  -2.673  1.00  0.00    -0.346 N 
HETATM   25  N2  UNL     1      10.770  -1.596  -1.288  1.00  0.00    -0.297 N 
HETATM   26  N4  UNL     1       9.363   0.108  -0.277  1.00  0.00    -0.174 N 
HETATM   27  C8  UNL     1      10.548  -2.558  -2.236  1.00  0.00     0.188 A 
HETATM   28  C11 UNL     1       8.088   0.535  -0.341  1.00  0.00     0.681 A 
ATOM     29  H4  UNL     1      10.069   0.514   0.337  1.00  0.00     0.186 HD
HETATM   30  N5  UNL     1       7.127   0.029  -1.141  1.00  0.00    -0.175 N 
ATOM     31  H5  UNL     1       6.186   0.420  -1.105  1.00  0.00     0.186 HD
ATOM     32  H3  UNL     1       8.882  -3.153  -3.371  1.00  0.00     0.167 HD
BRANCH  25  33
HETATM   33  C7  UNL     1      12.006  -1.306  -0.583  1.00  0.00     0.263 C 
HETATM   34  C6  UNL     1      11.866  -1.422   0.941  1.00  0.00     0.199 C 
HETATM   35  C5  UNL     1      13.272  -1.824   1.342  1.00  0.00     0.189 C 
HETATM   36  C4  UNL     1      13.682  -2.733   0.194  1.00  0.00     0.247 C 
HETATM   37  O2  UNL     1      13.030  -2.239  -0.998  1.00  0.00    -0.346 OA
BRANCH  34  38
HETATM   38  O7  UNL     1      11.500  -0.200   1.586  1.00  0.00    -0.388 OA
HETATM   39  H69 UNL     1      10.618   0.050   1.230  1.00  0.00     0.210 HD
ENDBRANCH  34  38
BRANCH  35  40
HETATM   40  O8  UNL     1      14.108  -0.654   1.368  1.00  0.00    -0.390 OA
HETATM   41  H70 UNL     1      13.584   0.018   1.854  1.00  0.00     0.210 HD
ENDBRANCH  35  40
BRANCH  36  42
HETATM   42  C3  UNL     1      13.251  -4.186   0.421  1.00  0.00     0.249 C 
HETATM   43  N1  UNL     1      13.450  -4.990  -0.683  1.00  0.00    -0.359 N 
HETATM   44  H59 UNL     1      13.828  -4.567  -1.524  1.00  0.00     0.162 HD
HETATM   45  O1  UNL     1      12.777  -4.592   1.477  1.00  0.00    -0.271 OA
BRANCH  43  46
HETATM   46  C2  UNL     1      13.131  -6.401  -0.685  1.00  0.00     0.118 C 
HETATM   47  C1  UNL     1      14.263  -7.231  -0.109  1.00  0.00     0.026 C 
ENDBRANCH  43  46
ENDBRANCH  36  42
ENDBRANCH  25  33
BRANCH  28  48
HETATM   48  N21 UNL     1       7.791   1.583   0.511  1.00  0.00    -0.226 N 
HETATM   49  H66 UNL     1       8.636   2.087   0.744  1.00  0.00     0.177 HD
BRANCH  48  50
HETATM   50  C46 UNL     1       6.613   2.395   0.227  1.00  0.00     0.144 C 
BRANCH  50  51
HETATM   51  C47 UNL     1       6.783   3.292  -1.002  1.00  0.00     0.078 C 
BRANCH  51  52
HETATM   52  C48 UNL     1       5.514   3.996  -1.339  1.00  0.00     0.027 A 
HETATM   53  C49 UNL     1       4.759   3.919  -2.490  1.00  0.00     0.116 A 
HETATM   54  N22 UNL     1       3.678   4.720  -2.262  1.00  0.00    -0.355 N 
HETATM   55  C50 UNL     1       3.815   5.260  -1.018  1.00  0.00     0.182 A 
HETATM   56  C51 UNL     1       2.586   4.942  -3.173  1.00  0.00     0.156 C 
HETATM   57  N23 UNL     1       4.918   4.845  -0.435  1.00  0.00    -0.354 N 
ATOM     58  H23 UNL     1       5.260   5.099   0.492  1.00  0.00     0.166 HD
ENDBRANCH  51  52
ENDBRANCH  50  51
ENDBRANCH  48  50
ENDBRANCH  28  48
ENDBRANCH  19  21
ENDBRANCH  16  19
ENDBRANCH  11  13
ENDBRANCH   1  11
BRANCH   2  59
HETATM   59  N11 UNL     1      -2.590   0.230   1.087  1.00  0.00    -0.259 NA
HETATM   60  H62 UNL     1      -3.418   0.791   0.853  1.00  0.00     0.131 HD
BRANCH  59  61
HETATM   61  C22 UNL     1      -2.824  -1.193   1.306  1.00  0.00     0.063 C 
HETATM   62  C23 UNL     1      -3.442  -1.860   0.060  1.00  0.00     0.021 C 
HETATM   63  C24 UNL     1      -4.919  -2.200   0.231  1.00  0.00     0.021 C 
HETATM   64  C25 UNL     1      -5.135  -3.131   1.430  1.00  0.00     0.062 C 
HETATM   65  C26 UNL     1      -4.324  -2.734   2.674  1.00  0.00     0.021 C 
HETATM   66  C27 UNL     1      -3.701  -1.342   2.561  1.00  0.00     0.021 C 
BRANCH  64  67
HETATM   67  N12 UNL     1      -6.557  -3.354   1.697  1.00  0.00    -0.272 NA
HETATM   68  H63 UNL     1      -7.026  -3.919   0.988  1.00  0.00     0.129 HD
BRANCH  67  69
HETATM   69  C28 UNL     1      -7.383  -2.275   2.024  1.00  0.00     0.114 A 
HETATM   70  C31 UNL     1      -8.716  -2.212   1.581  1.00  0.00     0.117 A 
HETATM   71  C30 UNL     1      -9.459  -1.116   1.984  1.00  0.00     0.143 A 
HETATM   72  N15 UNL     1      -9.465  -3.053   0.787  1.00  0.00    -0.346 N 
HETATM   73  N14 UNL     1      -9.032  -0.088   2.729  1.00  0.00    -0.317 N 
HETATM   74  N16 UNL     1     -10.709  -1.329   1.475  1.00  0.00    -0.297 N 
HETATM   75  C29 UNL     1      -7.744  -0.223   3.095  1.00  0.00     0.160 A 
ATOM     76  H14 UNL     1      -9.616   0.706   2.989  1.00  0.00     0.170 HD
HETATM   77  N13 UNL     1      -6.938  -1.257   2.799  1.00  0.00    -0.321 N 
ATOM     78  H13 UNL     1      -5.984  -1.275   3.161  1.00  0.00     0.169 HD
HETATM   79  C32 UNL     1     -10.651  -2.486   0.732  1.00  0.00     0.188 A 
ATOM     80  H15 UNL     1      -9.167  -3.921   0.342  1.00  0.00     0.167 HD
BRANCH  75  81
HETATM   81  N18 UNL     1      -7.148   0.757   3.879  1.00  0.00    -0.264 NA
HETATM   82  H65 UNL     1      -6.185   0.441   3.975  1.00  0.00     0.130 HD
BRANCH  81  83
HETATM   83  C40 UNL     1      -7.254   2.115   3.350  1.00  0.00     0.101 C 
BRANCH  83  84
HETATM   84  C41 UNL     1      -6.113   2.490   2.395  1.00  0.00     0.073 C 
BRANCH  84  85
HETATM   85  C42 UNL     1      -6.205   1.942   1.010  1.00  0.00     0.026 A 
HETATM   86  C43 UNL     1      -7.308   1.683   0.223  1.00  0.00     0.116 A 
HETATM   87  N19 UNL     1      -6.809   1.231  -0.965  1.00  0.00    -0.355 N 
HETATM   88  C44 UNL     1      -5.451   1.276  -0.888  1.00  0.00     0.182 A 
HETATM   89  C45 UNL     1      -7.586   0.781  -2.091  1.00  0.00     0.156 C 
HETATM   90  N20 UNL     1      -5.052   1.672   0.301  1.00  0.00    -0.354 N 
ATOM     91  H20 UNL     1      -4.091   1.761   0.630  1.00  0.00     0.166 HD
ENDBRANCH  84  85
ENDBRANCH  83  84
ENDBRANCH  81  83
ENDBRANCH  75  81
BRANCH  74  92
HETATM   92  C33 UNL     1     -11.932  -0.593   1.709  1.00  0.00     0.263 C 
HETATM   93  C34 UNL     1     -11.959   0.530   2.747  1.00  0.00     0.199 C 
HETATM   94  C35 UNL     1     -11.559   1.745   1.930  1.00  0.00     0.189 C 
HETATM   95  C36 UNL     1     -12.149   1.438   0.556  1.00  0.00     0.247 C 
HETATM   96  O3  UNL     1     -12.338   0.016   0.465  1.00  0.00    -0.346 OA
BRANCH  93  97
HETATM   97  O6  UNL     1     -13.300   0.754   3.248  1.00  0.00    -0.388 OA
HETATM   98  H68 UNL     1     -13.931   0.659   2.509  1.00  0.00     0.210 HD
ENDBRANCH  93  97
BRANCH  94  99
HETATM   99  O5  UNL     1     -12.084   2.964   2.459  1.00  0.00    -0.390 OA
HETATM  100  H67 UNL     1     -12.629   2.714   3.237  1.00  0.00     0.210 HD
ENDBRANCH  94  99
BRANCH  95 101
HETATM  101  C37 UNL     1     -11.228   2.003  -0.535  1.00  0.00     0.249 C 
HETATM  102  N17 UNL     1     -11.134   3.384  -0.519  1.00  0.00    -0.359 N 
HETATM  103  H64 UNL     1     -11.439   3.860   0.328  1.00  0.00     0.162 HD
HETATM  104  O4  UNL     1     -10.636   1.297  -1.346  1.00  0.00    -0.271 OA
BRANCH 102 105
HETATM  105  C38 UNL     1     -10.211   4.081  -1.390  1.00  0.00     0.118 C 
HETATM  106  C39 UNL     1     -10.571   5.549  -1.513  1.00  0.00     0.026 C 
ENDBRANCH 102 105
ENDBRANCH  95 101
ENDBRANCH  74  92
ENDBRANCH  67  69
ENDBRANCH  64  67
ENDBRANCH  59  61
ENDBRANCH   2  59
TORSDOF 26
