REMARK  30 active torsions:
REMARK  status: ('A' for Active; 'I' for Inactive)
REMARK    1  A    between atoms: C2_2  and  O1_50 
REMARK    2  A    between atoms: C5_5  and  O1_50 
REMARK       I    between atoms: C5_5  and  N1_60 
REMARK    3  A    between atoms: C10_10  and  C11_11 
REMARK    4  A    between atoms: C11_11  and  C12_12 
REMARK    5  A    between atoms: C12_12  and  C13_13 
REMARK    6  A    between atoms: C13_13  and  C14_14 
REMARK    7  A    between atoms: C14_14  and  C15_15 
REMARK       I    between atoms: C15_15  and  N4_64 
REMARK    8  A    between atoms: C16_16  and  C17_17 
REMARK    9  A    between atoms: C16_16  and  N4_64 
REMARK   10  A    between atoms: C17_17  and  C18_18 
REMARK   11  A    between atoms: C18_18  and  C19_19 
REMARK   12  A    between atoms: C19_19  and  C20_20 
REMARK   13  A    between atoms: C20_20  and  C21_21 
REMARK       I    between atoms: C21_21  and  N5_65 
REMARK   14  A    between atoms: C22_22  and  N5_65 
REMARK   15  A    between atoms: C24_24  and  N6_66 
REMARK   16  A    between atoms: C26_26  and  C28_28 
REMARK   17  A    between atoms: C28_28  and  O6_55 
REMARK   18  A    between atoms: C29_29  and  C30_30 
REMARK       I    between atoms: C29_29  and  N6_66 
REMARK   19  A    between atoms: C30_30  and  C31_31 
REMARK   20  A    between atoms: C31_31  and  C32_32 
REMARK   21  A    between atoms: C32_32  and  C33_33 
REMARK   22  A    between atoms: C33_33  and  C34_34 
REMARK   23  A    between atoms: C34_34  and  N7_67 
REMARK   24  A    between atoms: C35_35  and  C36_36 
REMARK       I    between atoms: C35_35  and  N7_67 
REMARK   25  A    between atoms: C36_36  and  C37_37 
REMARK   26  A    between atoms: C37_37  and  C38_38 
REMARK   27  A    between atoms: C38_38  and  C39_39 
REMARK   28  A    between atoms: C39_39  and  C40_40 
REMARK   29  A    between atoms: C45_45  and  O10_59 
REMARK       I    between atoms: C45_45  and  N10_71 
REMARK   30  A    between atoms: C46_46  and  O10_59 
ROOT
HETATM    1  C22 UNL     1      -0.948   4.814   1.643  1.00  0.00     0.037 A 
HETATM    2  C23 UNL     1       0.004   3.847   2.004  1.00  0.00     0.059 A 
HETATM    3  C24 UNL     1       1.073   3.528   1.162  1.00  0.00     0.037 A 
HETATM    4  C25 UNL     1       1.182   4.185  -0.067  1.00  0.00     0.048 A 
HETATM    5  C26 UNL     1       0.238   5.150  -0.442  1.00  0.00     0.042 A 
HETATM    6  C27 UNL     1      -0.824   5.464   0.415  1.00  0.00     0.048 A 
ENDROOT
BRANCH   1   7
HETATM    7  N5  UNL     1      -1.986   5.059   2.567  1.00  0.00    -0.327 N 
HETATM    8  C21 UNL     1      -3.010   5.982   2.464  1.00  0.00     0.222 C 
HETATM    9  O4  UNL     1      -3.187   6.781   1.550  1.00  0.00    -0.273 OA
HETATM   10  H72 UNL     1      -1.966   4.498   3.411  1.00  0.00     0.169 HD
BRANCH   8  11
HETATM   11  C20 UNL     1      -3.968   5.933   3.641  1.00  0.00     0.103 C 
BRANCH  11  12
HETATM   12  C19 UNL     1      -4.844   4.680   3.644  1.00  0.00     0.009 C 
BRANCH  12  13
HETATM   13  C18 UNL     1      -5.820   4.650   2.463  1.00  0.00     0.002 C 
BRANCH  13  14
HETATM   14  C17 UNL     1      -6.691   3.392   2.435  1.00  0.00     0.020 C 
BRANCH  14  15
HETATM   15  C16 UNL     1      -7.722   3.347   3.562  1.00  0.00     0.122 C 
BRANCH  15  16
HETATM   16  N4  UNL     1      -8.574   2.183   3.442  1.00  0.00    -0.361 N 
HETATM   17  C15 UNL     1      -8.197   0.957   3.946  1.00  0.00     0.217 C 
HETATM   18  O3  UNL     1      -7.174   0.773   4.597  1.00  0.00    -0.274 OA
HETATM   19  H71 UNL     1      -9.378   2.234   2.831  1.00  0.00     0.162 HD
BRANCH  17  20
HETATM   20  C14 UNL     1      -9.157  -0.164   3.609  1.00  0.00     0.103 C 
BRANCH  20  21
HETATM   21  C13 UNL     1      -8.992  -0.606   2.156  1.00  0.00     0.009 C 
BRANCH  21  22
HETATM   22  C12 UNL     1      -9.980  -1.714   1.799  1.00  0.00     0.002 C 
BRANCH  22  23
HETATM   23  C11 UNL     1      -9.749  -2.378   0.435  1.00  0.00     0.017 C 
BRANCH  23  24
HETATM   24  C10 UNL     1      -9.894  -1.543  -0.844  1.00  0.00     0.071 C 
HETATM   25  C7  UNL     1     -11.063  -0.553  -0.880  1.00  0.00     0.116 C 
HETATM   26  C8  UNL     1     -10.842   0.428  -2.049  1.00  0.00     0.096 C 
HETATM   27  N2  UNL     1     -12.326  -1.279  -1.206  1.00  0.00    -0.359 N 
HETATM   28  C9  UNL     1      -9.363   0.561  -2.385  1.00  0.00     0.096 C 
HETATM   29  N3  UNL     1     -11.632  -0.212  -3.096  1.00  0.00    -0.257 NA
HETATM   30  S1  UNL     1      -8.450  -0.519  -1.252  1.00  0.00    -0.161 SA
HETATM   31  C6  UNL     1     -12.526  -1.035  -2.468  1.00  0.00     0.158 C 
HETATM   32  H70 UNL     1     -12.007   0.403  -3.808  1.00  0.00     0.131 HD
HETATM   33  N1  UNL     1     -13.566  -1.535  -3.189  1.00  0.00    -0.279 N 
HETATM   34  C5  UNL     1     -14.550  -2.389  -2.761  1.00  0.00     0.367 C 
HETATM   35  H69 UNL     1     -13.561  -1.387  -4.182  1.00  0.00     0.173 HD
HETATM   36  O2  UNL     1     -14.805  -2.729  -1.619  1.00  0.00    -0.238 OA
ATOM     37  H2  UNL     1     -12.903  -1.841  -0.580  1.00  0.00     0.162 HD
BRANCH  34  38
HETATM   38  O1  UNL     1     -15.252  -2.781  -3.858  1.00  0.00    -0.294 OA
BRANCH  38  39
HETATM   39  C2  UNL     1     -16.379  -3.689  -3.735  1.00  0.00     0.061 C 
HETATM   40  C1  UNL     1     -16.877  -3.885  -5.175  1.00  0.00     0.046 C 
HETATM   41  C3  UNL     1     -17.510  -3.068  -2.908  1.00  0.00     0.046 C 
HETATM   42  C4  UNL     1     -15.942  -5.050  -3.181  1.00  0.00     0.046 C 
ENDBRANCH  38  39
ENDBRANCH  34  38
ENDBRANCH  23  24
ENDBRANCH  22  23
ENDBRANCH  21  22
ENDBRANCH  20  21
ENDBRANCH  17  20
ENDBRANCH  15  16
ENDBRANCH  14  15
ENDBRANCH  13  14
ENDBRANCH  12  13
ENDBRANCH  11  12
ENDBRANCH   8  11
ENDBRANCH   1   7
BRANCH   3  43
HETATM   43  N6  UNL     1       2.064   2.572   1.470  1.00  0.00    -0.327 N 
HETATM   44  C29 UNL     1       2.182   1.818   2.629  1.00  0.00     0.222 C 
HETATM   45  O7  UNL     1       1.441   1.866   3.604  1.00  0.00    -0.273 OA
HETATM   46  H73 UNL     1       2.776   2.425   0.764  1.00  0.00     0.169 HD
BRANCH  44  47
HETATM   47  C30 UNL     1       3.395   0.900   2.570  1.00  0.00     0.103 C 
BRANCH  47  48
HETATM   48  C31 UNL     1       3.490  -0.021   3.786  1.00  0.00     0.009 C 
BRANCH  48  49
HETATM   49  C32 UNL     1       4.657  -1.010   3.704  1.00  0.00     0.002 C 
BRANCH  49  50
HETATM   50  C33 UNL     1       6.027  -0.333   3.809  1.00  0.00     0.020 C 
BRANCH  50  51
HETATM   51  C34 UNL     1       7.177  -1.339   3.860  1.00  0.00     0.122 C 
BRANCH  51  52
HETATM   52  N7  UNL     1       7.364  -2.011   2.591  1.00  0.00    -0.361 N 
HETATM   53  C35 UNL     1       7.008  -3.325   2.390  1.00  0.00     0.217 C 
HETATM   54  O8  UNL     1       6.495  -4.032   3.251  1.00  0.00    -0.274 OA
HETATM   55  H74 UNL     1       7.854  -1.508   1.859  1.00  0.00     0.162 HD
BRANCH  53  56
HETATM   56  C36 UNL     1       7.314  -3.846   1.000  1.00  0.00     0.103 C 
BRANCH  56  57
HETATM   57  C37 UNL     1       8.715  -4.451   0.891  1.00  0.00     0.009 C 
BRANCH  57  58
HETATM   58  C38 UNL     1       9.873  -3.451   0.994  1.00  0.00     0.002 C 
BRANCH  58  59
HETATM   59  C39 UNL     1       9.956  -2.493  -0.203  1.00  0.00     0.017 C 
BRANCH  59  60
HETATM   60  C40 UNL     1      10.835  -1.250  -0.005  1.00  0.00     0.071 C 
HETATM   61  C41 UNL     1      12.272  -1.533   0.457  1.00  0.00     0.116 C 
HETATM   62  C42 UNL     1      12.843  -0.262   1.104  1.00  0.00     0.096 C 
HETATM   63  N9  UNL     1      13.126  -1.765  -0.749  1.00  0.00    -0.359 N 
HETATM   64  C43 UNL     1      11.746   0.548   1.773  1.00  0.00     0.096 C 
HETATM   65  N8  UNL     1      13.457   0.379  -0.054  1.00  0.00    -0.257 NA
HETATM   66  S2  UNL     1      10.141  -0.098   1.224  1.00  0.00    -0.161 SA
HETATM   67  C44 UNL     1      13.711  -0.620  -0.955  1.00  0.00     0.158 C 
HETATM   68  H75 UNL     1      14.225   1.009   0.145  1.00  0.00     0.131 HD
HETATM   69  N10 UNL     1      14.557  -0.367  -1.989  1.00  0.00    -0.279 N 
HETATM   70  C45 UNL     1      14.920  -1.214  -3.005  1.00  0.00     0.367 C 
HETATM   71  H76 UNL     1      14.877   0.577  -2.116  1.00  0.00     0.173 HD
HETATM   72  O9  UNL     1      14.678  -2.403  -3.114  1.00  0.00    -0.238 OA
ATOM     73  H9  UNL     1      13.227  -2.625  -1.288  1.00  0.00     0.162 HD
BRANCH  70  74
HETATM   74  O10 UNL     1      15.650  -0.489  -3.895  1.00  0.00    -0.294 OA
BRANCH  74  75
HETATM   75  C46 UNL     1      16.194  -1.110  -5.091  1.00  0.00     0.061 C 
HETATM   76  C47 UNL     1      17.210  -2.202  -4.740  1.00  0.00     0.046 C 
HETATM   77  C48 UNL     1      15.081  -1.632  -6.005  1.00  0.00     0.046 C 
HETATM   78  C49 UNL     1      16.930   0.027  -5.816  1.00  0.00     0.046 C 
ENDBRANCH  74  75
ENDBRANCH  70  74
ENDBRANCH  59  60
ENDBRANCH  58  59
ENDBRANCH  57  58
ENDBRANCH  56  57
ENDBRANCH  53  56
ENDBRANCH  51  52
ENDBRANCH  50  51
ENDBRANCH  49  50
ENDBRANCH  48  49
ENDBRANCH  47  48
ENDBRANCH  44  47
ENDBRANCH   3  43
BRANCH   5  79
HETATM   79  C28 UNL     1       0.330   5.860  -1.742  1.00  0.00     0.176 C 
HETATM   80  O5  UNL     1      -0.447   6.693  -2.167  1.00  0.00    -0.646 OA
BRANCH  79  81
HETATM   81  O6  UNL     1       1.406   5.490  -2.461  1.00  0.00    -0.773 OA
HETATM   82  H68 UNL     1       1.329   6.035  -3.273  1.00  0.00     0.167 HD
ENDBRANCH  79  81
ENDBRANCH   5  79
TORSDOF 30
