REMARK  0 active torsions:
REMARK  status: ('A' for Active; 'I' for Inactive)
REMARK       I    between atoms: C2_2  and  C3_3 
REMARK       I    between atoms: C2_2  and  O15_81 
REMARK       I    between atoms: C3_3  and  C4_4 
REMARK       I    between atoms: C3_3  and  N6_87 
REMARK       I    between atoms: C4_4  and  N1_82 
REMARK       I    between atoms: C5_5  and  C6_6 
REMARK       I    between atoms: C5_5  and  C10_10 
REMARK       I    between atoms: C5_5  and  N1_82 
REMARK       I    between atoms: C6_6  and  C7_7 
REMARK       I    between atoms: C7_7  and  C8_8 
REMARK       I    between atoms: C8_8  and  C9_9 
REMARK       I    between atoms: C9_9  and  N2_83 
REMARK       I    between atoms: C10_10  and  N3_84 
REMARK       I    between atoms: C11_11  and  C12_12 
REMARK       I    between atoms: C11_11  and  C15_15 
REMARK       I    between atoms: C11_11  and  N3_84 
REMARK       I    between atoms: C15_15  and  N4_85 
REMARK       I    between atoms: C16_16  and  C17_17 
REMARK       I    between atoms: C16_16  and  C21_21 
REMARK       I    between atoms: C16_16  and  N4_85 
REMARK       I    between atoms: C17_17  and  C18_18 
REMARK       I    between atoms: C21_21  and  N5_86 
REMARK       I    between atoms: C22_22  and  C23_23 
REMARK       I    between atoms: C22_22  and  C26_26 
REMARK       I    between atoms: C22_22  and  N5_86 
REMARK       I    between atoms: C26_26  and  O6_72 
REMARK       I    between atoms: C27_27  and  C28_28 
REMARK       I    between atoms: C27_27  and  N6_87 
REMARK       I    between atoms: C28_28  and  N7_88 
REMARK       I    between atoms: C30_30  and  C31_31 
REMARK       I    between atoms: C30_30  and  N7_88 
REMARK       I    between atoms: C31_31  and  N8_89 
REMARK       I    between atoms: C33_33  and  C34_34 
REMARK       I    between atoms: C33_33  and  N8_89 
REMARK       I    between atoms: C34_34  and  C35_35 
REMARK       I    between atoms: C34_34  and  N9_90 
REMARK       I    between atoms: C38_38  and  C39_39 
REMARK       I    between atoms: C38_38  and  N9_90 
REMARK       I    between atoms: C39_39  and  C40_40 
REMARK       I    between atoms: C39_39  and  N10_91 
REMARK       I    between atoms: C43_43  and  C44_44 
REMARK       I    between atoms: C43_43  and  N10_91 
REMARK       I    between atoms: C44_44  and  C45_45 
REMARK       I    between atoms: C44_44  and  N12_93 
REMARK       I    between atoms: C45_45  and  C46_46 
REMARK       I    between atoms: C46_46  and  C47_47 
REMARK       I    between atoms: C47_47  and  C48_48 
REMARK       I    between atoms: C48_48  and  N11_92 
REMARK       I    between atoms: C49_49  and  C50_50 
REMARK       I    between atoms: C49_49  and  N12_93 
REMARK       I    between atoms: C50_50  and  C51_51 
REMARK       I    between atoms: C50_50  and  N14_95 
REMARK       I    between atoms: C51_51  and  C52_52 
REMARK       I    between atoms: C52_52  and  C53_53 
REMARK       I    between atoms: C53_53  and  C54_54 
REMARK       I    between atoms: C54_54  and  N13_94 
REMARK       I    between atoms: C55_55  and  C56_56 
REMARK       I    between atoms: C55_55  and  N14_95 
REMARK       I    between atoms: C56_56  and  C57_57 
REMARK       I    between atoms: C56_56  and  N16_97 
REMARK       I    between atoms: C57_57  and  C58_58 
REMARK       I    between atoms: C58_58  and  C59_59 
REMARK       I    between atoms: C59_59  and  C60_60 
REMARK       I    between atoms: C60_60  and  N15_96 
REMARK       I    between atoms: C61_61  and  C62_62 
REMARK       I    between atoms: C61_61  and  N16_97 
REMARK       I    between atoms: C62_62  and  C63_63 
REMARK       I    between atoms: C62_62  and  N18_99 
REMARK       I    between atoms: C63_63  and  C64_64 
REMARK       I    between atoms: C64_64  and  C65_65 
REMARK       I    between atoms: C65_65  and  C66_66 
REMARK       I    between atoms: C66_66  and  N17_98 
ROOT
HETATM    1  C1  UNL     1       5.802   4.714  -0.064  1.00  0.00     0.042 C 
HETATM    2  C2  UNL     1       6.273   4.172   1.283  1.00  0.00     0.146 C 
HETATM    3  C3  UNL     1       6.254   2.633   1.307  1.00  0.00     0.205 C 
HETATM    4  C4  UNL     1       7.233   2.095   2.369  1.00  0.00     0.243 C 
HETATM    5  C5  UNL     1       9.588   1.412   2.744  1.00  0.00     0.176 C 
HETATM    6  C6  UNL     1       9.438  -0.127   2.740  1.00  0.00     0.035 C 
HETATM    7  C7  UNL     1       8.804  -0.761   1.491  1.00  0.00     0.004 C 
HETATM    8  C8  UNL     1       9.605  -0.573   0.202  1.00  0.00     0.030 C 
HETATM    9  C9  UNL     1       8.810  -0.961  -1.047  1.00  0.00     0.267 C 
HETATM   10  C10 UNL     1      10.962   1.879   2.215  1.00  0.00     0.241 C 
HETATM   11  C11 UNL     1      13.393   1.654   2.459  1.00  0.00     0.180 C 
HETATM   12  C12 UNL     1      14.456   1.945   3.540  1.00  0.00     0.009 C 
HETATM   13  C13 UNL     1      14.246   3.335   4.149  1.00  0.00     0.012 C 
HETATM   14  C14 UNL     1      14.504   0.892   4.652  1.00  0.00     0.012 C 
HETATM   15  C15 UNL     1      13.717   0.352   1.692  1.00  0.00     0.241 C 
HETATM   16  C16 UNL     1      15.090  -0.632  -0.120  1.00  0.00     0.177 C 
HETATM   17  C17 UNL     1      14.095  -0.777  -1.285  1.00  0.00     0.038 C 
HETATM   18  C18 UNL     1      13.697   0.522  -2.021  1.00  0.00    -0.020 C 
HETATM   19  C19 UNL     1      12.641   0.202  -3.085  1.00  0.00     0.009 C 
HETATM   20  C20 UNL     1      14.877   1.238  -2.675  1.00  0.00     0.009 C 
HETATM   21  C21 UNL     1      16.562  -0.531  -0.582  1.00  0.00     0.241 C 
HETATM   22  C22 UNL     1      18.830   0.109   0.180  1.00  0.00     0.185 C 
HETATM   23  C23 UNL     1      19.493   1.420   0.654  1.00  0.00     0.010 C 
HETATM   24  C24 UNL     1      19.142   2.576  -0.288  1.00  0.00     0.012 C 
HETATM   25  C25 UNL     1      19.138   1.799   2.096  1.00  0.00     0.012 C 
HETATM   26  C26 UNL     1      19.358  -1.092   0.970  1.00  0.00     0.163 C 
HETATM   27  C27 UNL     1       4.567   0.848   1.170  1.00  0.00     0.240 C 
HETATM   28  C28 UNL     1       3.319   0.251   1.853  1.00  0.00     0.172 C 
HETATM   29  C29 UNL     1       3.688  -0.301   3.223  1.00  0.00     0.042 C 
HETATM   30  C30 UNL     1       1.893  -0.518   0.001  1.00  0.00     0.240 C 
HETATM   31  C31 UNL     1       1.673  -1.653  -1.018  1.00  0.00     0.172 C 
HETATM   32  C32 UNL     1       2.819  -1.670  -2.022  1.00  0.00     0.042 C 
HETATM   33  C33 UNL     1      -0.753  -2.013  -1.227  1.00  0.00     0.241 C 
HETATM   34  C34 UNL     1      -2.061  -1.541  -1.902  1.00  0.00     0.180 C 
HETATM   35  C35 UNL     1      -2.634  -0.218  -1.343  1.00  0.00     0.009 C 
HETATM   36  C36 UNL     1      -2.708  -0.193   0.187  1.00  0.00     0.012 C 
HETATM   37  C37 UNL     1      -1.885   1.013  -1.855  1.00  0.00     0.012 C 
HETATM   38  C38 UNL     1      -4.085  -2.828  -2.572  1.00  0.00     0.241 C 
HETATM   39  C39 UNL     1      -4.998  -4.016  -2.202  1.00  0.00     0.180 C 
HETATM   40  C40 UNL     1      -4.601  -5.292  -2.976  1.00  0.00     0.009 C 
HETATM   41  C41 UNL     1      -3.184  -5.759  -2.630  1.00  0.00     0.012 C 
HETATM   42  C42 UNL     1      -5.584  -6.435  -2.692  1.00  0.00     0.012 C 
HETATM   43  C43 UNL     1      -7.125  -2.903  -1.640  1.00  0.00     0.241 C 
HETATM   44  C44 UNL     1      -8.375  -2.222  -2.238  1.00  0.00     0.176 C 
HETATM   45  C45 UNL     1      -7.955  -0.908  -2.913  1.00  0.00     0.035 C 
HETATM   46  C46 UNL     1      -9.111  -0.025  -3.396  1.00  0.00     0.004 C 
HETATM   47  C47 UNL     1     -10.058  -0.723  -4.375  1.00  0.00     0.030 C 
HETATM   48  C48 UNL     1     -11.149   0.234  -4.858  1.00  0.00     0.267 C 
HETATM   49  C49 UNL     1     -10.272  -2.947  -0.835  1.00  0.00     0.241 C 
HETATM   50  C50 UNL     1     -11.001  -2.668   0.498  1.00  0.00     0.176 C 
HETATM   51  C51 UNL     1     -12.295  -3.494   0.609  1.00  0.00     0.035 C 
HETATM   52  C52 UNL     1     -12.918  -3.425   2.008  1.00  0.00     0.004 C 
HETATM   53  C53 UNL     1     -14.296  -4.082   2.118  1.00  0.00     0.030 C 
HETATM   54  C54 UNL     1     -15.344  -3.409   1.230  1.00  0.00     0.267 C 
HETATM   55  C55 UNL     1     -11.223  -0.511   1.746  1.00  0.00     0.241 C 
HETATM   56  C56 UNL     1     -11.802   0.932   1.678  1.00  0.00     0.176 C 
HETATM   57  C57 UNL     1     -12.120   1.457   3.096  1.00  0.00     0.035 C 
HETATM   58  C58 UNL     1     -13.057   0.605   3.976  1.00  0.00     0.004 C 
HETATM   59  C59 UNL     1     -14.430   0.294   3.375  1.00  0.00     0.030 C 
HETATM   60  C60 UNL     1     -15.315  -0.455   4.373  1.00  0.00     0.267 C 
HETATM   61  C61 UNL     1     -12.893   1.162  -0.570  1.00  0.00     0.251 C 
HETATM   62  C62 UNL     1     -14.149   1.758  -1.246  1.00  0.00     0.308 C 
HETATM   63  C63 UNL     1     -13.767   2.937  -2.152  1.00  0.00     0.045 C 
HETATM   64  C64 UNL     1     -13.162   4.136  -1.407  1.00  0.00     0.004 C 
HETATM   65  C65 UNL     1     -12.781   5.254  -2.385  1.00  0.00     0.030 C 
HETATM   66  C66 UNL     1     -12.094   6.438  -1.703  1.00  0.00     0.267 C 
HETATM   67  O1  UNL     1       6.863   1.681   3.468  1.00  0.00    -0.271 OA
HETATM   68  O2  UNL     1      11.082   2.528   1.176  1.00  0.00    -0.271 OA
HETATM   69  O3  UNL     1      13.135  -0.708   1.915  1.00  0.00    -0.271 OA
HETATM   70  O4  UNL     1      16.998  -1.078  -1.590  1.00  0.00    -0.271 OA
HETATM   71  O5  UNL     1      18.776  -1.666   1.879  1.00  0.00    -0.648 OA
HETATM   72  O6  UNL     1      20.597  -1.469   0.600  1.00  0.00    -0.775 OA
HETATM   73  O7  UNL     1       5.206   0.237   0.312  1.00  0.00    -0.271 OA
HETATM   74  O8  UNL     1       1.340   0.576  -0.099  1.00  0.00    -0.271 OA
HETATM   75  O9  UNL     1      -0.754  -2.863  -0.335  1.00  0.00    -0.271 OA
HETATM   76  O10 UNL     1      -4.289  -2.129  -3.566  1.00  0.00    -0.271 OA
HETATM   77  O11 UNL     1      -6.821  -2.807  -0.451  1.00  0.00    -0.271 OA
HETATM   78  O12 UNL     1     -10.441  -3.965  -1.502  1.00  0.00    -0.271 OA
HETATM   79  O13 UNL     1     -10.639  -0.947   2.737  1.00  0.00    -0.271 OA
HETATM   80  O14 UNL     1     -11.930   0.729  -1.198  1.00  0.00    -0.271 OA
HETATM   81  O15 UNL     1       5.425   4.712   2.305  1.00  0.00    -0.393 OA
HETATM   82  N1  UNL     1       8.550   2.091   1.978  1.00  0.00    -0.346 N 
HETATM   83  N2  UNL     1       7.762   0.014  -1.340  1.00  0.00     0.078 N 
HETATM   84  N3  UNL     1      12.044   1.526   3.000  1.00  0.00    -0.346 N 
HETATM   85  N4  UNL     1      14.748   0.467   0.785  1.00  0.00    -0.346 N 
HETATM   86  N5  UNL     1      17.372   0.146   0.314  1.00  0.00    -0.345 N 
HETATM   87  N6  UNL     1       4.928   2.098   1.632  1.00  0.00    -0.344 N 
HETATM   88  N7  UNL     1       2.802  -0.812   0.998  1.00  0.00    -0.346 N 
HETATM   89  N8  UNL     1       0.402  -1.434  -1.703  1.00  0.00    -0.346 N 
HETATM   90  N9  UNL     1      -3.018  -2.634  -1.732  1.00  0.00    -0.346 N 
HETATM   91  N10 UNL     1      -6.347  -3.578  -2.560  1.00  0.00    -0.346 N 
HETATM   92  N11 UNL     1     -12.058  -0.433  -5.787  1.00  0.00     0.078 N 
HETATM   93  N12 UNL     1      -9.327  -1.991  -1.161  1.00  0.00    -0.346 N 
HETATM   94  N13 UNL     1     -16.688  -3.765   1.669  1.00  0.00     0.078 N 
HETATM   95  N14 UNL     1     -11.300  -1.239   0.587  1.00  0.00    -0.346 N 
HETATM   96  N15 UNL     1     -16.601  -0.783   3.765  1.00  0.00     0.078 N 
HETATM   97  N16 UNL     1     -12.964   1.124   0.803  1.00  0.00    -0.346 N 
HETATM   98  N17 UNL     1     -12.976   7.108  -0.755  1.00  0.00     0.078 N 
HETATM   99  N18 UNL     1     -15.155   2.145  -0.227  1.00  0.00     0.092 N 
HETATM  100  HA1 UNL     1      20.792  -2.249   1.162  1.00  0.00     0.167 HD
HETATM  101  HA2 UNL     1       4.505   4.547   2.031  1.00  0.00     0.210 HD
HETATM  102  HA3 UNL     1       8.794   2.317   1.017  1.00  0.00     0.163 HD
HETATM  103  HA4 UNL     1       7.002  -0.064  -0.651  1.00  0.00     0.312 HD
HETATM  104  HA5 UNL     1       7.320  -0.231  -2.225  1.00  0.00     0.312 HD
HETATM  105  HA6 UNL     1      11.904   0.739   3.624  1.00  0.00     0.163 HD
HETATM  106  HA7 UNL     1      15.022   1.397   0.489  1.00  0.00     0.163 HD
HETATM  107  HA8 UNL     1      17.010   0.159   1.263  1.00  0.00     0.163 HD
HETATM  108  HA9 UNL     1       4.629   2.325   2.576  1.00  0.00     0.163 HD
HETATM  109  HB0 UNL     1       3.443  -1.576   0.819  1.00  0.00     0.163 HD
HETATM  110  HB1 UNL     1       0.313  -0.544  -2.179  1.00  0.00     0.163 HD
HETATM  111  HB2 UNL     1      -2.917  -3.194  -0.889  1.00  0.00     0.163 HD
HETATM  112  HB3 UNL     1      -6.470  -3.323  -3.534  1.00  0.00     0.163 HD
HETATM  113  HB4 UNL     1     -11.527  -0.796  -6.577  1.00  0.00     0.312 HD
HETATM  114  HB5 UNL     1     -12.462  -1.250  -5.329  1.00  0.00     0.312 HD
HETATM  115  HB6 UNL     1      -9.009  -1.418  -0.385  1.00  0.00     0.163 HD
HETATM  116  HB7 UNL     1     -16.792  -4.780   1.651  1.00  0.00     0.312 HD
HETATM  117  HB8 UNL     1     -17.369  -3.403   1.001  1.00  0.00     0.312 HD
HETATM  118  HB9 UNL     1     -11.574  -0.750  -0.266  1.00  0.00     0.163 HD
HETATM  119  HC0 UNL     1     -17.202  -1.204   4.474  1.00  0.00     0.312 HD
HETATM  120  HC1 UNL     1     -16.469  -1.531   3.077  1.00  0.00     0.312 HD
HETATM  121  HC2 UNL     1     -13.702   1.744   1.138  1.00  0.00     0.163 HD
HETATM  122  HC3 UNL     1     -13.800   7.459  -1.242  1.00  0.00     0.312 HD
HETATM  123  HC4 UNL     1     -12.502   7.924  -0.370  1.00  0.00     0.312 HD
HETATM  124  HC5 UNL     1     -15.580   1.293   0.150  1.00  0.00     0.313 HD
HETATM  125  HC6 UNL     1     -15.917   2.642  -0.691  1.00  0.00     0.313 HD
ENDROOT
TORSDOF 60
